MODEL 1
REMARK VINA RESULT:      -4.4      0.000      0.000
REMARK  Name = 
REMARK  3 active torsions:
REMARK  status: ('A' for Active; 'I' for Inactive)
REMARK    1  A    between atoms: C_2  and  O_4
REMARK    2  A    between atoms: O_4  and  C_5
REMARK    3  A    between atoms: C_5  and  C_7
REMARK                            x       y       z     vdW  Elec       q    Type
REMARK                         _______ _______ _______ _____ _____    ______ ____
ROOT
ATOM      1  C   UNL     1     -13.068  14.328  72.746  0.00  0.00    +0.294 C 
ATOM      2 CL   UNL     1     -14.562  14.956  71.745  0.00  0.00    -0.073 Cl
ENDROOT
BRANCH   1   3
ATOM      3  C   UNL     1     -12.820  15.728  73.504  0.00  0.00    +0.437 C 
ATOM      4  F   UNL     1     -14.044  16.357  73.286  0.00  0.00    -0.166 F 
ATOM      5  F   UNL     1     -12.628  15.575  74.811  0.00  0.00    -0.166 F 
ATOM      6  F   UNL     1     -11.888  16.438  72.810  0.00  0.00    -0.166 F 
ENDBRANCH   1   3
BRANCH   1   7
ATOM      7  O   UNL     1     -12.122  14.571  71.618  0.00  0.00    -0.278 OA
BRANCH   7   9
ATOM      8  F   UNL     1     -12.437  12.353  71.031  0.00  0.00    -0.166 F 
ATOM      9  C   UNL     1     -12.393  13.646  70.683  0.00  0.00    +0.451 C 
ATOM     10  F   UNL     1     -12.478  13.981  69.396  0.00  0.00    -0.166 F 
ENDBRANCH   7   9
ENDBRANCH   1   7
TORSDOF 3
ENDMDL
MODEL 2
REMARK VINA RESULT:      -4.4      1.489      2.137
REMARK  Name = 
REMARK  3 active torsions:
REMARK  status: ('A' for Active; 'I' for Inactive)
REMARK    1  A    between atoms: C_2  and  O_4
REMARK    2  A    between atoms: O_4  and  C_5
REMARK    3  A    between atoms: C_5  and  C_7
REMARK                            x       y       z     vdW  Elec       q    Type
REMARK                         _______ _______ _______ _____ _____    ______ ____
ROOT
ATOM      1  C   UNL     1     -12.327  14.844  72.163  0.00  0.00    +0.294 C 
ATOM      2 CL   UNL     1     -13.751  13.602  72.403  0.00  0.00    -0.073 Cl
ENDROOT
BRANCH   1   3
ATOM      3  C   UNL     1     -12.792  15.812  73.364  0.00  0.00    +0.437 C 
ATOM      4  F   UNL     1     -11.902  16.871  73.197  0.00  0.00    -0.166 F 
ATOM      5  F   UNL     1     -14.037  16.252  73.212  0.00  0.00    -0.166 F 
ATOM      6  F   UNL     1     -12.474  15.218  74.548  0.00  0.00    -0.166 F 
ENDBRANCH   1   3
BRANCH   1   7
ATOM      7  O   UNL     1     -13.045  15.563  71.072  0.00  0.00    -0.278 OA
BRANCH   7   9
ATOM      8  F   UNL     1     -12.191  14.911  69.020  0.00  0.00    -0.166 F 
ATOM      9  C   UNL     1     -12.160  15.734  70.076  0.00  0.00    +0.451 C 
ATOM     10  F   UNL     1     -11.168  16.617  70.189  0.00  0.00    -0.166 F 
ENDBRANCH   7   9
ENDBRANCH   1   7
TORSDOF 3
ENDMDL
MODEL 3
REMARK VINA RESULT:      -4.3      1.779      2.522
REMARK  Name = 
REMARK  3 active torsions:
REMARK  status: ('A' for Active; 'I' for Inactive)
REMARK    1  A    between atoms: C_2  and  O_4
REMARK    2  A    between atoms: O_4  and  C_5
REMARK    3  A    between atoms: C_5  and  C_7
REMARK                            x       y       z     vdW  Elec       q    Type
REMARK                         _______ _______ _______ _____ _____    ______ ____
ROOT
ATOM      1  C   UNL     1     -13.059  15.370  71.061  0.00  0.00    +0.294 C 
ATOM      2 CL   UNL     1     -12.107  16.192  72.491  0.00  0.00    -0.073 Cl
ENDROOT
BRANCH   1   3
ATOM      3  C   UNL     1     -14.405  15.136  71.915  0.00  0.00    +0.437 C 
ATOM      4  F   UNL     1     -14.241  16.091  72.915  0.00  0.00    -0.166 F 
ATOM      5  F   UNL     1     -15.505  15.406  71.220  0.00  0.00    -0.166 F 
ATOM      6  F   UNL     1     -14.326  13.919  72.522  0.00  0.00    -0.166 F 
ENDBRANCH   1   3
BRANCH   1   7
ATOM      7  O   UNL     1     -12.447  14.036  71.329  0.00  0.00    -0.278 OA
BRANCH   7   9
ATOM      8  F   UNL     1     -12.378  14.213  69.021  0.00  0.00    -0.166 F 
ATOM      9  C   UNL     1     -12.126  13.513  70.135  0.00  0.00    +0.451 C 
ATOM     10  F   UNL     1     -11.692  12.257  70.034  0.00  0.00    -0.166 F 
ENDBRANCH   7   9
ENDBRANCH   1   7
TORSDOF 3
ENDMDL
MODEL 4
REMARK VINA RESULT:      -4.2      1.857      3.866
REMARK  Name = 
REMARK  3 active torsions:
REMARK  status: ('A' for Active; 'I' for Inactive)
REMARK    1  A    between atoms: C_2  and  O_4
REMARK    2  A    between atoms: O_4  and  C_5
REMARK    3  A    between atoms: C_5  and  C_7
REMARK                            x       y       z     vdW  Elec       q    Type
REMARK                         _______ _______ _______ _____ _____    ______ ____
ROOT
ATOM      1  C   UNL     1     -11.980  15.105  72.335  0.00  0.00    +0.294 C 
ATOM      2 CL   UNL     1     -11.587  16.067  70.739  0.00  0.00    -0.073 Cl
ENDROOT
BRANCH   1   3
ATOM      3  C   UNL     1     -13.309  14.410  71.747  0.00  0.00    +0.437 C 
ATOM      4  F   UNL     1     -13.479  13.371  72.659  0.00  0.00    -0.166 F 
ATOM      5  F   UNL     1     -14.367  15.214  71.790  0.00  0.00    -0.166 F 
ATOM      6  F   UNL     1     -13.004  13.833  70.552  0.00  0.00    -0.166 F 
ENDBRANCH   1   3
BRANCH   1   7
ATOM      7  O   UNL     1     -12.657  16.278  72.959  0.00  0.00    -0.278 OA
BRANCH   7   9
ATOM      8  F   UNL     1     -12.069  17.346  74.927  0.00  0.00    -0.166 F 
ATOM      9  C   UNL     1     -12.393  16.222  74.274  0.00  0.00    +0.451 C 
ATOM     10  F   UNL     1     -12.310  15.051  74.905  0.00  0.00    -0.166 F 
ENDBRANCH   7   9
ENDBRANCH   1   7
TORSDOF 3
ENDMDL
MODEL 5
REMARK VINA RESULT:      -3.9      2.270      2.804
REMARK  Name = 
REMARK  3 active torsions:
REMARK  status: ('A' for Active; 'I' for Inactive)
REMARK    1  A    between atoms: C_2  and  O_4
REMARK    2  A    between atoms: O_4  and  C_5
REMARK    3  A    between atoms: C_5  and  C_7
REMARK                            x       y       z     vdW  Elec       q    Type
REMARK                         _______ _______ _______ _____ _____    ______ ____
ROOT
ATOM      1  C   UNL     1     -12.427  15.217  71.618  0.00  0.00    +0.294 C 
ATOM      2 CL   UNL     1     -12.399  13.484  70.828  0.00  0.00    -0.073 Cl
ENDROOT
BRANCH   1   3
ATOM      3  C   UNL     1     -13.948  15.100  72.139  0.00  0.00    +0.437 C 
ATOM      4  F   UNL     1     -13.944  16.055  73.153  0.00  0.00    -0.166 F 
ATOM      5  F   UNL     1     -14.834  15.444  71.210  0.00  0.00    -0.166 F 
ATOM      6  F   UNL     1     -14.106  13.891  72.744  0.00  0.00    -0.166 F 
ENDBRANCH   1   3
BRANCH   1   7
ATOM      7  O   UNL     1     -12.739  15.880  70.318  0.00  0.00    -0.278 OA
BRANCH   7   9
ATOM      8  F   UNL     1     -10.424  15.856  70.326  0.00  0.00    -0.166 F 
ATOM      9  C   UNL     1     -11.576  16.000  69.658  0.00  0.00    +0.451 C 
ATOM     10  F   UNL     1     -11.550  16.397  68.386  0.00  0.00    -0.166 F 
ENDBRANCH   7   9
ENDBRANCH   1   7
TORSDOF 3
ENDMDL
MODEL 6
REMARK VINA RESULT:      -3.9      1.663      3.821
REMARK  Name = 
REMARK  3 active torsions:
REMARK  status: ('A' for Active; 'I' for Inactive)
REMARK    1  A    between atoms: C_2  and  O_4
REMARK    2  A    between atoms: O_4  and  C_5
REMARK    3  A    between atoms: C_5  and  C_7
REMARK                            x       y       z     vdW  Elec       q    Type
REMARK                         _______ _______ _______ _____ _____    ______ ____
ROOT
ATOM      1  C   UNL     1     -12.966  15.530  71.001  0.00  0.00    +0.294 C 
ATOM      2 CL   UNL     1     -12.947  13.695  71.511  0.00  0.00    -0.073 Cl
ENDROOT
BRANCH   1   3
ATOM      3  C   UNL     1     -11.770  15.383  69.932  0.00  0.00    +0.437 C 
ATOM      4  F   UNL     1     -12.020  14.102  69.444  0.00  0.00    -0.166 F 
ATOM      5  F   UNL     1     -11.862  16.261  68.937  0.00  0.00    -0.166 F 
ATOM      6  F   UNL     1     -10.589  15.319  70.608  0.00  0.00    -0.166 F 
ENDBRANCH   1   3
BRANCH   1   7
ATOM      7  O   UNL     1     -12.116  15.933  72.159  0.00  0.00    -0.278 OA
BRANCH   7   9
ATOM      8  F   UNL     1     -12.428  15.261  74.353  0.00  0.00    -0.166 F 
ATOM      9  C   UNL     1     -12.894  15.863  73.251  0.00  0.00    +0.451 C 
ATOM     10  F   UNL     1     -14.167  16.256  73.209  0.00  0.00    -0.166 F 
ENDBRANCH   7   9
ENDBRANCH   1   7
TORSDOF 3
ENDMDL
MODEL 7
REMARK VINA RESULT:      -3.8      5.960      8.310
REMARK  Name = 
REMARK  3 active torsions:
REMARK  status: ('A' for Active; 'I' for Inactive)
REMARK    1  A    between atoms: C_2  and  O_4
REMARK    2  A    between atoms: O_4  and  C_5
REMARK    3  A    between atoms: C_5  and  C_7
REMARK                            x       y       z     vdW  Elec       q    Type
REMARK                         _______ _______ _______ _____ _____    ______ ____
ROOT
ATOM      1  C   UNL     1     -11.931  12.323  65.163  0.00  0.00    +0.294 C 
ATOM      2 CL   UNL     1     -10.167  13.044  65.183  0.00  0.00    -0.073 Cl
ENDROOT
BRANCH   1   3
ATOM      3  C   UNL     1     -12.134  12.514  63.576  0.00  0.00    +0.437 C 
ATOM      4  F   UNL     1     -10.827  12.329  63.128  0.00  0.00    -0.166 F 
ATOM      5  F   UNL     1     -12.919  11.582  63.045  0.00  0.00    -0.166 F 
ATOM      6  F   UNL     1     -12.448  13.817  63.332  0.00  0.00    -0.166 F 
ENDBRANCH   1   3
BRANCH   1   7
ATOM      7  O   UNL     1     -12.541  13.621  65.573  0.00  0.00    -0.278 OA
BRANCH   7   9
ATOM      8  F   UNL     1     -12.131  12.948  67.751  0.00  0.00    -0.166 F 
ATOM      9  C   UNL     1     -12.075  13.894  66.803  0.00  0.00    +0.451 C 
ATOM     10  F   UNL     1     -11.692  15.127  67.131  0.00  0.00    -0.166 F 
ENDBRANCH   7   9
ENDBRANCH   1   7
TORSDOF 3
ENDMDL
MODEL 8
REMARK VINA RESULT:      -3.8      6.012      8.366
REMARK  Name = 
REMARK  3 active torsions:
REMARK  status: ('A' for Active; 'I' for Inactive)
REMARK    1  A    between atoms: C_2  and  O_4
REMARK    2  A    between atoms: O_4  and  C_5
REMARK    3  A    between atoms: C_5  and  C_7
REMARK                            x       y       z     vdW  Elec       q    Type
REMARK                         _______ _______ _______ _____ _____    ______ ____
ROOT
ATOM      1  C   UNL     1     -12.014  12.432  65.186  0.00  0.00    +0.294 C 
ATOM      2 CL   UNL     1     -10.147  12.771  65.356  0.00  0.00    -0.073 Cl
ENDROOT
BRANCH   1   3
ATOM      3  C   UNL     1     -12.011  12.478  63.575  0.00  0.00    +0.437 C 
ATOM      4  F   UNL     1     -12.429  13.789  63.358  0.00  0.00    -0.166 F 
ATOM      5  F   UNL     1     -10.797  12.310  63.062  0.00  0.00    -0.166 F 
ATOM      6  F   UNL     1     -13.007  11.671  63.116  0.00  0.00    -0.166 F 
ENDBRANCH   1   3
BRANCH   1   7
ATOM      7  O   UNL     1     -12.365  13.865  65.401  0.00  0.00    -0.278 OA
BRANCH   7   9
ATOM      8  F   UNL     1     -11.424  15.290  66.966  0.00  0.00    -0.166 F 
ATOM      9  C   UNL     1     -12.064  14.148  66.679  0.00  0.00    +0.451 C 
ATOM     10  F   UNL     1     -12.264  13.251  67.643  0.00  0.00    -0.166 F 
ENDBRANCH   7   9
ENDBRANCH   1   7
TORSDOF 3
ENDMDL
MODEL 9
REMARK VINA RESULT:      -3.8      1.432      2.085
REMARK  Name = 
REMARK  3 active torsions:
REMARK  status: ('A' for Active; 'I' for Inactive)
REMARK    1  A    between atoms: C_2  and  O_4
REMARK    2  A    between atoms: O_4  and  C_5
REMARK    3  A    between atoms: C_5  and  C_7
REMARK                            x       y       z     vdW  Elec       q    Type
REMARK                         _______ _______ _______ _____ _____    ______ ____
ROOT
ATOM      1  C   UNL     1     -13.449  14.715  71.420  0.00  0.00    +0.294 C 
ATOM      2 CL   UNL     1     -12.454  15.791  70.202  0.00  0.00    -0.073 Cl
ENDROOT
BRANCH   1   3
ATOM      3  C   UNL     1     -13.204  15.685  72.683  0.00  0.00    +0.437 C 
ATOM      4  F   UNL     1     -12.947  14.745  73.679  0.00  0.00    -0.166 F 
ATOM      5  F   UNL     1     -12.141  16.467  72.528  0.00  0.00    -0.166 F 
ATOM      6  F   UNL     1     -14.384  16.282  73.007  0.00  0.00    -0.166 F 
ENDBRANCH   1   3
BRANCH   1   7
ATOM      7  O   UNL     1     -12.292  13.807  71.670  0.00  0.00    -0.278 OA
BRANCH   7   9
ATOM      8  F   UNL     1     -12.401  11.989  70.240  0.00  0.00    -0.166 F 
ATOM      9  C   UNL     1     -12.718  12.561  71.409  0.00  0.00    +0.451 C 
ATOM     10  F   UNL     1     -13.564  11.941  72.232  0.00  0.00    -0.166 F 
ENDBRANCH   7   9
ENDBRANCH   1   7
TORSDOF 3
ENDMDL
