MODEL 1
REMARK VINA RESULT:      -7.2      0.000      0.000
REMARK  Name = 
REMARK  9 active torsions:
REMARK  status: ('A' for Active; 'I' for Inactive)
REMARK    1  A    between atoms: C_2  and  C_11
REMARK    2  A    between atoms: N_3  and  C_4
REMARK    3  A    between atoms: C_4  and  C_5
REMARK    4  A    between atoms: C_13  and  O_14
REMARK    5  A    between atoms: O_14  and  C_15
REMARK    6  A    between atoms: C_15  and  C_16
REMARK    7  A    between atoms: C_22  and  O_23
REMARK    8  A    between atoms: O_23  and  C_24
REMARK    9  A    between atoms: C_24  and  C_25
REMARK                            x       y       z     vdW  Elec       q    Type
REMARK                         _______ _______ _______ _____ _____    ______ ____
ROOT
ATOM      1  C   UNL     1     -11.870  13.524  68.569  0.00  0.00    +0.092 A 
ATOM      2  C   UNL     1     -11.163  12.332  68.456  0.00  0.00    +0.144 A 
ATOM      3  C   UNL     1     -11.430  11.351  69.404  0.00  0.00    +0.040 A 
ATOM      4  C   UNL     1     -12.228  11.628  70.508  0.00  0.00    +0.040 A 
ATOM      5  C   UNL     1     -12.403  12.945  70.869  0.00  0.00    +0.139 A 
ATOM      6  C   UNL     1     -12.158  13.889  69.880  0.00  0.00    +0.045 A 
ENDROOT
BRANCH   1   8
ATOM      7  O   UNL     1     -12.332  14.366  66.466  0.00  0.00    -0.268 OA
ATOM      8  C   UNL     1     -11.716  14.484  67.495  0.00  0.00    +0.268 C 
ATOM      9  N   UNL     1     -10.777  15.561  67.510  0.00  0.00    -0.200 NA
BRANCH   9  10
ATOM     10  C   UNL     1      -9.934  15.844  66.369  0.00  0.00    +0.133 C 
BRANCH  10  11
ATOM     11  C   UNL     1     -10.241  17.446  66.023  0.00  0.00    +0.094 C 
ATOM     12  N   UNL     1      -8.679  17.755  65.872  0.00  0.00    -0.218 NA
ATOM     13  C   UNL     1      -8.540  19.118  66.315  0.00  0.00    +0.089 C 
ATOM     14  C   UNL     1      -9.877  19.847  66.322  0.00  0.00    +0.019 C 
ATOM     15  C   UNL     1     -10.626  19.314  67.538  0.00  0.00    +0.003 C 
ATOM     16  C   UNL     1     -10.214  17.849  67.643  0.00  0.00    +0.019 C 
ENDBRANCH  10  11
ENDBRANCH   9  10
ENDBRANCH   1   8
BRANCH   2  17
ATOM     17  O   UNL     1     -10.393  12.021  67.342  0.00  0.00    -0.466 OA
BRANCH  17  18
ATOM     18  C   UNL     1     -10.716  10.984  66.435  0.00  0.00    +0.308 C 
BRANCH  18  19
ATOM     19  C   UNL     1     -10.796  11.552  65.042  0.00  0.00    +0.438 C 
ATOM     20  F   UNL     1     -12.081  11.875  64.665  0.00  0.00    -0.166 F 
ATOM     21  F   UNL     1      -9.986  12.669  64.940  0.00  0.00    -0.166 F 
ATOM     22  F   UNL     1     -10.314  10.628  64.128  0.00  0.00    -0.166 F 
ENDBRANCH  18  19
ENDBRANCH  17  18
ENDBRANCH   2  17
BRANCH   5  23
ATOM     23  O   UNL     1     -13.241  13.341  71.915  0.00  0.00    -0.467 OA
BRANCH  23  24
ATOM     24  C   UNL     1     -13.895  14.595  71.732  0.00  0.00    +0.308 C 
BRANCH  24  25
ATOM     25  C   UNL     1     -13.368  15.524  72.796  0.00  0.00    +0.438 C 
ATOM     26  F   UNL     1     -12.331  16.273  72.279  0.00  0.00    -0.166 F 
ATOM     27  F   UNL     1     -14.379  16.374  73.159  0.00  0.00    -0.166 F 
ATOM     28  F   UNL     1     -12.874  14.794  73.848  0.00  0.00    -0.166 F 
ENDBRANCH  24  25
ENDBRANCH  23  24
ENDBRANCH   5  23
TORSDOF 9
ENDMDL
MODEL 2
REMARK VINA RESULT:      -7.2      3.508      4.534
REMARK  Name = 
REMARK  9 active torsions:
REMARK  status: ('A' for Active; 'I' for Inactive)
REMARK    1  A    between atoms: C_2  and  C_11
REMARK    2  A    between atoms: N_3  and  C_4
REMARK    3  A    between atoms: C_4  and  C_5
REMARK    4  A    between atoms: C_13  and  O_14
REMARK    5  A    between atoms: O_14  and  C_15
REMARK    6  A    between atoms: C_15  and  C_16
REMARK    7  A    between atoms: C_22  and  O_23
REMARK    8  A    between atoms: O_23  and  C_24
REMARK    9  A    between atoms: C_24  and  C_25
REMARK                            x       y       z     vdW  Elec       q    Type
REMARK                         _______ _______ _______ _____ _____    ______ ____
ROOT
ATOM      1  C   UNL     1     -12.080  12.262  69.852  0.00  0.00    +0.092 A 
ATOM      2  C   UNL     1     -12.416  11.303  70.800  0.00  0.00    +0.144 A 
ATOM      3  C   UNL     1     -13.194  11.724  71.872  0.00  0.00    +0.040 A 
ATOM      4  C   UNL     1     -13.459  13.075  72.069  0.00  0.00    +0.040 A 
ATOM      5  C   UNL     1     -12.633  13.994  71.464  0.00  0.00    +0.139 A 
ATOM      6  C   UNL     1     -11.900  13.538  70.375  0.00  0.00    +0.045 A 
ENDROOT
BRANCH   1   8
ATOM      7  O   UNL     1     -10.241  11.505  68.674  0.00  0.00    -0.268 OA
ATOM      8  C   UNL     1     -11.410  11.796  68.654  0.00  0.00    +0.268 C 
ATOM      9  N   UNL     1     -12.018  11.740  67.363  0.00  0.00    -0.200 NA
BRANCH   9  10
ATOM     10  C   UNL     1     -11.342  12.244  66.187  0.00  0.00    +0.133 C 
BRANCH  10  11
ATOM     11  C   UNL     1     -11.196  13.881  66.473  0.00  0.00    +0.094 C 
ATOM     12  N   UNL     1     -11.763  14.226  65.018  0.00  0.00    -0.218 NA
ATOM     13  C   UNL     1     -11.089  15.445  64.652  0.00  0.00    +0.089 C 
ATOM     14  C   UNL     1     -10.489  16.143  65.865  0.00  0.00    +0.019 C 
ATOM     15  C   UNL     1      -9.253  15.330  66.233  0.00  0.00    +0.003 C 
ATOM     16  C   UNL     1      -9.622  13.884  65.914  0.00  0.00    +0.019 C 
ENDBRANCH  10  11
ENDBRANCH   9  10
ENDBRANCH   1   8
BRANCH   2  17
ATOM     17  O   UNL     1     -12.195   9.945  70.603  0.00  0.00    -0.466 OA
BRANCH  17  18
ATOM     18  C   UNL     1     -11.255   9.192  71.346  0.00  0.00    +0.308 C 
BRANCH  18  19
ATOM     19  C   UNL     1     -11.988   8.197  72.209  0.00  0.00    +0.438 C 
ATOM     20  F   UNL     1     -13.134   8.713  72.771  0.00  0.00    -0.166 F 
ATOM     21  F   UNL     1     -12.298   7.069  71.469  0.00  0.00    -0.166 F 
ATOM     22  F   UNL     1     -11.168   7.778  73.245  0.00  0.00    -0.166 F 
ENDBRANCH  18  19
ENDBRANCH  17  18
ENDBRANCH   2  17
BRANCH   5  23
ATOM     23  O   UNL     1     -12.849  15.373  71.535  0.00  0.00    -0.467 OA
BRANCH  23  24
ATOM     24  C   UNL     1     -11.947  16.091  72.375  0.00  0.00    +0.308 C 
BRANCH  24  25
ATOM     25  C   UNL     1     -12.572  16.146  73.745  0.00  0.00    +0.438 C 
ATOM     26  F   UNL     1     -12.114  17.261  74.416  0.00  0.00    -0.166 F 
ATOM     27  F   UNL     1     -13.929  16.259  73.590  0.00  0.00    -0.166 F 
ATOM     28  F   UNL     1     -12.203  15.040  74.469  0.00  0.00    -0.166 F 
ENDBRANCH  24  25
ENDBRANCH  23  24
ENDBRANCH   5  23
TORSDOF 9
ENDMDL
MODEL 3
REMARK VINA RESULT:      -7.2      2.341      3.349
REMARK  Name = 
REMARK  9 active torsions:
REMARK  status: ('A' for Active; 'I' for Inactive)
REMARK    1  A    between atoms: C_2  and  C_11
REMARK    2  A    between atoms: N_3  and  C_4
REMARK    3  A    between atoms: C_4  and  C_5
REMARK    4  A    between atoms: C_13  and  O_14
REMARK    5  A    between atoms: O_14  and  C_15
REMARK    6  A    between atoms: C_15  and  C_16
REMARK    7  A    between atoms: C_22  and  O_23
REMARK    8  A    between atoms: O_23  and  C_24
REMARK    9  A    between atoms: C_24  and  C_25
REMARK                            x       y       z     vdW  Elec       q    Type
REMARK                         _______ _______ _______ _____ _____    ______ ____
ROOT
ATOM      1  C   UNL     1     -10.865  16.389  68.611  0.00  0.00    +0.092 A 
ATOM      2  C   UNL     1     -11.118  15.350  67.722  0.00  0.00    +0.144 A 
ATOM      3  C   UNL     1     -11.812  14.253  68.219  0.00  0.00    +0.040 A 
ATOM      4  C   UNL     1     -12.068  14.133  69.580  0.00  0.00    +0.040 A 
ATOM      5  C   UNL     1     -11.298  14.865  70.454  0.00  0.00    +0.139 A 
ATOM      6  C   UNL     1     -10.652  15.974  69.921  0.00  0.00    +0.045 A 
ENDROOT
BRANCH   1   8
ATOM      7  O   UNL     1     -10.990  18.467  67.605  0.00  0.00    -0.268 OA
ATOM      8  C   UNL     1     -10.289  17.600  68.061  0.00  0.00    +0.268 C 
ATOM      9  N   UNL     1      -8.886  17.827  67.914  0.00  0.00    -0.200 NA
BRANCH   9  10
ATOM     10  C   UNL     1      -8.330  18.347  66.683  0.00  0.00    +0.133 C 
BRANCH  10  11
ATOM     11  C   UNL     1      -6.833  18.930  67.129  0.00  0.00    +0.094 C 
ATOM     12  N   UNL     1      -7.180  18.752  68.680  0.00  0.00    -0.218 NA
ATOM     13  C   UNL     1      -6.461  19.815  69.333  0.00  0.00    +0.089 C 
ATOM     14  C   UNL     1      -5.364  20.382  68.441  0.00  0.00    +0.019 C 
ATOM     15  C   UNL     1      -6.083  21.232  67.400  0.00  0.00    +0.003 C 
ATOM     16  C   UNL     1      -7.396  20.502  67.134  0.00  0.00    +0.019 C 
ENDBRANCH  10  11
ENDBRANCH   9  10
ENDBRANCH   1   8
BRANCH   2  17
ATOM     17  O   UNL     1     -10.906  15.467  66.353  0.00  0.00    -0.466 OA
BRANCH  17  18
ATOM     18  C   UNL     1     -10.934  14.368  65.463  0.00  0.00    +0.308 C 
BRANCH  18  19
ATOM     19  C   UNL     1     -12.161  14.465  64.594  0.00  0.00    +0.438 C 
ATOM     20  F   UNL     1     -12.149  13.574  63.544  0.00  0.00    -0.166 F 
ATOM     21  F   UNL     1     -13.298  14.272  65.357  0.00  0.00    -0.166 F 
ATOM     22  F   UNL     1     -12.257  15.739  64.056  0.00  0.00    -0.166 F 
ENDBRANCH  18  19
ENDBRANCH  17  18
ENDBRANCH   2  17
BRANCH   5  23
ATOM     23  O   UNL     1     -11.517  14.876  71.835  0.00  0.00    -0.467 OA
BRANCH  23  24
ATOM     24  C   UNL     1     -12.065  16.085  72.356  0.00  0.00    +0.308 C 
BRANCH  24  25
ATOM     25  C   UNL     1     -13.112  15.691  73.367  0.00  0.00    +0.438 C 
ATOM     26  F   UNL     1     -13.334  14.331  73.293  0.00  0.00    -0.166 F 
ATOM     27  F   UNL     1     -12.632  15.985  74.615  0.00  0.00    -0.166 F 
ATOM     28  F   UNL     1     -14.296  16.324  73.082  0.00  0.00    -0.166 F 
ENDBRANCH  24  25
ENDBRANCH  23  24
ENDBRANCH   5  23
TORSDOF 9
ENDMDL
MODEL 4
REMARK VINA RESULT:      -7.0      3.031      6.232
REMARK  Name = 
REMARK  9 active torsions:
REMARK  status: ('A' for Active; 'I' for Inactive)
REMARK    1  A    between atoms: C_2  and  C_11
REMARK    2  A    between atoms: N_3  and  C_4
REMARK    3  A    between atoms: C_4  and  C_5
REMARK    4  A    between atoms: C_13  and  O_14
REMARK    5  A    between atoms: O_14  and  C_15
REMARK    6  A    between atoms: C_15  and  C_16
REMARK    7  A    between atoms: C_22  and  O_23
REMARK    8  A    between atoms: O_23  and  C_24
REMARK    9  A    between atoms: C_24  and  C_25
REMARK                            x       y       z     vdW  Elec       q    Type
REMARK                         _______ _______ _______ _____ _____    ______ ____
ROOT
ATOM      1  C   UNL     1     -11.437  13.394  68.927  0.00  0.00    +0.092 A 
ATOM      2  C   UNL     1     -11.041  14.088  67.789  0.00  0.00    +0.144 A 
ATOM      3  C   UNL     1     -10.830  15.454  67.929  0.00  0.00    +0.040 A 
ATOM      4  C   UNL     1     -11.181  16.111  69.103  0.00  0.00    +0.040 A 
ATOM      5  C   UNL     1     -12.090  15.505  69.940  0.00  0.00    +0.139 A 
ATOM      6  C   UNL     1     -12.242  14.132  69.789  0.00  0.00    +0.045 A 
ENDROOT
BRANCH   1   8
ATOM      7  O   UNL     1     -12.213  11.416  68.016  0.00  0.00    -0.268 OA
ATOM      8  C   UNL     1     -11.501  11.949  68.828  0.00  0.00    +0.268 C 
ATOM      9  N   UNL     1     -10.833  11.053  69.717  0.00  0.00    -0.200 NA
BRANCH   9  10
ATOM     10  C   UNL     1     -11.515   9.917  70.298  0.00  0.00    +0.133 C 
BRANCH  10  11
ATOM     11  C   UNL     1     -10.296   9.033  71.013  0.00  0.00    +0.094 C 
ATOM     12  N   UNL     1     -10.596   7.778  70.068  0.00  0.00    -0.218 NA
ATOM     13  C   UNL     1     -10.271   6.633  70.879  0.00  0.00    +0.089 C 
ATOM     14  C   UNL     1      -9.399   7.015  72.068  0.00  0.00    +0.019 C 
ATOM     15  C   UNL     1     -10.334   7.705  73.055  0.00  0.00    +0.003 C 
ATOM     16  C   UNL     1     -11.336   8.460  72.186  0.00  0.00    +0.019 C 
ENDBRANCH  10  11
ENDBRANCH   9  10
ENDBRANCH   1   8
BRANCH   2  17
ATOM     17  O   UNL     1     -10.649  13.447  66.620  0.00  0.00    -0.466 OA
BRANCH  17  18
ATOM     18  C   UNL     1     -10.885  13.970  65.327  0.00  0.00    +0.308 C 
BRANCH  18  19
ATOM     19  C   UNL     1     -12.267  13.571  64.876  0.00  0.00    +0.438 C 
ATOM     20  F   UNL     1     -13.267  14.185  65.595  0.00  0.00    -0.166 F 
ATOM     21  F   UNL     1     -12.422  13.850  63.530  0.00  0.00    -0.166 F 
ATOM     22  F   UNL     1     -12.432  12.202  65.019  0.00  0.00    -0.166 F 
ENDBRANCH  18  19
ENDBRANCH  17  18
ENDBRANCH   2  17
BRANCH   5  23
ATOM     23  O   UNL     1     -12.458  16.040  71.178  0.00  0.00    -0.467 OA
BRANCH  23  24
ATOM     24  C   UNL     1     -11.849  15.427  72.313  0.00  0.00    +0.308 C 
BRANCH  24  25
ATOM     25  C   UNL     1     -12.956  15.113  73.287  0.00  0.00    +0.438 C 
ATOM     26  F   UNL     1     -12.486  15.251  74.577  0.00  0.00    -0.166 F 
ATOM     27  F   UNL     1     -13.965  16.018  73.092  0.00  0.00    -0.166 F 
ATOM     28  F   UNL     1     -13.361  13.811  73.126  0.00  0.00    -0.166 F 
ENDBRANCH  24  25
ENDBRANCH  23  24
ENDBRANCH   5  23
TORSDOF 9
ENDMDL
MODEL 5
REMARK VINA RESULT:      -6.9      2.640      6.536
REMARK  Name = 
REMARK  9 active torsions:
REMARK  status: ('A' for Active; 'I' for Inactive)
REMARK    1  A    between atoms: C_2  and  C_11
REMARK    2  A    between atoms: N_3  and  C_4
REMARK    3  A    between atoms: C_4  and  C_5
REMARK    4  A    between atoms: C_13  and  O_14
REMARK    5  A    between atoms: O_14  and  C_15
REMARK    6  A    between atoms: C_15  and  C_16
REMARK    7  A    between atoms: C_22  and  O_23
REMARK    8  A    between atoms: O_23  and  C_24
REMARK    9  A    between atoms: C_24  and  C_25
REMARK                            x       y       z     vdW  Elec       q    Type
REMARK                         _______ _______ _______ _____ _____    ______ ____
ROOT
ATOM      1  C   UNL     1     -10.785  15.857  68.070  0.00  0.00    +0.092 A 
ATOM      2  C   UNL     1     -11.685  15.407  69.029  0.00  0.00    +0.144 A 
ATOM      3  C   UNL     1     -12.061  14.071  68.960  0.00  0.00    +0.040 A 
ATOM      4  C   UNL     1     -11.695  13.285  67.874  0.00  0.00    +0.040 A 
ATOM      5  C   UNL     1     -11.328  13.918  66.708  0.00  0.00    +0.139 A 
ATOM      6  C   UNL     1     -10.925  15.242  66.830  0.00  0.00    +0.045 A 
ENDROOT
BRANCH   1   8
ATOM      7  O   UNL     1     -10.942  18.161  67.967  0.00  0.00    -0.268 OA
ATOM      8  C   UNL     1     -10.266  17.200  68.233  0.00  0.00    +0.268 C 
ATOM      9  N   UNL     1      -8.921  17.501  68.609  0.00  0.00    -0.200 NA
BRANCH   9  10
ATOM     10  C   UNL     1      -8.145  18.498  67.904  0.00  0.00    +0.133 C 
BRANCH  10  11
ATOM     11  C   UNL     1      -7.430  19.390  69.118  0.00  0.00    +0.094 C 
ATOM     12  N   UNL     1      -6.714  20.342  68.052  0.00  0.00    -0.218 NA
ATOM     13  C   UNL     1      -5.476  20.719  68.684  0.00  0.00    +0.089 C 
ATOM     14  C   UNL     1      -5.513  20.471  70.187  0.00  0.00    +0.019 C 
ATOM     15  C   UNL     1      -5.376  18.962  70.354  0.00  0.00    +0.003 C 
ATOM     16  C   UNL     1      -6.113  18.364  69.160  0.00  0.00    +0.019 C 
ENDBRANCH  10  11
ENDBRANCH   9  10
ENDBRANCH   1   8
BRANCH   2  17
ATOM     17  O   UNL     1     -12.033  16.163  70.142  0.00  0.00    -0.466 OA
BRANCH  17  18
ATOM     18  C   UNL     1     -11.863  15.715  71.473  0.00  0.00    +0.308 C 
BRANCH  18  19
ATOM     19  C   UNL     1     -13.215  15.461  72.088  0.00  0.00    +0.438 C 
ATOM     20  F   UNL     1     -13.501  16.312  73.132  0.00  0.00    -0.166 F 
ATOM     21  F   UNL     1     -14.200  15.562  71.121  0.00  0.00    -0.166 F 
ATOM     22  F   UNL     1     -13.274  14.166  72.579  0.00  0.00    -0.166 F 
ENDBRANCH  18  19
ENDBRANCH  17  18
ENDBRANCH   2  17
BRANCH   5  23
ATOM     23  O   UNL     1     -10.872  13.229  65.580  0.00  0.00    -0.467 OA
BRANCH  23  24
ATOM     24  C   UNL     1     -11.733  12.195  65.107  0.00  0.00    +0.308 C 
BRANCH  24  25
ATOM     25  C   UNL     1     -11.901  12.409  63.625  0.00  0.00    +0.438 C 
ATOM     26  F   UNL     1     -12.813  11.500  63.129  0.00  0.00    -0.166 F 
ATOM     27  F   UNL     1     -12.396  13.671  63.429  0.00  0.00    -0.166 F 
ATOM     28  F   UNL     1     -10.706  12.195  62.985  0.00  0.00    -0.166 F 
ENDBRANCH  24  25
ENDBRANCH  23  24
ENDBRANCH   5  23
TORSDOF 9
ENDMDL
MODEL 6
REMARK VINA RESULT:      -6.8      1.665      2.332
REMARK  Name = 
REMARK  9 active torsions:
REMARK  status: ('A' for Active; 'I' for Inactive)
REMARK    1  A    between atoms: C_2  and  C_11
REMARK    2  A    between atoms: N_3  and  C_4
REMARK    3  A    between atoms: C_4  and  C_5
REMARK    4  A    between atoms: C_13  and  O_14
REMARK    5  A    between atoms: O_14  and  C_15
REMARK    6  A    between atoms: C_15  and  C_16
REMARK    7  A    between atoms: C_22  and  O_23
REMARK    8  A    between atoms: O_23  and  C_24
REMARK    9  A    between atoms: C_24  and  C_25
REMARK                            x       y       z     vdW  Elec       q    Type
REMARK                         _______ _______ _______ _____ _____    ______ ____
ROOT
ATOM      1  C   UNL     1      -9.844  14.751  67.858  0.00  0.00    +0.092 A 
ATOM      2  C   UNL     1     -10.431  13.542  67.500  0.00  0.00    +0.144 A 
ATOM      3  C   UNL     1     -11.633  13.220  68.119  0.00  0.00    +0.040 A 
ATOM      4  C   UNL     1     -12.116  13.985  69.174  0.00  0.00    +0.040 A 
ATOM      5  C   UNL     1     -11.228  14.786  69.855  0.00  0.00    +0.139 A 
ATOM      6  C   UNL     1     -10.056  15.112  69.184  0.00  0.00    +0.045 A 
ENDROOT
BRANCH   1   8
ATOM      7  O   UNL     1      -7.641  14.564  67.184  0.00  0.00    -0.268 OA
ATOM      8  C   UNL     1      -8.681  15.166  67.101  0.00  0.00    +0.268 C 
ATOM      9  N   UNL     1      -8.626  16.346  66.296  0.00  0.00    -0.200 NA
BRANCH   9  10
ATOM     10  C   UNL     1      -7.505  17.258  66.370  0.00  0.00    +0.133 C 
BRANCH  10  11
ATOM     11  C   UNL     1      -8.210  18.745  66.645  0.00  0.00    +0.094 C 
ATOM     12  N   UNL     1      -8.409  18.409  68.196  0.00  0.00    -0.218 NA
ATOM     13  C   UNL     1      -9.614  19.107  68.562  0.00  0.00    +0.089 C 
ATOM     14  C   UNL     1      -9.967  20.188  67.549  0.00  0.00    +0.019 C 
ATOM     15  C   UNL     1     -10.523  19.446  66.338  0.00  0.00    +0.003 C 
ATOM     16  C   UNL     1      -9.724  18.147  66.272  0.00  0.00    +0.019 C 
ENDBRANCH  10  11
ENDBRANCH   9  10
ENDBRANCH   1   8
BRANCH   2  17
ATOM     17  O   UNL     1      -9.987  12.783  66.424  0.00  0.00    -0.466 OA
BRANCH  17  18
ATOM     18  C   UNL     1     -10.855  12.178  65.485  0.00  0.00    +0.308 C 
BRANCH  18  19
ATOM     19  C   UNL     1     -11.309  13.214  64.489  0.00  0.00    +0.438 C 
ATOM     20  F   UNL     1     -12.530  13.767  64.805  0.00  0.00    -0.166 F 
ATOM     21  F   UNL     1     -10.358  14.213  64.381  0.00  0.00    -0.166 F 
ATOM     22  F   UNL     1     -11.425  12.641  63.232  0.00  0.00    -0.166 F 
ENDBRANCH  18  19
ENDBRANCH  17  18
ENDBRANCH   2  17
BRANCH   5  23
ATOM     23  O   UNL     1     -11.618  15.650  70.883  0.00  0.00    -0.467 OA
BRANCH  23  24
ATOM     24  C   UNL     1     -13.001  15.602  71.229  0.00  0.00    +0.308 C 
BRANCH  24  25
ATOM     25  C   UNL     1     -13.074  15.513  72.731  0.00  0.00    +0.438 C 
ATOM     26  F   UNL     1     -13.313  14.206  73.104  0.00  0.00    -0.166 F 
ATOM     27  F   UNL     1     -11.861  15.895  73.241  0.00  0.00    -0.166 F 
ATOM     28  F   UNL     1     -14.117  16.277  73.193  0.00  0.00    -0.166 F 
ENDBRANCH  24  25
ENDBRANCH  23  24
ENDBRANCH   5  23
TORSDOF 9
ENDMDL
MODEL 7
REMARK VINA RESULT:      -6.8      1.632      6.115
REMARK  Name = 
REMARK  9 active torsions:
REMARK  status: ('A' for Active; 'I' for Inactive)
REMARK    1  A    between atoms: C_2  and  C_11
REMARK    2  A    between atoms: N_3  and  C_4
REMARK    3  A    between atoms: C_4  and  C_5
REMARK    4  A    between atoms: C_13  and  O_14
REMARK    5  A    between atoms: O_14  and  C_15
REMARK    6  A    between atoms: C_15  and  C_16
REMARK    7  A    between atoms: C_22  and  O_23
REMARK    8  A    between atoms: O_23  and  C_24
REMARK    9  A    between atoms: C_24  and  C_25
REMARK                            x       y       z     vdW  Elec       q    Type
REMARK                         _______ _______ _______ _____ _____    ______ ____
ROOT
ATOM      1  C   UNL     1     -11.401  14.268  68.538  0.00  0.00    +0.092 A 
ATOM      2  C   UNL     1     -11.780  13.562  69.674  0.00  0.00    +0.144 A 
ATOM      3  C   UNL     1     -11.738  12.175  69.594  0.00  0.00    +0.040 A 
ATOM      4  C   UNL     1     -11.508  11.540  68.380  0.00  0.00    +0.040 A 
ATOM      5  C   UNL     1     -11.729  12.251  67.222  0.00  0.00    +0.139 A 
ATOM      6  C   UNL     1     -11.727  13.635  67.343  0.00  0.00    +0.045 A 
ENDROOT
BRANCH   1   8
ATOM      7  O   UNL     1     -12.210  16.367  69.071  0.00  0.00    -0.268 OA
ATOM      8  C   UNL     1     -11.287  15.707  68.666  0.00  0.00    +0.268 C 
ATOM      9  N   UNL     1     -10.153  16.463  68.241  0.00  0.00    -0.200 NA
BRANCH   9  10
ATOM     10  C   UNL     1     -10.301  17.675  67.463  0.00  0.00    +0.133 C 
BRANCH  10  11
ATOM     11  C   UNL     1      -8.768  18.332  67.440  0.00  0.00    +0.094 C 
ATOM     12  N   UNL     1      -8.416  17.567  66.082  0.00  0.00    -0.218 NA
ATOM     13  C   UNL     1      -7.004  17.302  66.176  0.00  0.00    +0.089 C 
ATOM     14  C   UNL     1      -6.336  18.180  67.226  0.00  0.00    +0.019 C 
ATOM     15  C   UNL     1      -6.743  17.588  68.571  0.00  0.00    +0.003 C 
ATOM     16  C   UNL     1      -8.166  17.077  68.361  0.00  0.00    +0.019 C 
ENDBRANCH  10  11
ENDBRANCH   9  10
ENDBRANCH   1   8
BRANCH   2  17
ATOM     17  O   UNL     1     -11.976  14.174  70.906  0.00  0.00    -0.466 OA
BRANCH  17  18
ATOM     18  C   UNL     1     -13.237  14.261  71.542  0.00  0.00    +0.308 C 
BRANCH  18  19
ATOM     19  C   UNL     1     -13.187  15.335  72.597  0.00  0.00    +0.438 C 
ATOM     20  F   UNL     1     -12.856  14.851  73.843  0.00  0.00    -0.166 F 
ATOM     21  F   UNL     1     -12.288  16.320  72.226  0.00  0.00    -0.166 F 
ATOM     22  F   UNL     1     -14.425  15.949  72.705  0.00  0.00    -0.166 F 
ENDBRANCH  18  19
ENDBRANCH  17  18
ENDBRANCH   2  17
BRANCH   5  23
ATOM     23  O   UNL     1     -11.461  11.736  65.950  0.00  0.00    -0.467 OA
BRANCH  23  24
ATOM     24  C   UNL     1     -11.242  12.709  64.932  0.00  0.00    +0.308 C 
BRANCH  24  25
ATOM     25  C   UNL     1     -12.148  12.352  63.782  0.00  0.00    +0.438 C 
ATOM     26  F   UNL     1     -13.387  11.990  64.268  0.00  0.00    -0.166 F 
ATOM     27  F   UNL     1     -12.298  13.464  62.996  0.00  0.00    -0.166 F 
ATOM     28  F   UNL     1     -11.634  11.277  63.101  0.00  0.00    -0.166 F 
ENDBRANCH  24  25
ENDBRANCH  23  24
ENDBRANCH   5  23
TORSDOF 9
ENDMDL
MODEL 8
REMARK VINA RESULT:      -6.7      3.449      4.964
REMARK  Name = 
REMARK  9 active torsions:
REMARK  status: ('A' for Active; 'I' for Inactive)
REMARK    1  A    between atoms: C_2  and  C_11
REMARK    2  A    between atoms: N_3  and  C_4
REMARK    3  A    between atoms: C_4  and  C_5
REMARK    4  A    between atoms: C_13  and  O_14
REMARK    5  A    between atoms: O_14  and  C_15
REMARK    6  A    between atoms: C_15  and  C_16
REMARK    7  A    between atoms: C_22  and  O_23
REMARK    8  A    between atoms: O_23  and  C_24
REMARK    9  A    between atoms: C_24  and  C_25
REMARK                            x       y       z     vdW  Elec       q    Type
REMARK                         _______ _______ _______ _____ _____    ______ ____
ROOT
ATOM      1  C   UNL     1     -10.917  11.948  67.865  0.00  0.00    +0.092 A 
ATOM      2  C   UNL     1     -10.498  11.315  66.700  0.00  0.00    +0.144 A 
ATOM      3  C   UNL     1     -10.364   9.932  66.749  0.00  0.00    +0.040 A 
ATOM      4  C   UNL     1     -10.468   9.252  67.957  0.00  0.00    +0.040 A 
ATOM      5  C   UNL     1     -10.292   9.963  69.122  0.00  0.00    +0.139 A 
ATOM      6  C   UNL     1     -10.469  11.338  69.033  0.00  0.00    +0.045 A 
ENDROOT
BRANCH   1   8
ATOM      7  O   UNL     1     -10.615  14.072  67.005  0.00  0.00    -0.268 OA
ATOM      8  C   UNL     1     -11.212  13.363  67.775  0.00  0.00    +0.268 C 
ATOM      9  N   UNL     1     -12.130  14.048  68.629  0.00  0.00    -0.200 NA
BRANCH   9  10
ATOM     10  C   UNL     1     -11.785  15.309  69.251  0.00  0.00    +0.133 C 
BRANCH  10  11
ATOM     11  C   UNL     1     -12.853  15.438  70.526  0.00  0.00    +0.094 C 
ATOM     12  N   UNL     1     -11.754  16.175  71.424  0.00  0.00    -0.218 NA
ATOM     13  C   UNL     1     -12.057  15.764  72.770  0.00  0.00    +0.089 C 
ATOM     14  C   UNL     1     -13.470  15.203  72.881  0.00  0.00    +0.019 C 
ATOM     15  C   UNL     1     -13.408  13.815  72.255  0.00  0.00    +0.003 C 
ATOM     16  C   UNL     1     -12.402  13.942  71.114  0.00  0.00    +0.019 C 
ENDBRANCH  10  11
ENDBRANCH   9  10
ENDBRANCH   1   8
BRANCH   2  17
ATOM     17  O   UNL     1     -10.426  11.969  65.477  0.00  0.00    -0.466 OA
BRANCH  17  18
ATOM     18  C   UNL     1     -10.990  11.458  64.284  0.00  0.00    +0.308 C 
BRANCH  18  19
ATOM     19  C   UNL     1     -12.220  12.256  63.936  0.00  0.00    +0.438 C 
ATOM     20  F   UNL     1     -13.025  12.507  65.025  0.00  0.00    -0.166 F 
ATOM     21  F   UNL     1     -11.855  13.450  63.341  0.00  0.00    -0.166 F 
ATOM     22  F   UNL     1     -12.982  11.566  63.006  0.00  0.00    -0.166 F 
ENDBRANCH  18  19
ENDBRANCH  17  18
ENDBRANCH   2  17
BRANCH   5  23
ATOM     23  O   UNL     1     -10.446   9.396  70.390  0.00  0.00    -0.467 OA
BRANCH  23  24
ATOM     24  C   UNL     1     -11.509   8.453  70.512  0.00  0.00    +0.308 C 
BRANCH  24  25
ATOM     25  C   UNL     1     -12.388   8.928  71.641  0.00  0.00    +0.438 C 
ATOM     26  F   UNL     1     -11.967   8.354  72.823  0.00  0.00    -0.166 F 
ATOM     27  F   UNL     1     -12.252  10.287  71.745  0.00  0.00    -0.166 F 
ATOM     28  F   UNL     1     -13.683   8.530  71.421  0.00  0.00    -0.166 F 
ENDBRANCH  24  25
ENDBRANCH  23  24
ENDBRANCH   5  23
TORSDOF 9
ENDMDL
MODEL 9
REMARK VINA RESULT:      -6.7      3.361      8.614
REMARK  Name = 
REMARK  9 active torsions:
REMARK  status: ('A' for Active; 'I' for Inactive)
REMARK    1  A    between atoms: C_2  and  C_11
REMARK    2  A    between atoms: N_3  and  C_4
REMARK    3  A    between atoms: C_4  and  C_5
REMARK    4  A    between atoms: C_13  and  O_14
REMARK    5  A    between atoms: O_14  and  C_15
REMARK    6  A    between atoms: C_15  and  C_16
REMARK    7  A    between atoms: C_22  and  O_23
REMARK    8  A    between atoms: O_23  and  C_24
REMARK    9  A    between atoms: C_24  and  C_25
REMARK                            x       y       z     vdW  Elec       q    Type
REMARK                         _______ _______ _______ _____ _____    ______ ____
ROOT
ATOM      1  C   UNL     1     -11.637  12.166  68.346  0.00  0.00    +0.092 A 
ATOM      2  C   UNL     1     -11.772  13.330  69.095  0.00  0.00    +0.144 A 
ATOM      3  C   UNL     1     -11.806  14.529  68.392  0.00  0.00    +0.040 A 
ATOM      4  C   UNL     1     -11.531  14.561  67.030  0.00  0.00    +0.040 A 
ATOM      5  C   UNL     1     -10.840  13.505  66.481  0.00  0.00    +0.139 A 
ATOM      6  C   UNL     1     -10.863  12.317  67.201  0.00  0.00    +0.045 A 
ENDROOT
BRANCH   1   8
ATOM      7  O   UNL     1     -12.848  10.466  69.340  0.00  0.00    -0.268 OA
ATOM      8  C   UNL     1     -11.764  10.909  69.056  0.00  0.00    +0.268 C 
ATOM      9  N   UNL     1     -10.660  10.156  69.560  0.00  0.00    -0.200 NA
BRANCH   9  10
ATOM     10  C   UNL     1     -10.662   9.621  70.904  0.00  0.00    +0.133 C 
BRANCH  10  11
ATOM     11  C   UNL     1     -10.514   7.974  70.686  0.00  0.00    +0.094 C 
ATOM     12  N   UNL     1     -12.022   7.735  71.163  0.00  0.00    -0.218 NA
ATOM     13  C   UNL     1     -11.994   6.446  71.804  0.00  0.00    +0.089 C 
ATOM     14  C   UNL     1     -10.754   5.651  71.414  0.00  0.00    +0.019 C 
ATOM     15  C   UNL     1      -9.603   6.286  72.187  0.00  0.00    +0.003 C 
ATOM     16  C   UNL     1      -9.939   7.773  72.240  0.00  0.00    +0.019 C 
ENDBRANCH  10  11
ENDBRANCH   9  10
ENDBRANCH   1   8
BRANCH   2  17
ATOM     17  O   UNL     1     -12.086  13.317  70.449  0.00  0.00    -0.466 OA
BRANCH  17  18
ATOM     18  C   UNL     1     -12.715  14.396  71.114  0.00  0.00    +0.308 C 
BRANCH  18  19
ATOM     19  C   UNL     1     -13.578  13.858  72.225  0.00  0.00    +0.438 C 
ATOM     20  F   UNL     1     -13.460  12.495  72.387  0.00  0.00    -0.166 F 
ATOM     21  F   UNL     1     -13.272  14.497  73.413  0.00  0.00    -0.166 F 
ATOM     22  F   UNL     1     -14.911  14.131  71.961  0.00  0.00    -0.166 F 
ENDBRANCH  18  19
ENDBRANCH  17  18
ENDBRANCH   2  17
BRANCH   5  23
ATOM     23  O   UNL     1     -10.574  13.400  65.113  0.00  0.00    -0.467 OA
BRANCH  23  24
ATOM     24  C   UNL     1     -10.987  12.179  64.503  0.00  0.00    +0.308 C 
BRANCH  24  25
ATOM     25  C   UNL     1     -12.329  12.437  63.868  0.00  0.00    +0.438 C 
ATOM     26  F   UNL     1     -13.306  12.440  64.843  0.00  0.00    -0.166 F 
ATOM     27  F   UNL     1     -12.294  13.677  63.286  0.00  0.00    -0.166 F 
ATOM     28  F   UNL     1     -12.625  11.433  62.981  0.00  0.00    -0.166 F 
ENDBRANCH  24  25
ENDBRANCH  23  24
ENDBRANCH   5  23
TORSDOF 9
ENDMDL
