MODEL 1
REMARK VINA RESULT:      -8.0      0.000      0.000
REMARK  Name = 
REMARK  5 active torsions:
REMARK  status: ('A' for Active; 'I' for Inactive)
REMARK    1  A    between atoms: C_2  and  C_3
REMARK    2  A    between atoms: C_9  and  N_10
REMARK    3  A    between atoms: C_12  and  C_13
REMARK    4  A    between atoms: C_16  and  O_17
REMARK    5  A    between atoms: O_17  and  C_18
REMARK                            x       y       z     vdW  Elec       q    Type
REMARK                         _______ _______ _______ _____ _____    ______ ____
ROOT
ATOM      1  N   UNL     1     -10.840  13.176  67.792  0.00  0.00    -0.234 N 
ATOM      2  C   UNL     1     -10.846  12.827  66.521  0.00  0.00    +0.165 A 
ATOM      3  N   UNL     1     -10.815  13.574  65.418  0.00  0.00    -0.205 NA
ATOM      4  C   UNL     1     -10.433  13.028  64.243  0.00  0.00    +0.202 A 
ATOM      5  N   UNL     1     -10.442  11.676  64.161  0.00  0.00    -0.206 NA
ATOM      6  C   UNL     1     -10.240  10.920  65.268  0.00  0.00    +0.176 A 
ATOM      7  N   UNL     1      -9.845   9.561  65.206  0.00  0.00    -0.107 NA
ATOM      8  C   UNL     1     -10.198  11.596  66.482  0.00  0.00    +0.090 A 
ATOM      9  C   UNL     1     -10.479  11.069  67.738  0.00  0.00    +0.107 A 
ATOM     10  N   UNL     1     -10.821  12.098  68.551  0.00  0.00    -0.168 NA
ENDROOT
BRANCH   1  14
ATOM     11  C   UNL     1     -13.169  14.129  71.770  0.00  0.00    +0.249 C 
ATOM     12  N   UNL     1     -12.416  14.538  70.648  0.00  0.00    -0.274 N 
ATOM     13  C   UNL     1     -12.390  13.630  69.530  0.00  0.00    +0.118 C 
ATOM     14  C   UNL     1     -11.582  14.478  68.339  0.00  0.00    +0.127 C 
ATOM     15  C   UNL     1     -10.326  14.875  69.371  0.00  0.00    +0.028 C 
ATOM     16  C   UNL     1     -10.840  16.240  69.819  0.00  0.00    +0.024 C 
ATOM     17  C   UNL     1     -12.098  15.942  70.581  0.00  0.00    +0.094 C 
ATOM     18  O   UNL     1     -12.828  13.036  72.314  0.00  0.00    -0.270 OA
BRANCH  11  20
ATOM     19  C   UNL     1     -15.139  15.182  71.463  0.00  0.00    +0.005 C 
ATOM     20  C   UNL     1     -14.601  14.440  71.865  0.00  0.00    +0.058 C 
ENDBRANCH  11  20
ENDBRANCH   1  14
BRANCH   9  21
ATOM     21  C   UNL     1      -9.829   9.828  68.180  0.00  0.00    +0.020 A 
ATOM     22  C   UNL     1      -8.810   9.890  69.124  0.00  0.00    +0.005 A 
ATOM     23  C   UNL     1      -8.775   9.006  70.198  0.00  0.00    +0.038 A 
ATOM     24  C   UNL     1      -9.738   8.010  70.338  0.00  0.00    +0.145 A 
ATOM     25  C   UNL     1     -10.378   7.691  69.145  0.00  0.00    +0.038 A 
ATOM     26  C   UNL     1     -10.457   8.591  68.087  0.00  0.00    +0.005 A 
BRANCH  24  27
ATOM     27  O   UNL     1     -10.362   7.758  71.565  0.00  0.00    -0.453 OA
BRANCH  27  28
ATOM     28  C   UNL     1     -11.737   7.984  71.688  0.00  0.00    +0.145 A 
ATOM     29  C   UNL     1     -12.115   9.321  71.692  0.00  0.00    +0.037 A 
ATOM     30  C   UNL     1     -13.427   9.586  71.984  0.00  0.00    +0.003 A 
ATOM     31  C   UNL     1     -14.336   8.551  72.100  0.00  0.00    +0.000 A 
ATOM     32  C   UNL     1     -13.982   7.338  71.556  0.00  0.00    +0.003 A 
ATOM     33  C   UNL     1     -12.653   6.982  71.408  0.00  0.00    +0.037 A 
ENDBRANCH  27  28
ENDBRANCH  24  27
ENDBRANCH   9  21
TORSDOF 5
ENDMDL
MODEL 2
REMARK VINA RESULT:      -7.7      4.020      7.457
REMARK  Name = 
REMARK  5 active torsions:
REMARK  status: ('A' for Active; 'I' for Inactive)
REMARK    1  A    between atoms: C_2  and  C_3
REMARK    2  A    between atoms: C_9  and  N_10
REMARK    3  A    between atoms: C_12  and  C_13
REMARK    4  A    between atoms: C_16  and  O_17
REMARK    5  A    between atoms: O_17  and  C_18
REMARK                            x       y       z     vdW  Elec       q    Type
REMARK                         _______ _______ _______ _____ _____    ______ ____
ROOT
ATOM      1  N   UNL     1     -11.103  15.635  67.765  0.00  0.00    -0.234 N 
ATOM      2  C   UNL     1     -11.431  14.941  68.837  0.00  0.00    +0.165 A 
ATOM      3  N   UNL     1     -11.986  15.332  69.984  0.00  0.00    -0.205 NA
ATOM      4  C   UNL     1     -12.596  14.429  70.781  0.00  0.00    +0.202 A 
ATOM      5  N   UNL     1     -12.310  13.123  70.563  0.00  0.00    -0.206 NA
ATOM      6  C   UNL     1     -11.967  12.694  69.323  0.00  0.00    +0.176 A 
ATOM      7  N   UNL     1     -12.045  11.334  68.934  0.00  0.00    -0.107 NA
ATOM      8  C   UNL     1     -11.764  13.677  68.361  0.00  0.00    +0.090 A 
ATOM      9  C   UNL     1     -10.979  13.571  67.217  0.00  0.00    +0.107 A 
ATOM     10  N   UNL     1     -10.631  14.825  66.837  0.00  0.00    -0.168 NA
ENDROOT
BRANCH   1  14
ATOM     11  C   UNL     1      -6.833  17.493  67.078  0.00  0.00    +0.249 C 
ATOM     12  N   UNL     1      -8.240  17.599  67.098  0.00  0.00    -0.274 N 
ATOM     13  C   UNL     1      -8.945  16.615  67.879  0.00  0.00    +0.118 C 
ATOM     14  C   UNL     1     -10.535  17.124  67.833  0.00  0.00    +0.127 C 
ATOM     15  C   UNL     1     -10.511  17.291  66.168  0.00  0.00    +0.028 C 
ATOM     16  C   UNL     1     -10.165  18.775  66.106  0.00  0.00    +0.024 C 
ATOM     17  C   UNL     1      -8.782  18.869  66.684  0.00  0.00    +0.094 C 
ATOM     18  O   UNL     1      -6.352  16.404  66.643  0.00  0.00    -0.270 OA
BRANCH  11  20
ATOM     19  C   UNL     1      -5.528  17.785  68.893  0.00  0.00    +0.005 C 
ATOM     20  C   UNL     1      -6.018  18.157  68.104  0.00  0.00    +0.058 C 
ENDBRANCH  11  20
ENDBRANCH   1  14
BRANCH   9  21
ATOM     21  C   UNL     1     -11.154  12.433  66.304  0.00  0.00    +0.020 A 
ATOM     22  C   UNL     1     -11.978  12.571  65.193  0.00  0.00    +0.005 A 
ATOM     23  C   UNL     1     -11.576  12.109  63.943  0.00  0.00    +0.038 A 
ATOM     24  C   UNL     1     -10.354  11.464  63.777  0.00  0.00    +0.145 A 
ATOM     25  C   UNL     1      -9.851  10.922  64.955  0.00  0.00    +0.038 A 
ATOM     26  C   UNL     1     -10.215  11.414  66.205  0.00  0.00    +0.005 A 
BRANCH  24  27
ATOM     27  O   UNL     1      -9.491  11.783  62.722  0.00  0.00    -0.453 OA
BRANCH  27  28
ATOM     28  C   UNL     1      -8.709  10.772  62.152  0.00  0.00    +0.145 A 
ATOM     29  C   UNL     1      -9.390   9.595  61.865  0.00  0.00    +0.037 A 
ATOM     30  C   UNL     1      -8.627   8.527  61.470  0.00  0.00    +0.003 A 
ATOM     31  C   UNL     1      -7.277   8.692  61.221  0.00  0.00    +0.000 A 
ATOM     32  C   UNL     1      -6.827   9.975  61.015  0.00  0.00    +0.003 A 
ATOM     33  C   UNL     1      -7.495  11.062  61.551  0.00  0.00    +0.037 A 
ENDBRANCH  27  28
ENDBRANCH  24  27
ENDBRANCH   9  21
TORSDOF 5
ENDMDL
MODEL 3
REMARK VINA RESULT:      -7.7      2.023      6.247
REMARK  Name = 
REMARK  5 active torsions:
REMARK  status: ('A' for Active; 'I' for Inactive)
REMARK    1  A    between atoms: C_2  and  C_3
REMARK    2  A    between atoms: C_9  and  N_10
REMARK    3  A    between atoms: C_12  and  C_13
REMARK    4  A    between atoms: C_16  and  O_17
REMARK    5  A    between atoms: O_17  and  C_18
REMARK                            x       y       z     vdW  Elec       q    Type
REMARK                         _______ _______ _______ _____ _____    ______ ____
ROOT
ATOM      1  N   UNL     1     -11.139   9.759  68.891  0.00  0.00    -0.234 N 
ATOM      2  C   UNL     1     -10.255   9.393  67.985  0.00  0.00    +0.165 A 
ATOM      3  N   UNL     1     -10.103   8.235  67.342  0.00  0.00    -0.205 NA
ATOM      4  C   UNL     1      -9.403   8.190  66.188  0.00  0.00    +0.202 A 
ATOM      5  N   UNL     1      -8.590   9.241  65.919  0.00  0.00    -0.206 NA
ATOM      6  C   UNL     1      -8.887  10.476  66.395  0.00  0.00    +0.176 A 
ATOM      7  N   UNL     1      -8.336  11.660  65.846  0.00  0.00    -0.107 NA
ATOM      8  C   UNL     1      -9.947  10.558  67.290  0.00  0.00    +0.090 A 
ATOM      9  C   UNL     1     -10.149  11.543  68.252  0.00  0.00    +0.107 A 
ATOM     10  N   UNL     1     -10.952  11.024  69.213  0.00  0.00    -0.168 NA
ENDROOT
BRANCH   1  14
ATOM     11  C   UNL     1      -9.328   8.028  72.876  0.00  0.00    +0.249 C 
ATOM     12  N   UNL     1     -10.430   8.397  72.076  0.00  0.00    -0.274 N 
ATOM     13  C   UNL     1     -10.188   8.494  70.659  0.00  0.00    +0.118 C 
ATOM     14  C   UNL     1     -11.701   8.767  70.007  0.00  0.00    +0.127 C 
ATOM     15  C   UNL     1     -12.021  10.008  71.082  0.00  0.00    +0.028 C 
ATOM     16  C   UNL     1     -12.761   9.193  72.138  0.00  0.00    +0.024 C 
ATOM     17  C   UNL     1     -11.728   8.251  72.685  0.00  0.00    +0.094 C 
ATOM     18  O   UNL     1      -8.310   8.783  72.824  0.00  0.00    -0.270 OA
BRANCH  11  20
ATOM     19  C   UNL     1      -8.522   5.942  72.591  0.00  0.00    +0.005 C 
ATOM     20  C   UNL     1      -9.029   6.613  73.132  0.00  0.00    +0.058 C 
ENDBRANCH  11  20
ENDBRANCH   1  14
BRANCH   9  21
ATOM     21  C   UNL     1     -10.095  12.963  67.877  0.00  0.00    +0.020 A 
ATOM     22  C   UNL     1     -11.086  13.490  67.057  0.00  0.00    +0.005 A 
ATOM     23  C   UNL     1     -11.680  14.714  67.349  0.00  0.00    +0.038 A 
ATOM     24  C   UNL     1     -11.275  15.461  68.451  0.00  0.00    +0.145 A 
ATOM     25  C   UNL     1      -9.995  15.144  68.892  0.00  0.00    +0.038 A 
ATOM     26  C   UNL     1      -9.416  13.903  68.643  0.00  0.00    +0.005 A 
BRANCH  24  27
ATOM     27  O   UNL     1     -12.200  16.044  69.326  0.00  0.00    -0.453 OA
BRANCH  27  28
ATOM     28  C   UNL     1     -12.397  15.472  70.587  0.00  0.00    +0.145 A 
ATOM     29  C   UNL     1     -12.748  14.128  70.575  0.00  0.00    +0.037 A 
ATOM     30  C   UNL     1     -13.118  13.580  71.776  0.00  0.00    +0.003 A 
ATOM     31  C   UNL     1     -12.979  14.307  72.943  0.00  0.00    +0.000 A 
ATOM     32  C   UNL     1     -12.138  15.396  72.911  0.00  0.00    +0.003 A 
ATOM     33  C   UNL     1     -11.884  16.068  71.729  0.00  0.00    +0.037 A 
ENDBRANCH  27  28
ENDBRANCH  24  27
ENDBRANCH   9  21
TORSDOF 5
ENDMDL
MODEL 4
REMARK VINA RESULT:      -7.4      2.499      3.819
REMARK  Name = 
REMARK  5 active torsions:
REMARK  status: ('A' for Active; 'I' for Inactive)
REMARK    1  A    between atoms: C_2  and  C_3
REMARK    2  A    between atoms: C_9  and  N_10
REMARK    3  A    between atoms: C_12  and  C_13
REMARK    4  A    between atoms: C_16  and  O_17
REMARK    5  A    between atoms: O_17  and  C_18
REMARK                            x       y       z     vdW  Elec       q    Type
REMARK                         _______ _______ _______ _____ _____    ______ ____
ROOT
ATOM      1  N   UNL     1      -9.029  11.037  67.954  0.00  0.00    -0.234 N 
ATOM      2  C   UNL     1      -8.096  10.743  67.070  0.00  0.00    +0.165 A 
ATOM      3  N   UNL     1      -7.064  11.462  66.629  0.00  0.00    -0.205 NA
ATOM      4  C   UNL     1      -6.017  10.848  66.036  0.00  0.00    +0.202 A 
ATOM      5  N   UNL     1      -6.216   9.583  65.593  0.00  0.00    -0.206 NA
ATOM      6  C   UNL     1      -7.117   8.776  66.206  0.00  0.00    +0.176 A 
ATOM      7  N   UNL     1      -7.098   7.366  66.073  0.00  0.00    -0.107 NA
ATOM      8  C   UNL     1      -7.922   9.366  67.174  0.00  0.00    +0.090 A 
ATOM      9  C   UNL     1      -9.179   8.935  67.586  0.00  0.00    +0.107 A 
ATOM     10  N   UNL     1      -9.823   9.999  68.126  0.00  0.00    -0.168 NA
ENDROOT
BRANCH   1  14
ATOM     11  C   UNL     1     -12.401  13.383  65.655  0.00  0.00    +0.249 C 
ATOM     12  N   UNL     1     -11.624  13.148  66.810  0.00  0.00    -0.274 N 
ATOM     13  C   UNL     1     -10.376  12.455  66.611  0.00  0.00    +0.118 C 
ATOM     14  C   UNL     1      -9.645  12.500  68.112  0.00  0.00    +0.127 C 
ATOM     15  C   UNL     1     -11.021  11.938  68.880  0.00  0.00    +0.028 C 
ATOM     16  C   UNL     1     -11.617  13.288  69.269  0.00  0.00    +0.024 C 
ATOM     17  C   UNL     1     -11.952  13.947  67.963  0.00  0.00    +0.094 C 
ATOM     18  O   UNL     1     -12.757  12.363  64.992  0.00  0.00    -0.270 OA
BRANCH  11  20
ATOM     19  C   UNL     1     -11.370  15.120  64.654  0.00  0.00    +0.005 C 
ATOM     20  C   UNL     1     -12.198  14.596  64.851  0.00  0.00    +0.058 C 
ENDBRANCH  11  20
ENDBRANCH   1  14
BRANCH   9  21
ATOM     21  C   UNL     1      -9.386   7.536  67.983  0.00  0.00    +0.020 A 
ATOM     22  C   UNL     1      -8.670   7.018  69.057  0.00  0.00    +0.005 A 
ATOM     23  C   UNL     1      -9.298   6.247  70.030  0.00  0.00    +0.038 A 
ATOM     24  C   UNL     1     -10.653   5.942  69.937  0.00  0.00    +0.145 A 
ATOM     25  C   UNL     1     -11.153   6.040  68.643  0.00  0.00    +0.038 A 
ATOM     26  C   UNL     1     -10.555   6.848  67.682  0.00  0.00    +0.005 A 
BRANCH  24  27
ATOM     27  O   UNL     1     -11.511   6.060  71.037  0.00  0.00    -0.453 OA
BRANCH  27  28
ATOM     28  C   UNL     1     -12.168   7.275  71.261  0.00  0.00    +0.145 A 
ATOM     29  C   UNL     1     -13.520   7.163  71.563  0.00  0.00    +0.037 A 
ATOM     30  C   UNL     1     -14.233   8.333  71.617  0.00  0.00    +0.003 A 
ATOM     31  C   UNL     1     -13.582   9.549  71.535  0.00  0.00    +0.000 A 
ATOM     32  C   UNL     1     -12.227   9.556  71.777  0.00  0.00    +0.003 A 
ATOM     33  C   UNL     1     -11.458   8.425  71.566  0.00  0.00    +0.037 A 
ENDBRANCH  27  28
ENDBRANCH  24  27
ENDBRANCH   9  21
TORSDOF 5
ENDMDL
MODEL 5
REMARK VINA RESULT:      -7.3      3.838      8.472
REMARK  Name = 
REMARK  5 active torsions:
REMARK  status: ('A' for Active; 'I' for Inactive)
REMARK    1  A    between atoms: C_2  and  C_3
REMARK    2  A    between atoms: C_9  and  N_10
REMARK    3  A    between atoms: C_12  and  C_13
REMARK    4  A    between atoms: C_16  and  O_17
REMARK    5  A    between atoms: O_17  and  C_18
REMARK                            x       y       z     vdW  Elec       q    Type
REMARK                         _______ _______ _______ _____ _____    ______ ____
ROOT
ATOM      1  N   UNL     1     -11.714  12.498  68.317  0.00  0.00    -0.234 N 
ATOM      2  C   UNL     1     -11.500  12.672  67.028  0.00  0.00    +0.165 A 
ATOM      3  N   UNL     1     -12.087  12.112  65.970  0.00  0.00    -0.205 NA
ATOM      4  C   UNL     1     -12.005  12.704  64.759  0.00  0.00    +0.202 A 
ATOM      5  N   UNL     1     -11.042  13.643  64.597  0.00  0.00    -0.206 NA
ATOM      6  C   UNL     1     -10.613  14.376  65.655  0.00  0.00    +0.176 A 
ATOM      7  N   UNL     1      -9.930  15.608  65.507  0.00  0.00    -0.107 NA
ATOM      8  C   UNL     1     -11.086  13.995  66.906  0.00  0.00    +0.090 A 
ATOM      9  C   UNL     1     -10.474  14.231  68.133  0.00  0.00    +0.107 A 
ATOM     10  N   UNL     1     -10.938  13.308  69.011  0.00  0.00    -0.168 NA
ENDROOT
BRANCH   1  14
ATOM     11  C   UNL     1      -9.216   9.157  70.497  0.00  0.00    +0.249 C 
ATOM     12  N   UNL     1     -10.432   9.827  70.246  0.00  0.00    -0.274 N 
ATOM     13  C   UNL     1     -10.507  10.580  69.020  0.00  0.00    +0.118 C 
ATOM     14  C   UNL     1     -12.097  11.085  68.951  0.00  0.00    +0.127 C 
ATOM     15  C   UNL     1     -12.055  11.672  70.517  0.00  0.00    +0.028 C 
ATOM     16  C   UNL     1     -12.609  10.439  71.224  0.00  0.00    +0.024 C 
ATOM     17  C   UNL     1     -11.568   9.379  71.011  0.00  0.00    +0.094 C 
ATOM     18  O   UNL     1      -8.173   9.875  70.554  0.00  0.00    -0.270 OA
BRANCH  11  20
ATOM     19  C   UNL     1      -8.442   7.459  69.231  0.00  0.00    +0.005 C 
ATOM     20  C   UNL     1      -8.994   7.794  69.994  0.00  0.00    +0.058 C 
ENDBRANCH  11  20
ENDBRANCH   1  14
BRANCH   9  21
ATOM     21  C   UNL     1     -10.038  15.588  68.491  0.00  0.00    +0.020 A 
ATOM     22  C   UNL     1      -8.679  15.870  68.567  0.00  0.00    +0.005 A 
ATOM     23  C   UNL     1      -8.156  17.028  67.999  0.00  0.00    +0.038 A 
ATOM     24  C   UNL     1      -8.983  17.954  67.371  0.00  0.00    +0.145 A 
ATOM     25  C   UNL     1     -10.312  17.871  67.776  0.00  0.00    +0.038 A 
ATOM     26  C   UNL     1     -10.850  16.700  68.299  0.00  0.00    +0.005 A 
BRANCH  24  27
ATOM     27  O   UNL     1      -8.657  18.508  66.128  0.00  0.00    -0.453 OA
BRANCH  27  28
ATOM     28  C   UNL     1      -7.473  19.243  66.000  0.00  0.00    +0.145 A 
ATOM     29  C   UNL     1      -7.323  20.279  66.913  0.00  0.00    +0.037 A 
ATOM     30  C   UNL     1      -6.265  21.126  66.711  0.00  0.00    +0.003 A 
ATOM     31  C   UNL     1      -5.323  20.841  65.740  0.00  0.00    +0.000 A 
ATOM     32  C   UNL     1      -5.270  19.548  65.274  0.00  0.00    +0.003 A 
ATOM     33  C   UNL     1      -6.383  18.727  65.317  0.00  0.00    +0.037 A 
ENDBRANCH  27  28
ENDBRANCH  24  27
ENDBRANCH   9  21
TORSDOF 5
ENDMDL
MODEL 6
REMARK VINA RESULT:      -7.2      1.810      2.682
REMARK  Name = 
REMARK  5 active torsions:
REMARK  status: ('A' for Active; 'I' for Inactive)
REMARK    1  A    between atoms: C_2  and  C_3
REMARK    2  A    between atoms: C_9  and  N_10
REMARK    3  A    between atoms: C_12  and  C_13
REMARK    4  A    between atoms: C_16  and  O_17
REMARK    5  A    between atoms: O_17  and  C_18
REMARK                            x       y       z     vdW  Elec       q    Type
REMARK                         _______ _______ _______ _____ _____    ______ ____
ROOT
ATOM      1  N   UNL     1     -10.323  11.925  65.775  0.00  0.00    -0.234 N 
ATOM      2  C   UNL     1     -10.007  11.279  64.671  0.00  0.00    +0.165 A 
ATOM      3  N   UNL     1      -9.723  11.735  63.451  0.00  0.00    -0.205 NA
ATOM      4  C   UNL     1      -9.049  10.956  62.578  0.00  0.00    +0.202 A 
ATOM      5  N   UNL     1      -9.005   9.628  62.845  0.00  0.00    -0.206 NA
ATOM      6  C   UNL     1      -9.064   9.184  64.125  0.00  0.00    +0.176 A 
ATOM      7  N   UNL     1      -8.633   7.890  64.508  0.00  0.00    -0.107 NA
ATOM      8  C   UNL     1      -9.339  10.136  65.100  0.00  0.00    +0.090 A 
ATOM      9  C   UNL     1      -9.909   9.907  66.349  0.00  0.00    +0.107 A 
ATOM     10  N   UNL     1     -10.466  11.070  66.768  0.00  0.00    -0.168 NA
ENDROOT
BRANCH   1  14
ATOM     11  C   UNL     1     -10.818  15.458  68.846  0.00  0.00    +0.249 C 
ATOM     12  N   UNL     1     -10.881  14.941  67.534  0.00  0.00    -0.274 N 
ATOM     13  C   UNL     1     -10.979  13.508  67.416  0.00  0.00    +0.118 C 
ATOM     14  C   UNL     1     -11.209  13.252  65.782  0.00  0.00    +0.127 C 
ATOM     15  C   UNL     1      -9.915  14.230  65.372  0.00  0.00    +0.028 C 
ATOM     16  C   UNL     1     -10.688  15.527  65.149  0.00  0.00    +0.024 C 
ATOM     17  C   UNL     1     -11.233  15.882  66.502  0.00  0.00    +0.094 C 
ATOM     18  O   UNL     1      -9.857  15.058  69.570  0.00  0.00    -0.270 OA
BRANCH  11  20
ATOM     19  C   UNL     1     -12.454  15.359  70.394  0.00  0.00    +0.005 C 
ATOM     20  C   UNL     1     -12.047  15.780  69.583  0.00  0.00    +0.058 C 
ENDBRANCH  11  20
ENDBRANCH   1  14
BRANCH   9  21
ATOM     21  C   UNL     1      -9.358   8.871  67.233  0.00  0.00    +0.020 A 
ATOM     22  C   UNL     1      -8.200   9.136  67.956  0.00  0.00    +0.005 A 
ATOM     23  C   UNL     1      -8.104   8.796  69.302  0.00  0.00    +0.038 A 
ATOM     24  C   UNL     1      -9.150   8.148  69.953  0.00  0.00    +0.145 A 
ATOM     25  C   UNL     1     -10.010   7.480  69.088  0.00  0.00    +0.038 A 
ATOM     26  C   UNL     1     -10.144   7.849  67.753  0.00  0.00    +0.005 A 
BRANCH  24  27
ATOM     27  O   UNL     1      -9.594   8.556  71.216  0.00  0.00    -0.453 OA
BRANCH  27  28
ATOM     28  C   UNL     1     -10.827   9.208  71.326  0.00  0.00    +0.145 A 
ATOM     29  C   UNL     1     -11.021  10.252  70.431  0.00  0.00    +0.037 A 
ATOM     30  C   UNL     1     -12.139  11.023  70.622  0.00  0.00    +0.003 A 
ATOM     31  C   UNL     1     -13.086  10.653  71.559  0.00  0.00    +0.000 A 
ATOM     32  C   UNL     1     -13.065   9.349  71.996  0.00  0.00    +0.003 A 
ATOM     33  C   UNL     1     -11.898   8.604  71.967  0.00  0.00    +0.037 A 
ENDBRANCH  27  28
ENDBRANCH  24  27
ENDBRANCH   9  21
TORSDOF 5
ENDMDL
MODEL 7
REMARK VINA RESULT:      -7.1      2.703      6.837
REMARK  Name = 
REMARK  5 active torsions:
REMARK  status: ('A' for Active; 'I' for Inactive)
REMARK    1  A    between atoms: C_2  and  C_3
REMARK    2  A    between atoms: C_9  and  N_10
REMARK    3  A    between atoms: C_12  and  C_13
REMARK    4  A    between atoms: C_16  and  O_17
REMARK    5  A    between atoms: O_17  and  C_18
REMARK                            x       y       z     vdW  Elec       q    Type
REMARK                         _______ _______ _______ _____ _____    ______ ____
ROOT
ATOM      1  N   UNL     1     -11.070  11.347  68.703  0.00  0.00    -0.234 N 
ATOM      2  C   UNL     1     -10.570  10.391  67.946  0.00  0.00    +0.165 A 
ATOM      3  N   UNL     1     -10.803   9.078  67.943  0.00  0.00    -0.205 NA
ATOM      4  C   UNL     1     -10.502   8.341  66.852  0.00  0.00    +0.202 A 
ATOM      5  N   UNL     1      -9.654   8.894  65.950  0.00  0.00    -0.206 NA
ATOM      6  C   UNL     1      -9.595  10.240  65.801  0.00  0.00    +0.176 A 
ATOM      7  N   UNL     1      -9.058  10.860  64.646  0.00  0.00    -0.107 NA
ATOM      8  C   UNL     1     -10.308  10.999  66.722  0.00  0.00    +0.090 A 
ATOM      9  C   UNL     1     -10.052  12.316  67.091  0.00  0.00    +0.107 A 
ATOM     10  N   UNL     1     -10.598  12.515  68.316  0.00  0.00    -0.168 NA
ENDROOT
BRANCH   1  14
ATOM     11  C   UNL     1     -13.540  13.866  71.819  0.00  0.00    +0.249 C 
ATOM     12  N   UNL     1     -13.010  12.641  71.360  0.00  0.00    -0.274 N 
ATOM     13  C   UNL     1     -11.900  12.727  70.445  0.00  0.00    +0.118 C 
ATOM     14  C   UNL     1     -11.415  11.141  70.247  0.00  0.00    +0.127 C 
ATOM     15  C   UNL     1     -12.975  10.627  69.925  0.00  0.00    +0.028 C 
ATOM     16  C   UNL     1     -13.357  10.202  71.340  0.00  0.00    +0.024 C 
ATOM     17  C   UNL     1     -13.355  11.476  72.134  0.00  0.00    +0.094 C 
ATOM     18  O   UNL     1     -13.976  14.663  70.935  0.00  0.00    -0.270 OA
BRANCH  11  20
ATOM     19  C   UNL     1     -12.415  15.332  73.111  0.00  0.00    +0.005 C 
ATOM     20  C   UNL     1     -12.989  14.519  73.014  0.00  0.00    +0.058 C 
ENDBRANCH  11  20
ENDBRANCH   1  14
BRANCH   9  21
ATOM     21  C   UNL     1      -9.893  13.353  66.062  0.00  0.00    +0.020 A 
ATOM     22  C   UNL     1     -10.965  13.661  65.231  0.00  0.00    +0.005 A 
ATOM     23  C   UNL     1     -11.302  14.983  64.961  0.00  0.00    +0.038 A 
ATOM     24  C   UNL     1     -10.555  16.035  65.484  0.00  0.00    +0.145 A 
ATOM     25  C   UNL     1      -9.263  15.667  65.846  0.00  0.00    +0.038 A 
ATOM     26  C   UNL     1      -8.933  14.353  66.164  0.00  0.00    +0.005 A 
BRANCH  24  27
ATOM     27  O   UNL     1     -11.164  17.148  66.075  0.00  0.00    -0.453 OA
BRANCH  27  28
ATOM     28  C   UNL     1     -10.385  18.027  66.834  0.00  0.00    +0.145 A 
ATOM     29  C   UNL     1     -10.145  19.261  66.241  0.00  0.00    +0.037 A 
ATOM     30  C   UNL     1      -9.246  20.080  66.874  0.00  0.00    +0.003 A 
ATOM     31  C   UNL     1      -8.750  19.738  68.118  0.00  0.00    +0.000 A 
ATOM     32  C   UNL     1      -9.447  18.793  68.836  0.00  0.00    +0.003 A 
ATOM     33  C   UNL     1     -10.231  17.847  68.200  0.00  0.00    +0.037 A 
ENDBRANCH  27  28
ENDBRANCH  24  27
ENDBRANCH   9  21
TORSDOF 5
ENDMDL
MODEL 8
REMARK VINA RESULT:      -7.1      2.814      4.717
REMARK  Name = 
REMARK  5 active torsions:
REMARK  status: ('A' for Active; 'I' for Inactive)
REMARK    1  A    between atoms: C_2  and  C_3
REMARK    2  A    between atoms: C_9  and  N_10
REMARK    3  A    between atoms: C_12  and  C_13
REMARK    4  A    between atoms: C_16  and  O_17
REMARK    5  A    between atoms: O_17  and  C_18
REMARK                            x       y       z     vdW  Elec       q    Type
REMARK                         _______ _______ _______ _____ _____    ______ ____
ROOT
ATOM      1  N   UNL     1      -8.473   8.738  66.429  0.00  0.00    -0.234 N 
ATOM      2  C   UNL     1      -8.485   7.722  65.588  0.00  0.00    +0.165 A 
ATOM      3  N   UNL     1      -7.861   7.556  64.423  0.00  0.00    -0.205 NA
ATOM      4  C   UNL     1      -7.687   6.315  63.920  0.00  0.00    +0.202 A 
ATOM      5  N   UNL     1      -8.461   5.329  64.435  0.00  0.00    -0.206 NA
ATOM      6  C   UNL     1      -8.903   5.402  65.715  0.00  0.00    +0.176 A 
ATOM      7  N   UNL     1      -9.358   4.270  66.434  0.00  0.00    -0.107 NA
ATOM      8  C   UNL     1      -8.666   6.596  66.386  0.00  0.00    +0.090 A 
ATOM      9  C   UNL     1      -9.389   7.104  67.461  0.00  0.00    +0.107 A 
ATOM     10  N   UNL     1      -9.195   8.445  67.493  0.00  0.00    -0.168 NA
ENDROOT
BRANCH   1  14
ATOM     11  C   UNL     1     -11.469  12.355  66.745  0.00  0.00    +0.249 C 
ATOM     12  N   UNL     1     -10.161  11.838  66.626  0.00  0.00    -0.274 N 
ATOM     13  C   UNL     1     -10.049  10.488  66.136  0.00  0.00    +0.118 C 
ATOM     14  C   UNL     1      -8.405  10.259  65.953  0.00  0.00    +0.127 C 
ATOM     15  C   UNL     1      -8.080  10.824  67.493  0.00  0.00    +0.028 C 
ATOM     16  C   UNL     1      -7.791  12.278  67.132  0.00  0.00    +0.024 C 
ATOM     17  C   UNL     1      -9.098  12.810  66.621  0.00  0.00    +0.094 C 
ATOM     18  O   UNL     1     -12.263  11.723  67.504  0.00  0.00    -0.270 OA
BRANCH  11  20
ATOM     19  C   UNL     1     -12.556  13.923  65.544  0.00  0.00    +0.005 C 
ATOM     20  C   UNL     1     -12.114  13.029  65.609  0.00  0.00    +0.058 C 
ENDBRANCH  11  20
ENDBRANCH   1  14
BRANCH   9  21
ATOM     21  C   UNL     1      -9.648   6.263  68.638  0.00  0.00    +0.020 A 
ATOM     22  C   UNL     1      -8.672   6.146  69.622  0.00  0.00    +0.005 A 
ATOM     23  C   UNL     1      -9.002   6.238  70.970  0.00  0.00    +0.038 A 
ATOM     24  C   UNL     1     -10.322   6.414  71.375  0.00  0.00    +0.145 A 
ATOM     25  C   UNL     1     -11.250   6.013  70.419  0.00  0.00    +0.038 A 
ATOM     26  C   UNL     1     -10.938   5.967  69.064  0.00  0.00    +0.005 A 
BRANCH  24  27
ATOM     27  O   UNL     1     -10.673   7.354  72.350  0.00  0.00    -0.453 OA
BRANCH  27  28
ATOM     28  C   UNL     1     -11.422   8.475  71.977  0.00  0.00    +0.145 A 
ATOM     29  C   UNL     1     -10.881   9.224  70.939  0.00  0.00    +0.037 A 
ATOM     30  C   UNL     1     -11.492  10.420  70.663  0.00  0.00    +0.003 A 
ATOM     31  C   UNL     1     -12.677  10.755  71.289  0.00  0.00    +0.000 A 
ATOM     32  C   UNL     1     -13.391   9.735  71.875  0.00  0.00    +0.003 A 
ATOM     33  C   UNL     1     -12.762   8.584  72.316  0.00  0.00    +0.037 A 
ENDBRANCH  27  28
ENDBRANCH  24  27
ENDBRANCH   9  21
TORSDOF 5
ENDMDL
MODEL 9
REMARK VINA RESULT:      -7.1      4.290      8.733
REMARK  Name = 
REMARK  5 active torsions:
REMARK  status: ('A' for Active; 'I' for Inactive)
REMARK    1  A    between atoms: C_2  and  C_3
REMARK    2  A    between atoms: C_9  and  N_10
REMARK    3  A    between atoms: C_12  and  C_13
REMARK    4  A    between atoms: C_16  and  O_17
REMARK    5  A    between atoms: O_17  and  C_18
REMARK                            x       y       z     vdW  Elec       q    Type
REMARK                         _______ _______ _______ _____ _____    ______ ____
ROOT
ATOM      1  N   UNL     1      -9.965  12.991  66.830  0.00  0.00    -0.234 N 
ATOM      2  C   UNL     1     -10.783  13.305  65.845  0.00  0.00    +0.165 A 
ATOM      3  N   UNL     1     -11.878  12.690  65.400  0.00  0.00    -0.205 NA
ATOM      4  C   UNL     1     -12.781  13.368  64.659  0.00  0.00    +0.202 A 
ATOM      5  N   UNL     1     -12.369  14.533  64.102  0.00  0.00    -0.206 NA
ATOM      6  C   UNL     1     -11.403  15.274  64.699  0.00  0.00    +0.176 A 
ATOM      7  N   UNL     1     -11.206  16.648  64.415  0.00  0.00    -0.107 NA
ATOM      8  C   UNL     1     -10.760  14.696  65.787  0.00  0.00    +0.090 A 
ATOM      9  C   UNL     1      -9.484  14.994  66.255  0.00  0.00    +0.107 A 
ATOM     10  N   UNL     1      -9.040  13.922  66.956  0.00  0.00    -0.168 NA
ENDROOT
BRANCH   1  14
ATOM     11  C   UNL     1      -6.614  11.076  69.525  0.00  0.00    +0.249 C 
ATOM     12  N   UNL     1      -7.882  11.029  68.906  0.00  0.00    -0.274 N 
ATOM     13  C   UNL     1      -8.080  11.912  67.785  0.00  0.00    +0.118 C 
ATOM     14  C   UNL     1      -9.582  11.485  67.193  0.00  0.00    +0.127 C 
ATOM     15  C   UNL     1     -10.286  11.574  68.709  0.00  0.00    +0.028 C 
ATOM     16  C   UNL     1     -10.157  10.102  69.092  0.00  0.00    +0.024 C 
ATOM     17  C   UNL     1      -8.679   9.862  69.190  0.00  0.00    +0.094 C 
ATOM     18  O   UNL     1      -6.252  12.197  69.993  0.00  0.00    -0.270 OA
BRANCH  11  20
ATOM     19  C   UNL     1      -4.539  10.236  69.262  0.00  0.00    +0.005 C 
ATOM     20  C   UNL     1      -5.514  10.229  69.043  0.00  0.00    +0.058 C 
ENDBRANCH  11  20
ENDBRANCH   1  14
BRANCH   9  21
ATOM     21  C   UNL     1      -9.101  16.388  66.517  0.00  0.00    +0.020 A 
ATOM     22  C   UNL     1      -9.711  17.079  67.557  0.00  0.00    +0.005 A 
ATOM     23  C   UNL     1      -8.961  17.852  68.439  0.00  0.00    +0.038 A 
ATOM     24  C   UNL     1      -7.584  17.984  68.282  0.00  0.00    +0.145 A 
ATOM     25  C   UNL     1      -7.148  17.715  66.989  0.00  0.00    +0.038 A 
ATOM     26  C   UNL     1      -7.872  16.903  66.122  0.00  0.00    +0.005 A 
BRANCH  24  27
ATOM     27  O   UNL     1      -6.705  17.862  69.364  0.00  0.00    -0.453 OA
BRANCH  27  28
ATOM     28  C   UNL     1      -5.653  18.775  69.493  0.00  0.00    +0.145 A 
ATOM     29  C   UNL     1      -6.033  20.061  69.856  0.00  0.00    +0.037 A 
ATOM     30  C   UNL     1      -5.054  21.021  69.823  0.00  0.00    +0.003 A 
ATOM     31  C   UNL     1      -3.738  20.664  69.598  0.00  0.00    +0.000 A 
ATOM     32  C   UNL     1      -3.402  19.343  69.787  0.00  0.00    +0.003 A 
ATOM     33  C   UNL     1      -4.347  18.340  69.658  0.00  0.00    +0.037 A 
ENDBRANCH  27  28
ENDBRANCH  24  27
ENDBRANCH   9  21
TORSDOF 5
ENDMDL
