MODEL 1
REMARK VINA RESULT:      -8.1      0.000      0.000
REMARK  Name = 
REMARK  5 active torsions:
REMARK  status: ('A' for Active; 'I' for Inactive)
REMARK    1  A    between atoms: C_2  and  C_3
REMARK    2  A    between atoms: C_5  and  O_6
REMARK    3  A    between atoms: O_6  and  C_7
REMARK    4  A    between atoms: C_12  and  C_13
REMARK    5  A    between atoms: C_14  and  C_15
REMARK                            x       y       z     vdW  Elec       q    Type
REMARK                         _______ _______ _______ _____ _____    ______ ____
ROOT
ATOM      1  C   UNL     1     -10.994  14.581  66.767  0.00  0.00    +0.145 A 
ATOM      2  C   UNL     1     -11.052  13.646  67.804  0.00  0.00    +0.037 A 
ATOM      3  C   UNL     1     -11.381  12.328  67.500  0.00  0.00    +0.006 A 
ATOM      4  C   UNL     1     -11.857  12.058  66.219  0.00  0.00    +0.042 A 
ATOM      5  C   UNL     1     -12.346  13.087  65.421  0.00  0.00    +0.199 A 
ATOM      6  O   UNL     1     -12.749  12.817  64.111  0.00  0.00    -0.286 OA
ATOM      7  C   UNL     1     -11.975  14.347  65.799  0.00  0.00    +0.079 A 
ENDROOT
BRANCH   3   8
ATOM      8  C   UNL     1     -11.462  11.264  68.481  0.00  0.00    +0.000 C 
ATOM      9  C   UNL     1     -11.941  11.487  69.700  0.00  0.00    +0.000 C 
BRANCH   9  10
ATOM     10  C   UNL     1     -11.875  10.466  70.712  0.00  0.00    +0.000 A 
ATOM     11  C   UNL     1     -12.964  10.281  71.548  0.00  0.00    +0.003 A 
ATOM     12  C   UNL     1     -13.252   9.011  72.040  0.00  0.00    +0.042 A 
ATOM     13  C   UNL     1     -12.474   7.928  71.681  0.00  0.00    +0.196 A 
ATOM     14  O   UNL     1     -12.855   6.617  71.854  0.00  0.00    -0.287 OA
ATOM     15  C   UNL     1     -11.214   8.224  71.176  0.00  0.00    +0.042 A 
ATOM     16  C   UNL     1     -10.871   9.514  70.786  0.00  0.00    +0.003 A 
ENDBRANCH   9  10
ENDBRANCH   3   8
BRANCH   1  17
ATOM     17  O   UNL     1     -10.934  15.931  67.097  0.00  0.00    -0.450 OA
BRANCH  17  25
ATOM     18  C   UNL     1      -8.907  17.062  68.680  0.00  0.00    +0.185 C 
ATOM     19  C   UNL     1      -8.874  18.779  68.521  0.00  0.00    +0.215 C 
ATOM     20  O   UNL     1      -7.377  18.785  68.545  0.00  0.00    -0.218 OA
ATOM     21  C   UNL     1      -8.884  18.872  66.832  0.00  0.00    +0.221 C 
ATOM     22  O   UNL     1      -9.355  20.294  66.891  0.00  0.00    -0.217 OA
ATOM     23  C   UNL     1     -10.487  18.312  66.808  0.00  0.00    +0.254 C 
ATOM     24  O   UNL     1     -10.651  18.740  65.389  0.00  0.00    -0.213 OA
ATOM     25  C   UNL     1      -9.900  16.768  66.302  0.00  0.00    +0.322 C 
ATOM     26  O   UNL     1      -8.800  16.661  67.279  0.00  0.00    -0.316 OA
BRANCH  18  28
ATOM     27  O   UNL     1     -10.790  16.979  69.458  0.00  0.00    -0.218 OA
ATOM     28  C   UNL     1     -10.530  17.094  68.971  0.00  0.00    +0.214 C 
ENDBRANCH  18  28
ENDBRANCH  17  25
ENDBRANCH   1  17
TORSDOF 5
ENDMDL
MODEL 2
REMARK VINA RESULT:      -8.0      1.140      1.499
REMARK  Name = 
REMARK  5 active torsions:
REMARK  status: ('A' for Active; 'I' for Inactive)
REMARK    1  A    between atoms: C_2  and  C_3
REMARK    2  A    between atoms: C_5  and  O_6
REMARK    3  A    between atoms: O_6  and  C_7
REMARK    4  A    between atoms: C_12  and  C_13
REMARK    5  A    between atoms: C_14  and  C_15
REMARK                            x       y       z     vdW  Elec       q    Type
REMARK                         _______ _______ _______ _____ _____    ______ ____
ROOT
ATOM      1  C   UNL     1     -10.294  14.605  67.063  0.00  0.00    +0.145 A 
ATOM      2  C   UNL     1     -10.503  13.639  68.050  0.00  0.00    +0.037 A 
ATOM      3  C   UNL     1     -11.263  12.514  67.735  0.00  0.00    +0.006 A 
ATOM      4  C   UNL     1     -11.962  12.521  66.530  0.00  0.00    +0.042 A 
ATOM      5  C   UNL     1     -12.207  13.719  65.868  0.00  0.00    +0.199 A 
ATOM      6  O   UNL     1     -12.841  13.707  64.624  0.00  0.00    -0.286 OA
ATOM      7  C   UNL     1     -11.416  14.768  66.246  0.00  0.00    +0.079 A 
ENDROOT
BRANCH   3   8
ATOM      8  C   UNL     1     -11.541  11.437  68.664  0.00  0.00    +0.000 C 
ATOM      9  C   UNL     1     -11.799  11.680  69.943  0.00  0.00    +0.000 C 
BRANCH   9  10
ATOM     10  C   UNL     1     -11.921  10.600  70.887  0.00  0.00    +0.000 A 
ATOM     11  C   UNL     1     -13.074  10.504  71.648  0.00  0.00    +0.003 A 
ATOM     12  C   UNL     1     -13.546   9.253  72.036  0.00  0.00    +0.042 A 
ATOM     13  C   UNL     1     -12.887   8.104  71.647  0.00  0.00    +0.196 A 
ATOM     14  O   UNL     1     -13.436   6.844  71.710  0.00  0.00    -0.287 OA
ATOM     15  C   UNL     1     -11.571   8.268  71.232  0.00  0.00    +0.042 A 
ATOM     16  C   UNL     1     -11.048   9.525  70.949  0.00  0.00    +0.003 A 
ENDBRANCH   9  10
ENDBRANCH   3   8
BRANCH   1  17
ATOM     17  O   UNL     1      -9.775  15.839  67.446  0.00  0.00    -0.450 OA
BRANCH  17  25
ATOM     18  C   UNL     1      -7.607  17.161  66.244  0.00  0.00    +0.185 C 
ATOM     19  C   UNL     1      -7.572  18.829  66.681  0.00  0.00    +0.215 C 
ATOM     20  O   UNL     1      -7.157  19.217  65.297  0.00  0.00    -0.218 OA
ATOM     21  C   UNL     1      -9.186  19.208  66.344  0.00  0.00    +0.221 C 
ATOM     22  O   UNL     1      -9.104  20.428  67.212  0.00  0.00    -0.217 OA
ATOM     23  C   UNL     1      -9.686  18.267  67.664  0.00  0.00    +0.254 C 
ATOM     24  O   UNL     1     -11.046  18.878  67.628  0.00  0.00    -0.213 OA
ATOM     25  C   UNL     1     -10.180  17.039  66.553  0.00  0.00    +0.322 C 
ATOM     26  O   UNL     1      -8.965  17.051  65.716  0.00  0.00    -0.316 OA
BRANCH  18  28
ATOM     27  O   UNL     1      -7.358  16.474  68.148  0.00  0.00    -0.218 OA
ATOM     28  C   UNL     1      -7.751  16.722  67.827  0.00  0.00    +0.214 C 
ENDBRANCH  18  28
ENDBRANCH  17  25
ENDBRANCH   1  17
TORSDOF 5
ENDMDL
MODEL 3
REMARK VINA RESULT:      -8.0      2.037      3.271
REMARK  Name = 
REMARK  5 active torsions:
REMARK  status: ('A' for Active; 'I' for Inactive)
REMARK    1  A    between atoms: C_2  and  C_3
REMARK    2  A    between atoms: C_5  and  O_6
REMARK    3  A    between atoms: O_6  and  C_7
REMARK    4  A    between atoms: C_12  and  C_13
REMARK    5  A    between atoms: C_14  and  C_15
REMARK                            x       y       z     vdW  Elec       q    Type
REMARK                         _______ _______ _______ _____ _____    ______ ____
ROOT
ATOM      1  C   UNL     1     -11.643  15.926  69.069  0.00  0.00    +0.145 A 
ATOM      2  C   UNL     1     -11.505  14.540  68.951  0.00  0.00    +0.037 A 
ATOM      3  C   UNL     1     -11.973  13.730  69.983  0.00  0.00    +0.006 A 
ATOM      4  C   UNL     1     -12.345  14.349  71.175  0.00  0.00    +0.042 A 
ATOM      5  C   UNL     1     -11.911  15.638  71.461  0.00  0.00    +0.199 A 
ATOM      6  O   UNL     1     -12.351  16.277  72.622  0.00  0.00    -0.286 OA
ATOM      7  C   UNL     1     -11.464  16.357  70.387  0.00  0.00    +0.079 A 
ENDROOT
BRANCH   3   8
ATOM      8  C   UNL     1     -11.901  12.283  69.975  0.00  0.00    +0.000 C 
ATOM      9  C   UNL     1     -12.382  11.564  70.983  0.00  0.00    +0.000 C 
BRANCH   9  10
ATOM     10  C   UNL     1     -12.169  10.142  71.039  0.00  0.00    +0.000 A 
ATOM     11  C   UNL     1     -10.892   9.648  70.829  0.00  0.00    +0.003 A 
ATOM     12  C   UNL     1     -10.483   8.487  71.478  0.00  0.00    +0.042 A 
ATOM     13  C   UNL     1     -11.332   7.836  72.352  0.00  0.00    +0.196 A 
ATOM     14  O   UNL     1     -10.921   6.887  73.259  0.00  0.00    -0.287 OA
ATOM     15  C   UNL     1     -12.681   8.142  72.230  0.00  0.00    +0.042 A 
ATOM     16  C   UNL     1     -13.116   9.236  71.489  0.00  0.00    +0.003 A 
ENDBRANCH   9  10
ENDBRANCH   3   8
BRANCH   1  17
ATOM     17  O   UNL     1     -10.943  16.737  68.182  0.00  0.00    -0.450 OA
BRANCH  17  25
ATOM     18  C   UNL     1      -9.299  19.006  68.392  0.00  0.00    +0.185 C 
ATOM     19  C   UNL     1      -8.322  19.202  66.984  0.00  0.00    +0.215 C 
ATOM     20  O   UNL     1      -7.155  19.636  67.815  0.00  0.00    -0.218 OA
ATOM     21  C   UNL     1      -7.712  17.628  66.883  0.00  0.00    +0.221 C 
ATOM     22  O   UNL     1      -7.358  17.833  65.441  0.00  0.00    -0.217 OA
ATOM     23  C   UNL     1      -9.251  17.056  66.453  0.00  0.00    +0.254 C 
ATOM     24  O   UNL     1      -8.677  15.759  65.991  0.00  0.00    -0.213 OA
ATOM     25  C   UNL     1      -9.428  16.436  68.056  0.00  0.00    +0.322 C 
ATOM     26  O   UNL     1      -8.953  17.637  68.769  0.00  0.00    -0.316 OA
BRANCH  18  28
ATOM     27  O   UNL     1     -11.082  19.202  67.422  0.00  0.00    -0.218 OA
ATOM     28  C   UNL     1     -10.651  18.840  67.462  0.00  0.00    +0.214 C 
ENDBRANCH  18  28
ENDBRANCH  17  25
ENDBRANCH   1  17
TORSDOF 5
ENDMDL
MODEL 4
REMARK VINA RESULT:      -7.9      2.277      4.000
REMARK  Name = 
REMARK  5 active torsions:
REMARK  status: ('A' for Active; 'I' for Inactive)
REMARK    1  A    between atoms: C_2  and  C_3
REMARK    2  A    between atoms: C_5  and  O_6
REMARK    3  A    between atoms: O_6  and  C_7
REMARK    4  A    between atoms: C_12  and  C_13
REMARK    5  A    between atoms: C_14  and  C_15
REMARK                            x       y       z     vdW  Elec       q    Type
REMARK                         _______ _______ _______ _____ _____    ______ ____
ROOT
ATOM      1  C   UNL     1     -11.968  15.609  70.677  0.00  0.00    +0.145 A 
ATOM      2  C   UNL     1     -12.100  14.220  70.583  0.00  0.00    +0.037 A 
ATOM      3  C   UNL     1     -12.848  13.552  71.549  0.00  0.00    +0.006 A 
ATOM      4  C   UNL     1     -13.234  14.269  72.681  0.00  0.00    +0.042 A 
ATOM      5  C   UNL     1     -12.586  15.453  73.015  0.00  0.00    +0.199 A 
ATOM      6  O   UNL     1     -13.030  16.202  74.107  0.00  0.00    -0.286 OA
ATOM      7  C   UNL     1     -11.872  16.034  72.005  0.00  0.00    +0.079 A 
ENDROOT
BRANCH   3   8
ATOM      8  C   UNL     1     -13.071  12.120  71.557  0.00  0.00    +0.000 C 
ATOM      9  C   UNL     1     -12.188  11.283  71.024  0.00  0.00    +0.000 C 
BRANCH   9  10
ATOM     10  C   UNL     1     -12.487   9.881  70.899  0.00  0.00    +0.000 A 
ATOM     11  C   UNL     1     -11.564   9.052  70.286  0.00  0.00    +0.003 A 
ATOM     12  C   UNL     1     -11.447   7.725  70.689  0.00  0.00    +0.042 A 
ATOM     13  C   UNL     1     -12.230   7.234  71.717  0.00  0.00    +0.196 A 
ATOM     14  O   UNL     1     -11.973   6.059  72.384  0.00  0.00    -0.287 OA
ATOM     15  C   UNL     1     -13.368   7.971  72.019  0.00  0.00    +0.042 A 
ATOM     16  C   UNL     1     -13.554   9.259  71.529  0.00  0.00    +0.003 A 
ENDBRANCH   9  10
ENDBRANCH   3   8
BRANCH   1  17
ATOM     17  O   UNL     1     -11.012  16.236  69.883  0.00  0.00    -0.450 OA
BRANCH  17  25
ATOM     18  C   UNL     1      -9.647  14.888  67.831  0.00  0.00    +0.185 C 
ATOM     19  C   UNL     1      -8.877  15.998  66.759  0.00  0.00    +0.215 C 
ATOM     20  O   UNL     1      -9.234  15.153  65.576  0.00  0.00    -0.218 OA
ATOM     21  C   UNL     1     -10.194  17.021  66.473  0.00  0.00    +0.221 C 
ATOM     22  O   UNL     1      -9.275  18.110  66.005  0.00  0.00    -0.217 OA
ATOM     23  C   UNL     1     -10.102  17.590  68.069  0.00  0.00    +0.254 C 
ATOM     24  O   UNL     1     -10.984  18.747  67.743  0.00  0.00    -0.213 OA
ATOM     25  C   UNL     1     -11.477  16.617  68.455  0.00  0.00    +0.322 C 
ATOM     26  O   UNL     1     -11.021  15.383  67.788  0.00  0.00    -0.316 OA
BRANCH  18  28
ATOM     27  O   UNL     1      -8.592  15.441  69.486  0.00  0.00    -0.218 OA
ATOM     28  C   UNL     1      -8.983  15.648  69.136  0.00  0.00    +0.214 C 
ENDBRANCH  18  28
ENDBRANCH  17  25
ENDBRANCH   1  17
TORSDOF 5
ENDMDL
MODEL 5
REMARK VINA RESULT:      -7.7      1.114      1.828
REMARK  Name = 
REMARK  5 active torsions:
REMARK  status: ('A' for Active; 'I' for Inactive)
REMARK    1  A    between atoms: C_2  and  C_3
REMARK    2  A    between atoms: C_5  and  O_6
REMARK    3  A    between atoms: O_6  and  C_7
REMARK    4  A    between atoms: C_12  and  C_13
REMARK    5  A    between atoms: C_14  and  C_15
REMARK                            x       y       z     vdW  Elec       q    Type
REMARK                         _______ _______ _______ _____ _____    ______ ____
ROOT
ATOM      1  C   UNL     1     -10.249  14.512  65.929  0.00  0.00    +0.145 A 
ATOM      2  C   UNL     1     -10.328  13.670  67.042  0.00  0.00    +0.037 A 
ATOM      3  C   UNL     1     -11.008  12.462  66.920  0.00  0.00    +0.006 A 
ATOM      4  C   UNL     1     -11.767  12.258  65.769  0.00  0.00    +0.042 A 
ATOM      5  C   UNL     1     -12.142  13.337  64.976  0.00  0.00    +0.199 A 
ATOM      6  O   UNL     1     -12.837  13.115  63.785  0.00  0.00    -0.286 OA
ATOM      7  C   UNL     1     -11.421  14.483  65.169  0.00  0.00    +0.079 A 
ENDROOT
BRANCH   3   8
ATOM      8  C   UNL     1     -11.150  11.498  67.993  0.00  0.00    +0.000 C 
ATOM      9  C   UNL     1     -11.732  11.826  69.140  0.00  0.00    +0.000 C 
BRANCH   9  10
ATOM     10  C   UNL     1     -11.731  10.912  70.252  0.00  0.00    +0.000 A 
ATOM     11  C   UNL     1     -12.790  10.941  71.144  0.00  0.00    +0.003 A 
ATOM     12  C   UNL     1     -13.195   9.771  71.779  0.00  0.00    +0.042 A 
ATOM     13  C   UNL     1     -12.564   8.572  71.507  0.00  0.00    +0.196 A 
ATOM     14  O   UNL     1     -13.081   7.340  71.833  0.00  0.00    -0.287 OA
ATOM     15  C   UNL     1     -11.305   8.666  70.925  0.00  0.00    +0.042 A 
ATOM     16  C   UNL     1     -10.839   9.860  70.387  0.00  0.00    +0.003 A 
ENDBRANCH   9  10
ENDBRANCH   3   8
BRANCH   1  17
ATOM     17  O   UNL     1      -9.813  15.820  66.120  0.00  0.00    -0.450 OA
BRANCH  17  25
ATOM     18  C   UNL     1     -10.098  18.157  67.653  0.00  0.00    +0.185 C 
ATOM     19  C   UNL     1      -8.696  19.154  67.538  0.00  0.00    +0.215 C 
ATOM     20  O   UNL     1      -8.789  19.508  68.990  0.00  0.00    -0.218 OA
ATOM     21  C   UNL     1      -7.526  17.977  67.862  0.00  0.00    +0.221 C 
ATOM     22  O   UNL     1      -6.461  18.832  67.243  0.00  0.00    -0.217 OA
ATOM     23  C   UNL     1      -7.846  17.243  66.365  0.00  0.00    +0.254 C 
ATOM     24  O   UNL     1      -6.590  16.444  66.450  0.00  0.00    -0.213 OA
ATOM     25  C   UNL     1      -8.719  16.007  67.201  0.00  0.00    +0.322 C 
ATOM     26  O   UNL     1      -9.496  16.897  68.084  0.00  0.00    -0.316 OA
BRANCH  18  28
ATOM     27  O   UNL     1     -10.555  18.266  65.669  0.00  0.00    -0.218 OA
ATOM     28  C   UNL     1     -10.174  18.029  66.010  0.00  0.00    +0.214 C 
ENDBRANCH  18  28
ENDBRANCH  17  25
ENDBRANCH   1  17
TORSDOF 5
ENDMDL
MODEL 6
REMARK VINA RESULT:      -7.7      2.173      3.865
REMARK  Name = 
REMARK  5 active torsions:
REMARK  status: ('A' for Active; 'I' for Inactive)
REMARK    1  A    between atoms: C_2  and  C_3
REMARK    2  A    between atoms: C_5  and  O_6
REMARK    3  A    between atoms: O_6  and  C_7
REMARK    4  A    between atoms: C_12  and  C_13
REMARK    5  A    between atoms: C_14  and  C_15
REMARK                            x       y       z     vdW  Elec       q    Type
REMARK                         _______ _______ _______ _____ _____    ______ ____
ROOT
ATOM      1  C   UNL     1     -12.100  13.568  69.600  0.00  0.00    +0.145 A 
ATOM      2  C   UNL     1     -11.611  12.260  69.661  0.00  0.00    +0.037 A 
ATOM      3  C   UNL     1     -12.208  11.363  70.543  0.00  0.00    +0.006 A 
ATOM      4  C   UNL     1     -13.105  11.874  71.479  0.00  0.00    +0.042 A 
ATOM      5  C   UNL     1     -13.110  13.232  71.777  0.00  0.00    +0.199 A 
ATOM      6  O   UNL     1     -14.064  13.746  72.658  0.00  0.00    -0.286 OA
ATOM      7  C   UNL     1     -12.496  14.035  70.856  0.00  0.00    +0.079 A 
ENDROOT
BRANCH   3   8
ATOM      8  C   UNL     1     -11.803   9.979  70.691  0.00  0.00    +0.000 C 
ATOM      9  C   UNL     1     -12.239   9.240  71.704  0.00  0.00    +0.000 C 
BRANCH   9  10
ATOM     10  C   UNL     1     -11.714   7.919  71.929  0.00  0.00    +0.000 A 
ATOM     11  C   UNL     1     -11.922   6.943  70.969  0.00  0.00    +0.003 A 
ATOM     12  C   UNL     1     -10.972   5.945  70.777  0.00  0.00    +0.042 A 
ATOM     13  C   UNL     1      -9.808   5.934  71.521  0.00  0.00    +0.196 A 
ATOM     14  O   UNL     1      -8.694   5.195  71.194  0.00  0.00    -0.287 OA
ATOM     15  C   UNL     1      -9.828   6.678  72.693  0.00  0.00    +0.042 A 
ATOM     16  C   UNL     1     -10.836   7.600  72.953  0.00  0.00    +0.003 A 
ENDBRANCH   9  10
ENDBRANCH   3   8
BRANCH   1  17
ATOM     17  O   UNL     1     -11.342  14.525  68.931  0.00  0.00    -0.450 OA
BRANCH  17  25
ATOM     18  C   UNL     1      -9.403  16.280  67.905  0.00  0.00    +0.185 C 
ATOM     19  C   UNL     1      -9.822  16.817  66.321  0.00  0.00    +0.215 C 
ATOM     20  O   UNL     1      -8.393  16.736  65.881  0.00  0.00    -0.218 OA
ATOM     21  C   UNL     1     -10.160  15.311  65.629  0.00  0.00    +0.221 C 
ATOM     22  O   UNL     1     -10.946  15.966  64.533  0.00  0.00    -0.217 OA
ATOM     23  C   UNL     1     -11.553  15.179  66.590  0.00  0.00    +0.254 C 
ATOM     24  O   UNL     1     -12.070  14.064  65.745  0.00  0.00    -0.213 OA
ATOM     25  C   UNL     1     -10.706  14.058  67.597  0.00  0.00    +0.322 C 
ATOM     26  O   UNL     1      -9.456  14.832  67.720  0.00  0.00    -0.316 OA
BRANCH  18  28
ATOM     27  O   UNL     1     -11.040  17.107  68.798  0.00  0.00    -0.218 OA
ATOM     28  C   UNL     1     -10.905  16.673  68.464  0.00  0.00    +0.214 C 
ENDBRANCH  18  28
ENDBRANCH  17  25
ENDBRANCH   1  17
TORSDOF 5
ENDMDL
MODEL 7
REMARK VINA RESULT:      -7.5      2.598      5.001
REMARK  Name = 
REMARK  5 active torsions:
REMARK  status: ('A' for Active; 'I' for Inactive)
REMARK    1  A    between atoms: C_2  and  C_3
REMARK    2  A    between atoms: C_5  and  O_6
REMARK    3  A    between atoms: O_6  and  C_7
REMARK    4  A    between atoms: C_12  and  C_13
REMARK    5  A    between atoms: C_14  and  C_15
REMARK                            x       y       z     vdW  Elec       q    Type
REMARK                         _______ _______ _______ _____ _____    ______ ____
ROOT
ATOM      1  C   UNL     1     -11.956  12.025  69.149  0.00  0.00    +0.145 A 
ATOM      2  C   UNL     1     -11.506  10.830  69.716  0.00  0.00    +0.037 A 
ATOM      3  C   UNL     1     -12.075  10.400  70.912  0.00  0.00    +0.006 A 
ATOM      4  C   UNL     1     -12.896  11.293  71.597  0.00  0.00    +0.042 A 
ATOM      5  C   UNL     1     -12.840  12.654  71.316  0.00  0.00    +0.199 A 
ATOM      6  O   UNL     1     -13.720  13.531  71.953  0.00  0.00    -0.286 OA
ATOM      7  C   UNL     1     -12.259  12.981  70.122  0.00  0.00    +0.079 A 
ENDROOT
BRANCH   3   8
ATOM      8  C   UNL     1     -11.706   9.175  71.593  0.00  0.00    +0.000 C 
ATOM      9  C   UNL     1     -10.434   8.871  71.821  0.00  0.00    +0.000 C 
BRANCH   9  10
ATOM     10  C   UNL     1     -10.070   7.586  72.358  0.00  0.00    +0.000 A 
ATOM     11  C   UNL     1      -9.072   7.518  73.314  0.00  0.00    +0.003 A 
ATOM     12  C   UNL     1      -9.118   6.533  74.297  0.00  0.00    +0.042 A 
ATOM     13  C   UNL     1     -10.169   5.638  74.342  0.00  0.00    +0.196 A 
ATOM     14  O   UNL     1     -10.464   4.852  75.433  0.00  0.00    -0.287 OA
ATOM     15  C   UNL     1     -10.909   5.509  73.173  0.00  0.00    +0.042 A 
ATOM     16  C   UNL     1     -10.789   6.422  72.131  0.00  0.00    +0.003 A 
ENDBRANCH   9  10
ENDBRANCH   3   8
BRANCH   1  17
ATOM     17  O   UNL     1     -11.212  12.587  68.116  0.00  0.00    -0.450 OA
BRANCH  17  25
ATOM     18  C   UNL     1     -12.238  12.839  65.512  0.00  0.00    +0.185 C 
ATOM     19  C   UNL     1     -11.299  13.941  64.575  0.00  0.00    +0.215 C 
ATOM     20  O   UNL     1     -12.532  14.495  63.931  0.00  0.00    -0.218 OA
ATOM     21  C   UNL     1     -11.251  15.225  65.675  0.00  0.00    +0.221 C 
ATOM     22  O   UNL     1     -10.060  15.809  64.976  0.00  0.00    -0.217 OA
ATOM     23  C   UNL     1     -10.243  14.317  66.695  0.00  0.00    +0.254 C 
ATOM     24  O   UNL     1      -9.877  15.535  67.473  0.00  0.00    -0.213 OA
ATOM     25  C   UNL     1     -11.602  14.035  67.724  0.00  0.00    +0.322 C 
ATOM     26  O   UNL     1     -12.563  13.677  66.664  0.00  0.00    -0.316 OA
BRANCH  18  28
ATOM     27  O   UNL     1     -10.723  11.508  65.817  0.00  0.00    -0.218 OA
ATOM     28  C   UNL     1     -10.876  12.029  65.971  0.00  0.00    +0.214 C 
ENDBRANCH  18  28
ENDBRANCH  17  25
ENDBRANCH   1  17
TORSDOF 5
ENDMDL
MODEL 8
REMARK VINA RESULT:      -7.5      1.556      2.437
REMARK  Name = 
REMARK  5 active torsions:
REMARK  status: ('A' for Active; 'I' for Inactive)
REMARK    1  A    between atoms: C_2  and  C_3
REMARK    2  A    between atoms: C_5  and  O_6
REMARK    3  A    between atoms: O_6  and  C_7
REMARK    4  A    between atoms: C_12  and  C_13
REMARK    5  A    between atoms: C_14  and  C_15
REMARK                            x       y       z     vdW  Elec       q    Type
REMARK                         _______ _______ _______ _____ _____    ______ ____
ROOT
ATOM      1  C   UNL     1      -9.704  15.019  65.600  0.00  0.00    +0.145 A 
ATOM      2  C   UNL     1      -9.746  13.943  66.491  0.00  0.00    +0.037 A 
ATOM      3  C   UNL     1     -10.618  12.890  66.228  0.00  0.00    +0.006 A 
ATOM      4  C   UNL     1     -11.564  13.068  65.220  0.00  0.00    +0.042 A 
ATOM      5  C   UNL     1     -11.880  14.346  64.773  0.00  0.00    +0.199 A 
ATOM      6  O   UNL     1     -12.772  14.509  63.711  0.00  0.00    -0.286 OA
ATOM      7  C   UNL     1     -10.968  15.316  65.082  0.00  0.00    +0.079 A 
ENDROOT
BRANCH   3   8
ATOM      8  C   UNL     1     -10.746  11.713  67.065  0.00  0.00    +0.000 C 
ATOM      9  C   UNL     1     -11.603  11.680  68.079  0.00  0.00    +0.000 C 
BRANCH   9  10
ATOM     10  C   UNL     1     -11.613  10.570  68.995  0.00  0.00    +0.000 A 
ATOM     11  C   UNL     1     -10.768   9.499  68.759  0.00  0.00    +0.003 A 
ATOM     12  C   UNL     1     -10.247   8.778  69.829  0.00  0.00    +0.042 A 
ATOM     13  C   UNL     1     -10.545   9.139  71.129  0.00  0.00    +0.196 A 
ATOM     14  O   UNL     1      -9.845   8.699  72.228  0.00  0.00    -0.287 OA
ATOM     15  C   UNL     1     -11.665   9.944  71.294  0.00  0.00    +0.042 A 
ATOM     16  C   UNL     1     -12.269  10.582  70.216  0.00  0.00    +0.003 A 
ENDBRANCH   9  10
ENDBRANCH   3   8
BRANCH   1  17
ATOM     17  O   UNL     1      -9.045  16.179  65.997  0.00  0.00    -0.450 OA
BRANCH  17  25
ATOM     18  C   UNL     1      -7.663  18.608  66.286  0.00  0.00    +0.185 C 
ATOM     19  C   UNL     1      -7.964  19.318  67.829  0.00  0.00    +0.215 C 
ATOM     20  O   UNL     1      -8.016  20.687  67.225  0.00  0.00    -0.218 OA
ATOM     21  C   UNL     1      -9.652  19.212  67.826  0.00  0.00    +0.221 C 
ATOM     22  O   UNL     1      -9.687  19.361  69.318  0.00  0.00    -0.217 OA
ATOM     23  C   UNL     1      -9.550  17.524  67.968  0.00  0.00    +0.254 C 
ATOM     24  O   UNL     1     -10.989  17.435  68.348  0.00  0.00    -0.213 OA
ATOM     25  C   UNL     1      -9.957  17.396  66.294  0.00  0.00    +0.322 C 
ATOM     26  O   UNL     1      -9.030  18.433  65.801  0.00  0.00    -0.316 OA
BRANCH  18  28
ATOM     27  O   UNL     1      -6.784  16.930  67.043  0.00  0.00    -0.218 OA
ATOM     28  C   UNL     1      -7.295  17.164  66.994  0.00  0.00    +0.214 C 
ENDBRANCH  18  28
ENDBRANCH  17  25
ENDBRANCH   1  17
TORSDOF 5
ENDMDL
MODEL 9
REMARK VINA RESULT:      -7.5      2.222      4.210
REMARK  Name = 
REMARK  5 active torsions:
REMARK  status: ('A' for Active; 'I' for Inactive)
REMARK    1  A    between atoms: C_2  and  C_3
REMARK    2  A    between atoms: C_5  and  O_6
REMARK    3  A    between atoms: O_6  and  C_7
REMARK    4  A    between atoms: C_12  and  C_13
REMARK    5  A    between atoms: C_14  and  C_15
REMARK                            x       y       z     vdW  Elec       q    Type
REMARK                         _______ _______ _______ _____ _____    ______ ____
ROOT
ATOM      1  C   UNL     1     -12.061  12.764  69.580  0.00  0.00    +0.145 A 
ATOM      2  C   UNL     1     -11.656  11.470  69.918  0.00  0.00    +0.037 A 
ATOM      3  C   UNL     1     -12.316  10.810  70.952  0.00  0.00    +0.006 A 
ATOM      4  C   UNL     1     -13.187  11.555  71.744  0.00  0.00    +0.042 A 
ATOM      5  C   UNL     1     -13.109  12.943  71.758  0.00  0.00    +0.199 A 
ATOM      6  O   UNL     1     -14.036  13.683  72.495  0.00  0.00    -0.286 OA
ATOM      7  C   UNL     1     -12.438  13.502  70.706  0.00  0.00    +0.079 A 
ENDROOT
BRANCH   3   8
ATOM      8  C   UNL     1     -12.001   9.464  71.389  0.00  0.00    +0.000 C 
ATOM      9  C   UNL     1     -10.767   9.128  71.747  0.00  0.00    +0.000 C 
BRANCH   9  10
ATOM     10  C   UNL     1     -10.432   7.758  72.030  0.00  0.00    +0.000 A 
ATOM     11  C   UNL     1     -10.112   7.402  73.329  0.00  0.00    +0.003 A 
ATOM     12  C   UNL     1     -10.422   6.127  73.796  0.00  0.00    +0.042 A 
ATOM     13  C   UNL     1     -11.070   5.221  72.979  0.00  0.00    +0.196 A 
ATOM     14  O   UNL     1     -11.688   4.079  73.436  0.00  0.00    -0.287 OA
ATOM     15  C   UNL     1     -11.018   5.485  71.616  0.00  0.00    +0.042 A 
ATOM     16  C   UNL     1     -10.601   6.718  71.128  0.00  0.00    +0.003 A 
ENDBRANCH   9  10
ENDBRANCH   3   8
BRANCH   1  17
ATOM     17  O   UNL     1     -11.239  13.516  68.746  0.00  0.00    -0.450 OA
BRANCH  17  25
ATOM     18  C   UNL     1     -10.742  14.409  66.129  0.00  0.00    +0.185 C 
ATOM     19  C   UNL     1      -9.769  15.833  66.129  0.00  0.00    +0.215 C 
ATOM     20  O   UNL     1     -10.562  16.414  65.000  0.00  0.00    -0.218 OA
ATOM     21  C   UNL     1     -10.648  16.734  67.259  0.00  0.00    +0.221 C 
ATOM     22  O   UNL     1      -9.466  17.624  67.502  0.00  0.00    -0.217 OA
ATOM     23  C   UNL     1     -10.146  15.682  68.493  0.00  0.00    +0.254 C 
ATOM     24  O   UNL     1     -10.580  16.650  69.541  0.00  0.00    -0.213 OA
ATOM     25  C   UNL     1     -11.717  14.964  68.468  0.00  0.00    +0.322 C 
ATOM     26  O   UNL     1     -11.834  14.830  67.003  0.00  0.00    -0.316 OA
BRANCH  18  28
ATOM     27  O   UNL     1      -9.334  13.227  67.012  0.00  0.00    -0.218 OA
ATOM     28  C   UNL     1      -9.681  13.653  67.140  0.00  0.00    +0.214 C 
ENDBRANCH  18  28
ENDBRANCH  17  25
ENDBRANCH   1  17
TORSDOF 5
ENDMDL
