MODEL 1
REMARK VINA RESULT:      -5.9      0.000      0.000
REMARK  Name = 
REMARK  9 active torsions:
REMARK  status: ('A' for Active; 'I' for Inactive)
REMARK    1  A    between atoms: C_2  and  C_3
REMARK    2  A    between atoms: C_3  and  C_4
REMARK    3  A    between atoms: C_4  and  C_5
REMARK    4  A    between atoms: C_5  and  C_6
REMARK    5  A    between atoms: C_5  and  C_8
REMARK    6  A    between atoms: C_8  and  O_9
REMARK    7  A    between atoms: O_9  and  C_10
REMARK    8  A    between atoms: C_10  and  C_12
REMARK    9  A    between atoms: C_15  and  N_16
REMARK                            x       y       z     vdW  Elec       q    Type
REMARK                         _______ _______ _______ _____ _____    ______ ____
ROOT
ATOM      1  C   UNL     1     -11.593  15.724  68.547  0.00  0.00    +0.341 C 
ATOM      2  O   UNL     1     -11.283  16.920  68.390  0.00  0.00    -0.245 OA
ENDROOT
BRANCH   1   3
ATOM      3  C   UNL     1     -11.164  14.804  67.491  0.00  0.00    +0.076 A 
ATOM      4  C   UNL     1     -10.693  15.303  66.303  0.00  0.00    +0.008 A 
ATOM      5  C   UNL     1     -10.713  14.546  65.147  0.00  0.00    +0.015 A 
ATOM      6  C   UNL     1     -11.329  13.309  65.185  0.00  0.00    +0.048 A 
ATOM      7  C   UNL     1     -11.795  12.794  66.376  0.00  0.00    +0.015 A 
ATOM      8  C   UNL     1     -11.752  13.545  67.519  0.00  0.00    +0.008 A 
BRANCH   6   9
ATOM      9  N   UNL     1     -11.276  12.495  64.012  0.00  0.00    -0.304 N 
ATOM     10  C   UNL     1     -10.056  11.889  63.546  0.00  0.00    +0.112 C 
ATOM     11  C   UNL     1     -12.559  12.092  63.477  0.00  0.00    +0.112 C 
ENDBRANCH   6   9
ENDBRANCH   1   3
BRANCH   1  12
ATOM     12  O   UNL     1     -12.157  15.324  69.735  0.00  0.00    -0.445 OA
BRANCH  12  13
ATOM     13  C   UNL     1     -11.865  16.041  70.918  0.00  0.00    +0.209 C 
BRANCH  13  14
ATOM     14  C   UNL     1     -11.790  14.833  72.039  0.00  0.00    +0.044 C 
BRANCH  14  15
ATOM     15  C   UNL     1     -13.043  15.468  72.904  0.00  0.00    +0.004 C 
ATOM     16  C   UNL     1     -12.515  15.662  74.298  0.00  0.00    +0.000 C 
ENDBRANCH  14  15
BRANCH  14  17
ATOM     17  C   UNL     1     -12.806  13.880  71.157  0.00  0.00    +0.004 C 
BRANCH  17  18
ATOM     18  C   UNL     1     -13.393  12.932  72.166  0.00  0.00    +0.000 C 
BRANCH  18  20
ATOM     19  C   UNL     1     -12.185  11.575  70.582  0.00  0.00    +0.000 C 
ATOM     20  C   UNL     1     -13.120  11.512  71.690  0.00  0.00    +0.000 C 
ENDBRANCH  18  20
ENDBRANCH  17  18
ENDBRANCH  14  17
ENDBRANCH  13  14
ENDBRANCH  12  13
ENDBRANCH   1  12
TORSDOF 9
ENDMDL
MODEL 2
REMARK VINA RESULT:      -5.8      2.682      4.697
REMARK  Name = 
REMARK  9 active torsions:
REMARK  status: ('A' for Active; 'I' for Inactive)
REMARK    1  A    between atoms: C_2  and  C_3
REMARK    2  A    between atoms: C_3  and  C_4
REMARK    3  A    between atoms: C_4  and  C_5
REMARK    4  A    between atoms: C_5  and  C_6
REMARK    5  A    between atoms: C_5  and  C_8
REMARK    6  A    between atoms: C_8  and  O_9
REMARK    7  A    between atoms: O_9  and  C_10
REMARK    8  A    between atoms: C_10  and  C_12
REMARK    9  A    between atoms: C_15  and  N_16
REMARK                            x       y       z     vdW  Elec       q    Type
REMARK                         _______ _______ _______ _____ _____    ______ ____
ROOT
ATOM      1  C   UNL     1     -10.653  16.278  65.069  0.00  0.00    +0.341 C 
ATOM      2  O   UNL     1     -11.461  16.718  64.229  0.00  0.00    -0.245 OA
ENDROOT
BRANCH   1   3
ATOM      3  C   UNL     1     -10.749  14.846  65.366  0.00  0.00    +0.076 A 
ATOM      4  C   UNL     1     -11.982  14.251  65.459  0.00  0.00    +0.008 A 
ATOM      5  C   UNL     1     -12.162  13.077  66.164  0.00  0.00    +0.015 A 
ATOM      6  C   UNL     1     -11.091  12.570  66.876  0.00  0.00    +0.048 A 
ATOM      7  C   UNL     1      -9.845  13.154  66.780  0.00  0.00    +0.015 A 
ATOM      8  C   UNL     1      -9.675  14.307  66.063  0.00  0.00    +0.008 A 
BRANCH   6   9
ATOM      9  N   UNL     1     -11.256  11.313  67.536  0.00  0.00    -0.304 N 
ATOM     10  C   UNL     1     -10.650  10.101  67.052  0.00  0.00    +0.112 C 
ATOM     11  C   UNL     1     -11.836  11.378  68.860  0.00  0.00    +0.112 C 
ENDBRANCH   6   9
ENDBRANCH   1   3
BRANCH   1  12
ATOM     12  O   UNL     1      -9.649  17.094  65.531  0.00  0.00    -0.445 OA
BRANCH  12  13
ATOM     13  C   UNL     1      -9.965  18.149  66.418  0.00  0.00    +0.209 C 
BRANCH  13  14
ATOM     14  C   UNL     1      -8.944  17.850  67.679  0.00  0.00    +0.044 C 
BRANCH  14  15
ATOM     15  C   UNL     1      -8.754  19.459  67.993  0.00  0.00    +0.004 C 
ATOM     16  C   UNL     1      -9.935  20.137  67.357  0.00  0.00    +0.000 C 
ENDBRANCH  14  15
BRANCH  14  17
ATOM     17  C   UNL     1     -10.201  17.732  68.739  0.00  0.00    +0.004 C 
BRANCH  17  18
ATOM     18  C   UNL     1     -10.281  16.264  69.056  0.00  0.00    +0.000 C 
BRANCH  18  20
ATOM     19  C   UNL     1     -12.069  14.898  69.921  0.00  0.00    +0.000 C 
ATOM     20  C   UNL     1     -11.723  15.819  68.854  0.00  0.00    +0.000 C 
ENDBRANCH  18  20
ENDBRANCH  17  18
ENDBRANCH  14  17
ENDBRANCH  13  14
ENDBRANCH  12  13
ENDBRANCH   1  12
TORSDOF 9
ENDMDL
MODEL 3
REMARK VINA RESULT:      -5.6      3.559      6.482
REMARK  Name = 
REMARK  9 active torsions:
REMARK  status: ('A' for Active; 'I' for Inactive)
REMARK    1  A    between atoms: C_2  and  C_3
REMARK    2  A    between atoms: C_3  and  C_4
REMARK    3  A    between atoms: C_4  and  C_5
REMARK    4  A    between atoms: C_5  and  C_6
REMARK    5  A    between atoms: C_5  and  C_8
REMARK    6  A    between atoms: C_8  and  O_9
REMARK    7  A    between atoms: O_9  and  C_10
REMARK    8  A    between atoms: C_10  and  C_12
REMARK    9  A    between atoms: C_15  and  N_16
REMARK                            x       y       z     vdW  Elec       q    Type
REMARK                         _______ _______ _______ _____ _____    ______ ____
ROOT
ATOM      1  C   UNL     1     -10.873  15.893  64.948  0.00  0.00    +0.341 C 
ATOM      2  O   UNL     1     -11.295  16.824  64.237  0.00  0.00    -0.245 OA
ENDROOT
BRANCH   1   3
ATOM      3  C   UNL     1     -10.096  16.283  66.127  0.00  0.00    +0.076 A 
ATOM      4  C   UNL     1     -10.273  17.529  66.677  0.00  0.00    +0.008 A 
ATOM      5  C   UNL     1      -9.294  18.116  67.455  0.00  0.00    +0.015 A 
ATOM      6  C   UNL     1      -8.078  17.470  67.575  0.00  0.00    +0.048 A 
ATOM      7  C   UNL     1      -7.894  16.214  67.036  0.00  0.00    +0.015 A 
ATOM      8  C   UNL     1      -8.878  15.633  66.283  0.00  0.00    +0.008 A 
BRANCH   6   9
ATOM      9  N   UNL     1      -7.097  18.037  68.447  0.00  0.00    -0.304 N 
ATOM     10  C   UNL     1      -7.172  19.397  68.913  0.00  0.00    +0.112 C 
ATOM     11  C   UNL     1      -6.180  17.093  69.048  0.00  0.00    +0.112 C 
ENDBRANCH   6   9
ENDBRANCH   1   3
BRANCH   1  12
ATOM     12  O   UNL     1     -11.283  14.607  64.688  0.00  0.00    -0.445 OA
BRANCH  12  13
ATOM     13  C   UNL     1     -12.592  14.210  65.045  0.00  0.00    +0.209 C 
BRANCH  13  14
ATOM     14  C   UNL     1     -12.477  12.565  64.989  0.00  0.00    +0.044 C 
BRANCH  14  15
ATOM     15  C   UNL     1     -11.626  12.607  63.576  0.00  0.00    +0.004 C 
ATOM     16  C   UNL     1     -10.849  11.321  63.534  0.00  0.00    +0.000 C 
ENDBRANCH  14  15
BRANCH  14  17
ATOM     17  C   UNL     1     -11.095  12.578  65.889  0.00  0.00    +0.004 C 
BRANCH  17  18
ATOM     18  C   UNL     1     -11.557  12.239  67.279  0.00  0.00    +0.000 C 
BRANCH  18  20
ATOM     19  C   UNL     1     -11.848  14.212  68.634  0.00  0.00    +0.000 C 
ATOM     20  C   UNL     1     -10.881  13.202  68.246  0.00  0.00    +0.000 C 
ENDBRANCH  18  20
ENDBRANCH  17  18
ENDBRANCH  14  17
ENDBRANCH  13  14
ENDBRANCH  12  13
ENDBRANCH   1  12
TORSDOF 9
ENDMDL
MODEL 4
REMARK VINA RESULT:      -5.4      3.276      5.561
REMARK  Name = 
REMARK  9 active torsions:
REMARK  status: ('A' for Active; 'I' for Inactive)
REMARK    1  A    between atoms: C_2  and  C_3
REMARK    2  A    between atoms: C_3  and  C_4
REMARK    3  A    between atoms: C_4  and  C_5
REMARK    4  A    between atoms: C_5  and  C_6
REMARK    5  A    between atoms: C_5  and  C_8
REMARK    6  A    between atoms: C_8  and  O_9
REMARK    7  A    between atoms: O_9  and  C_10
REMARK    8  A    between atoms: C_10  and  C_12
REMARK    9  A    between atoms: C_15  and  N_16
REMARK                            x       y       z     vdW  Elec       q    Type
REMARK                         _______ _______ _______ _____ _____    ______ ____
ROOT
ATOM      1  C   UNL     1     -12.256  13.515  65.880  0.00  0.00    +0.341 C 
ATOM      2  O   UNL     1     -13.235  13.973  65.262  0.00  0.00    -0.245 OA
ENDROOT
BRANCH   1   3
ATOM      3  C   UNL     1     -11.334  14.500  66.449  0.00  0.00    +0.076 A 
ATOM      4  C   UNL     1     -11.540  14.970  67.722  0.00  0.00    +0.008 A 
ATOM      5  C   UNL     1     -11.022  16.183  68.134  0.00  0.00    +0.015 A 
ATOM      6  C   UNL     1     -10.385  16.975  67.197  0.00  0.00    +0.048 A 
ATOM      7  C   UNL     1     -10.164  16.508  65.918  0.00  0.00    +0.015 A 
ATOM      8  C   UNL     1     -10.665  15.296  65.527  0.00  0.00    +0.008 A 
BRANCH   6   9
ATOM      9  N   UNL     1      -9.778  18.189  67.643  0.00  0.00    -0.304 N 
ATOM     10  C   UNL     1     -10.441  19.463  67.551  0.00  0.00    +0.112 C 
ATOM     11  C   UNL     1      -8.579  18.029  68.436  0.00  0.00    +0.112 C 
ENDBRANCH   6   9
ENDBRANCH   1   3
BRANCH   1  12
ATOM     12  O   UNL     1     -12.186  12.164  66.124  0.00  0.00    -0.445 OA
BRANCH  12  13
ATOM     13  C   UNL     1     -10.927  11.569  66.370  0.00  0.00    +0.209 C 
BRANCH  13  14
ATOM     14  C   UNL     1     -11.283  10.508  67.582  0.00  0.00    +0.044 C 
BRANCH  14  15
ATOM     15  C   UNL     1      -9.848   9.715  67.400  0.00  0.00    +0.004 C 
ATOM     16  C   UNL     1      -9.881   9.131  66.015  0.00  0.00    +0.000 C 
ENDBRANCH  14  15
BRANCH  14  17
ATOM     17  C   UNL     1     -10.648  11.515  68.723  0.00  0.00    +0.004 C 
BRANCH  17  18
ATOM     18  C   UNL     1     -11.770  11.716  69.704  0.00  0.00    +0.000 C 
BRANCH  18  20
ATOM     19  C   UNL     1     -12.957  10.627  71.497  0.00  0.00    +0.000 C 
ATOM     20  C   UNL     1     -11.778  10.528  70.656  0.00  0.00    +0.000 C 
ENDBRANCH  18  20
ENDBRANCH  17  18
ENDBRANCH  14  17
ENDBRANCH  13  14
ENDBRANCH  12  13
ENDBRANCH   1  12
TORSDOF 9
ENDMDL
MODEL 5
REMARK VINA RESULT:      -5.3      3.288      6.244
REMARK  Name = 
REMARK  9 active torsions:
REMARK  status: ('A' for Active; 'I' for Inactive)
REMARK    1  A    between atoms: C_2  and  C_3
REMARK    2  A    between atoms: C_3  and  C_4
REMARK    3  A    between atoms: C_4  and  C_5
REMARK    4  A    between atoms: C_5  and  C_6
REMARK    5  A    between atoms: C_5  and  C_8
REMARK    6  A    between atoms: C_8  and  O_9
REMARK    7  A    between atoms: O_9  and  C_10
REMARK    8  A    between atoms: C_10  and  C_12
REMARK    9  A    between atoms: C_15  and  N_16
REMARK                            x       y       z     vdW  Elec       q    Type
REMARK                         _______ _______ _______ _____ _____    ______ ____
ROOT
ATOM      1  C   UNL     1     -11.980  13.243  64.083  0.00  0.00    +0.341 C 
ATOM      2  O   UNL     1     -12.614  13.677  63.102  0.00  0.00    -0.245 OA
ENDROOT
BRANCH   1   3
ATOM      3  C   UNL     1     -11.666  14.218  65.130  0.00  0.00    +0.076 A 
ATOM      4  C   UNL     1     -10.471  14.892  65.098  0.00  0.00    +0.008 A 
ATOM      5  C   UNL     1      -9.927  15.447  66.240  0.00  0.00    +0.015 A 
ATOM      6  C   UNL     1     -10.556  15.208  67.448  0.00  0.00    +0.048 A 
ATOM      7  C   UNL     1     -11.763  14.541  67.490  0.00  0.00    +0.015 A 
ATOM      8  C   UNL     1     -12.303  14.013  66.348  0.00  0.00    +0.008 A 
BRANCH   6   9
ATOM      9  N   UNL     1     -10.040  15.850  68.615  0.00  0.00    -0.304 N 
ATOM     10  C   UNL     1      -8.731  16.447  68.653  0.00  0.00    +0.112 C 
ATOM     11  C   UNL     1     -11.005  16.105  69.662  0.00  0.00    +0.112 C 
ENDBRANCH   6   9
ENDBRANCH   1   3
BRANCH   1  12
ATOM     12  O   UNL     1     -11.760  11.891  64.199  0.00  0.00    -0.445 OA
BRANCH  12  13
ATOM     13  C   UNL     1     -10.453  11.383  64.016  0.00  0.00    +0.209 C 
BRANCH  13  14
ATOM     14  C   UNL     1     -10.284  10.399  65.330  0.00  0.00    +0.044 C 
BRANCH  14  15
ATOM     15  C   UNL     1      -8.948   9.669  64.694  0.00  0.00    +0.004 C 
ATOM     16  C   UNL     1      -8.788   8.384  65.457  0.00  0.00    +0.000 C 
ENDBRANCH  14  15
BRANCH  14  17
ATOM     17  C   UNL     1      -9.367  11.520  66.118  0.00  0.00    +0.004 C 
BRANCH  17  18
ATOM     18  C   UNL     1      -9.756  11.366  67.562  0.00  0.00    +0.000 C 
BRANCH  18  20
ATOM     19  C   UNL     1     -11.763  11.069  68.864  0.00  0.00    +0.000 C 
ATOM     20  C   UNL     1     -11.126  10.705  67.612  0.00  0.00    +0.000 C 
ENDBRANCH  18  20
ENDBRANCH  17  18
ENDBRANCH  14  17
ENDBRANCH  13  14
ENDBRANCH  12  13
ENDBRANCH   1  12
TORSDOF 9
ENDMDL
MODEL 6
REMARK VINA RESULT:      -5.3      2.374      4.237
REMARK  Name = 
REMARK  9 active torsions:
REMARK  status: ('A' for Active; 'I' for Inactive)
REMARK    1  A    between atoms: C_2  and  C_3
REMARK    2  A    between atoms: C_3  and  C_4
REMARK    3  A    between atoms: C_4  and  C_5
REMARK    4  A    between atoms: C_5  and  C_6
REMARK    5  A    between atoms: C_5  and  C_8
REMARK    6  A    between atoms: C_8  and  O_9
REMARK    7  A    between atoms: O_9  and  C_10
REMARK    8  A    between atoms: C_10  and  C_12
REMARK    9  A    between atoms: C_15  and  N_16
REMARK                            x       y       z     vdW  Elec       q    Type
REMARK                         _______ _______ _______ _____ _____    ______ ____
ROOT
ATOM      1  C   UNL     1     -11.959  14.564  69.271  0.00  0.00    +0.341 C 
ATOM      2  O   UNL     1     -12.031  14.065  70.410  0.00  0.00    -0.245 OA
ENDROOT
BRANCH   1   3
ATOM      3  C   UNL     1     -12.014  13.621  68.151  0.00  0.00    +0.076 A 
ATOM      4  C   UNL     1     -11.444  12.379  68.278  0.00  0.00    +0.008 A 
ATOM      5  C   UNL     1     -11.059  11.648  67.170  0.00  0.00    +0.015 A 
ATOM      6  C   UNL     1     -11.152  12.246  65.927  0.00  0.00    +0.048 A 
ATOM      7  C   UNL     1     -11.733  13.489  65.788  0.00  0.00    +0.015 A 
ATOM      8  C   UNL     1     -12.129  14.195  66.891  0.00  0.00    +0.008 A 
BRANCH   6   9
ATOM      9  N   UNL     1     -10.832  11.461  64.776  0.00  0.00    -0.304 N 
ATOM     10  C   UNL     1     -10.046  10.258  64.856  0.00  0.00    +0.112 C 
ATOM     11  C   UNL     1     -11.565  11.792  63.574  0.00  0.00    +0.112 C 
ENDBRANCH   6   9
ENDBRANCH   1   3
BRANCH   1  12
ATOM     12  O   UNL     1     -11.995  15.930  69.130  0.00  0.00    -0.445 OA
BRANCH  12  13
ATOM     13  C   UNL     1     -10.841  16.689  69.432  0.00  0.00    +0.209 C 
BRANCH  13  14
ATOM     14  C   UNL     1     -10.410  17.259  67.944  0.00  0.00    +0.044 C 
BRANCH  14  15
ATOM     15  C   UNL     1      -9.809  18.658  68.581  0.00  0.00    +0.004 C 
ATOM     16  C   UNL     1     -10.179  19.739  67.605  0.00  0.00    +0.000 C 
ENDBRANCH  14  15
BRANCH  14  17
ATOM     17  C   UNL     1      -8.939  16.520  68.028  0.00  0.00    +0.004 C 
BRANCH  17  18
ATOM     18  C   UNL     1      -8.834  15.758  66.736  0.00  0.00    +0.000 C 
BRANCH  18  20
ATOM     19  C   UNL     1      -8.268  14.201  68.488  0.00  0.00    +0.000 C 
ATOM     20  C   UNL     1      -8.258  14.383  67.048  0.00  0.00    +0.000 C 
ENDBRANCH  18  20
ENDBRANCH  17  18
ENDBRANCH  14  17
ENDBRANCH  13  14
ENDBRANCH  12  13
ENDBRANCH   1  12
TORSDOF 9
ENDMDL
MODEL 7
REMARK VINA RESULT:      -5.3      3.218      5.587
REMARK  Name = 
REMARK  9 active torsions:
REMARK  status: ('A' for Active; 'I' for Inactive)
REMARK    1  A    between atoms: C_2  and  C_3
REMARK    2  A    between atoms: C_3  and  C_4
REMARK    3  A    between atoms: C_4  and  C_5
REMARK    4  A    between atoms: C_5  and  C_6
REMARK    5  A    between atoms: C_5  and  C_8
REMARK    6  A    between atoms: C_8  and  O_9
REMARK    7  A    between atoms: O_9  and  C_10
REMARK    8  A    between atoms: C_10  and  C_12
REMARK    9  A    between atoms: C_15  and  N_16
REMARK                            x       y       z     vdW  Elec       q    Type
REMARK                         _______ _______ _______ _____ _____    ______ ____
ROOT
ATOM      1  C   UNL     1     -10.878  16.116  64.961  0.00  0.00    +0.341 C 
ATOM      2  O   UNL     1     -11.569  16.568  64.029  0.00  0.00    -0.245 OA
ENDROOT
BRANCH   1   3
ATOM      3  C   UNL     1     -11.143  14.728  65.345  0.00  0.00    +0.076 A 
ATOM      4  C   UNL     1     -12.009  14.460  66.376  0.00  0.00    +0.008 A 
ATOM      5  C   UNL     1     -11.951  13.267  67.072  0.00  0.00    +0.015 A 
ATOM      6  C   UNL     1     -10.922  12.390  66.783  0.00  0.00    +0.048 A 
ATOM      7  C   UNL     1     -10.054  12.645  65.742  0.00  0.00    +0.015 A 
ATOM      8  C   UNL     1     -10.133  13.821  65.047  0.00  0.00    +0.008 A 
BRANCH   6   9
ATOM      9  N   UNL     1     -10.913  11.123  67.444  0.00  0.00    -0.304 N 
ATOM     10  C   UNL     1     -11.616  10.889  68.678  0.00  0.00    +0.112 C 
ATOM     11  C   UNL     1     -10.386  10.022  66.668  0.00  0.00    +0.112 C 
ENDBRANCH   6   9
ENDBRANCH   1   3
BRANCH   1  12
ATOM     12  O   UNL     1      -9.833  16.864  65.449  0.00  0.00    -0.445 OA
BRANCH  12  13
ATOM     13  C   UNL     1      -9.485  16.760  66.816  0.00  0.00    +0.209 C 
BRANCH  13  14
ATOM     14  C   UNL     1     -10.585  17.765  67.525  0.00  0.00    +0.044 C 
BRANCH  14  15
ATOM     15  C   UNL     1     -10.722  16.790  68.848  0.00  0.00    +0.004 C 
ATOM     16  C   UNL     1      -9.513  15.897  68.821  0.00  0.00    +0.000 C 
ENDBRANCH  14  15
BRANCH  14  17
ATOM     17  C   UNL     1      -9.394  18.657  68.233  0.00  0.00    +0.004 C 
BRANCH  17  18
ATOM     18  C   UNL     1      -9.332  19.912  67.408  0.00  0.00    +0.000 C 
BRANCH  18  20
ATOM     19  C   UNL     1      -7.042  19.932  68.161  0.00  0.00    +0.000 C 
ATOM     20  C   UNL     1      -7.883  20.132  66.995  0.00  0.00    +0.000 C 
ENDBRANCH  18  20
ENDBRANCH  17  18
ENDBRANCH  14  17
ENDBRANCH  13  14
ENDBRANCH  12  13
ENDBRANCH   1  12
TORSDOF 9
ENDMDL
MODEL 8
REMARK VINA RESULT:      -5.3      2.576      6.515
REMARK  Name = 
REMARK  9 active torsions:
REMARK  status: ('A' for Active; 'I' for Inactive)
REMARK    1  A    between atoms: C_2  and  C_3
REMARK    2  A    between atoms: C_3  and  C_4
REMARK    3  A    between atoms: C_4  and  C_5
REMARK    4  A    between atoms: C_5  and  C_6
REMARK    5  A    between atoms: C_5  and  C_8
REMARK    6  A    between atoms: C_8  and  O_9
REMARK    7  A    between atoms: O_9  and  C_10
REMARK    8  A    between atoms: C_10  and  C_12
REMARK    9  A    between atoms: C_15  and  N_16
REMARK                            x       y       z     vdW  Elec       q    Type
REMARK                         _______ _______ _______ _____ _____    ______ ____
ROOT
ATOM      1  C   UNL     1     -10.629  14.946  67.020  0.00  0.00    +0.341 C 
ATOM      2  O   UNL     1      -9.417  15.178  67.186  0.00  0.00    -0.245 OA
ENDROOT
BRANCH   1   3
ATOM      3  C   UNL     1     -11.464  14.988  68.223  0.00  0.00    +0.076 A 
ATOM      4  C   UNL     1     -11.407  16.079  69.054  0.00  0.00    +0.008 A 
ATOM      5  C   UNL     1     -11.785  15.993  70.380  0.00  0.00    +0.015 A 
ATOM      6  C   UNL     1     -12.115  14.750  70.888  0.00  0.00    +0.048 A 
ATOM      7  C   UNL     1     -12.186  13.650  70.059  0.00  0.00    +0.015 A 
ATOM      8  C   UNL     1     -11.828  13.752  68.742  0.00  0.00    +0.008 A 
BRANCH   6   9
ATOM      9  N   UNL     1     -12.585  14.676  72.235  0.00  0.00    -0.304 N 
ATOM     10  C   UNL     1     -12.304  15.698  73.209  0.00  0.00    +0.112 C 
ATOM     11  C   UNL     1     -13.582  13.659  72.490  0.00  0.00    +0.112 C 
ENDBRANCH   6   9
ENDBRANCH   1   3
BRANCH   1  12
ATOM     12  O   UNL     1     -11.124  14.831  65.743  0.00  0.00    -0.445 OA
BRANCH  12  13
ATOM     13  C   UNL     1     -10.695  13.761  64.926  0.00  0.00    +0.209 C 
BRANCH  13  14
ATOM     14  C   UNL     1     -11.831  12.609  65.248  0.00  0.00    +0.044 C 
BRANCH  14  15
ATOM     15  C   UNL     1     -11.894  12.135  63.669  0.00  0.00    +0.004 C 
ATOM     16  C   UNL     1     -10.526  11.599  63.353  0.00  0.00    +0.000 C 
ENDBRANCH  14  15
BRANCH  14  17
ATOM     17  C   UNL     1     -10.674  11.488  65.600  0.00  0.00    +0.004 C 
BRANCH  17  18
ATOM     18  C   UNL     1     -11.093  10.930  66.931  0.00  0.00    +0.000 C 
BRANCH  18  20
ATOM     19  C   UNL     1      -8.884  11.698  67.516  0.00  0.00    +0.000 C 
ATOM     20  C   UNL     1      -9.832  10.620  67.727  0.00  0.00    +0.000 C 
ENDBRANCH  18  20
ENDBRANCH  17  18
ENDBRANCH  14  17
ENDBRANCH  13  14
ENDBRANCH  12  13
ENDBRANCH   1  12
TORSDOF 9
ENDMDL
MODEL 9
REMARK VINA RESULT:      -5.2      3.035      5.689
REMARK  Name = 
REMARK  9 active torsions:
REMARK  status: ('A' for Active; 'I' for Inactive)
REMARK    1  A    between atoms: C_2  and  C_3
REMARK    2  A    between atoms: C_3  and  C_4
REMARK    3  A    between atoms: C_4  and  C_5
REMARK    4  A    between atoms: C_5  and  C_6
REMARK    5  A    between atoms: C_5  and  C_8
REMARK    6  A    between atoms: C_8  and  O_9
REMARK    7  A    between atoms: O_9  and  C_10
REMARK    8  A    between atoms: C_10  and  C_12
REMARK    9  A    between atoms: C_15  and  N_16
REMARK                            x       y       z     vdW  Elec       q    Type
REMARK                         _______ _______ _______ _____ _____    ______ ____
ROOT
ATOM      1  C   UNL     1     -11.421  15.981  68.368  0.00  0.00    +0.341 C 
ATOM      2  O   UNL     1     -12.187  15.615  69.279  0.00  0.00    -0.245 OA
ENDROOT
BRANCH   1   3
ATOM      3  C   UNL     1     -11.069  14.963  67.375  0.00  0.00    +0.076 A 
ATOM      4  C   UNL     1     -10.667  15.347  66.120  0.00  0.00    +0.008 A 
ATOM      5  C   UNL     1     -10.767  14.492  65.039  0.00  0.00    +0.015 A 
ATOM      6  C   UNL     1     -11.394  13.274  65.225  0.00  0.00    +0.048 A 
ATOM      7  C   UNL     1     -11.791  12.874  66.484  0.00  0.00    +0.015 A 
ATOM      8  C   UNL     1     -11.668  13.722  67.551  0.00  0.00    +0.008 A 
BRANCH   6   9
ATOM      9  N   UNL     1     -11.423  12.358  64.129  0.00  0.00    -0.304 N 
ATOM     10  C   UNL     1     -12.642  11.998  63.454  0.00  0.00    +0.112 C 
ATOM     11  C   UNL     1     -10.133  12.025  63.563  0.00  0.00    +0.112 C 
ENDBRANCH   6   9
ENDBRANCH   1   3
BRANCH   1  12
ATOM     12  O   UNL     1     -11.093  17.311  68.257  0.00  0.00    -0.445 OA
BRANCH  12  13
ATOM     13  C   UNL     1      -9.837  17.757  68.731  0.00  0.00    +0.209 C 
BRANCH  13  14
ATOM     14  C   UNL     1      -9.188  18.445  67.380  0.00  0.00    +0.044 C 
BRANCH  14  15
ATOM     15  C   UNL     1     -10.441  19.510  67.240  0.00  0.00    +0.004 C 
ATOM     16  C   UNL     1     -10.628  19.724  65.764  0.00  0.00    +0.000 C 
ENDBRANCH  14  15
BRANCH  14  17
ATOM     17  C   UNL     1      -8.307  19.509  68.280  0.00  0.00    +0.004 C 
BRANCH  17  18
ATOM     18  C   UNL     1      -7.315  20.083  67.307  0.00  0.00    +0.000 C 
BRANCH  18  20
ATOM     19  C   UNL     1      -6.545  19.645  65.065  0.00  0.00    +0.000 C 
ATOM     20  C   UNL     1      -6.971  19.000  66.293  0.00  0.00    +0.000 C 
ENDBRANCH  18  20
ENDBRANCH  17  18
ENDBRANCH  14  17
ENDBRANCH  13  14
ENDBRANCH  12  13
ENDBRANCH   1  12
TORSDOF 9
ENDMDL
