MODEL 1
REMARK VINA RESULT:      -7.5      0.000      0.000
REMARK  Name = 
REMARK  7 active torsions:
REMARK  status: ('A' for Active; 'I' for Inactive)
REMARK    1  A    between atoms: C_2  and  C_4
REMARK    2  A    between atoms: C_4  and  C_5
REMARK    3  A    between atoms: C_5  and  N_6
REMARK    4  A    between atoms: C_7  and  C_9
REMARK    5  A    between atoms: C_12  and  N_13
REMARK    6  A    between atoms: N_14  and  C_15
REMARK    7  A    between atoms: C_20  and  C_21
REMARK                            x       y       z     vdW  Elec       q    Type
REMARK                         _______ _______ _______ _____ _____    ______ ____
ROOT
ATOM      1  C   UNL     1      -7.742  20.204  67.316  0.00  0.00    +0.055 A 
ATOM      2  C   UNL     1      -7.343  19.215  66.443  0.00  0.00    +0.006 A 
ATOM      3  C   UNL     1      -8.155  18.117  66.303  0.00  0.00    +0.021 A 
ATOM      4  C   UNL     1      -9.532  18.289  66.373  0.00  0.00    +0.103 A 
ATOM      5  C   UNL     1      -9.946  19.281  67.255  0.00  0.00    +0.021 A 
ATOM      6  C   UNL     1      -9.068  20.291  67.626  0.00  0.00    +0.006 A 
ENDROOT
BRANCH   1   8
ATOM      7  N   UNL     1      -6.090  20.585  69.095  0.00  0.00    -0.201 NA
ATOM      8  C   UNL     1      -6.712  21.072  67.900  0.00  0.00    +0.265 C 
ATOM      9  O   UNL     1      -5.912  21.587  67.061  0.00  0.00    -0.268 OA
BRANCH   7  10
ATOM     10  C   UNL     1      -4.712  20.941  69.422  0.00  0.00    +0.127 C 
BRANCH  10  11
ATOM     11  C   UNL     1      -4.255  19.986  70.513  0.00  0.00    +0.137 C 
BRANCH  11  13
ATOM     12  O   UNL     1      -3.194  20.351  72.643  0.00  0.00    -0.246 OA
ATOM     13  C   UNL     1      -3.890  20.813  71.695  0.00  0.00    +0.367 C 
ATOM     14  O   UNL     1      -4.414  22.104  71.794  0.00  0.00    -0.246 OA
ENDBRANCH  11  13
ENDBRANCH  10  11
ENDBRANCH   7  10
ENDBRANCH   1   8
BRANCH   4  15
ATOM     15  N   UNL     1     -10.372  17.191  66.025  0.00  0.00    -0.148 NA
ATOM     16  N   UNL     1     -10.151  16.392  65.081  0.00  0.00    -0.148 NA
BRANCH  16  17
ATOM     17  C   UNL     1     -10.225  14.966  65.215  0.00  0.00    +0.103 A 
ATOM     18  C   UNL     1     -11.253  14.240  64.622  0.00  0.00    +0.031 A 
ATOM     19  C   UNL     1     -11.633  12.990  65.086  0.00  0.00    +0.120 A 
ATOM     20  C   UNL     1     -11.391  12.731  66.427  0.00  0.00    +0.202 A 
ATOM     21  O   UNL     1     -12.062  11.683  67.041  0.00  0.00    -0.286 OA
ATOM     22  C   UNL     1     -10.381  13.418  67.084  0.00  0.00    +0.044 A 
ATOM     23  C   UNL     1      -9.710  14.411  66.381  0.00  0.00    +0.024 A 
BRANCH  19  24
ATOM     24  C   UNL     1     -12.138  11.944  64.188  0.00  0.00    +0.391 C 
ATOM     25  O   UNL     1     -11.174  11.152  63.567  0.00  0.00    -0.240 OA
ATOM     26  O   UNL     1     -13.209  12.113  63.533  0.00  0.00    -0.240 OA
ENDBRANCH  19  24
ENDBRANCH  16  17
ENDBRANCH   4  15
TORSDOF 7
ENDMDL
MODEL 2
REMARK VINA RESULT:      -7.3      3.390      4.251
REMARK  Name = 
REMARK  7 active torsions:
REMARK  status: ('A' for Active; 'I' for Inactive)
REMARK    1  A    between atoms: C_2  and  C_4
REMARK    2  A    between atoms: C_4  and  C_5
REMARK    3  A    between atoms: C_5  and  N_6
REMARK    4  A    between atoms: C_7  and  C_9
REMARK    5  A    between atoms: C_12  and  N_13
REMARK    6  A    between atoms: N_14  and  C_15
REMARK    7  A    between atoms: C_20  and  C_21
REMARK                            x       y       z     vdW  Elec       q    Type
REMARK                         _______ _______ _______ _____ _____    ______ ____
ROOT
ATOM      1  C   UNL     1      -8.011  19.755  67.664  0.00  0.00    +0.055 A 
ATOM      2  C   UNL     1      -7.551  18.501  67.323  0.00  0.00    +0.006 A 
ATOM      3  C   UNL     1      -8.384  17.432  67.540  0.00  0.00    +0.021 A 
ATOM      4  C   UNL     1      -9.751  17.601  67.363  0.00  0.00    +0.103 A 
ATOM      5  C   UNL     1     -10.227  18.860  67.710  0.00  0.00    +0.021 A 
ATOM      6  C   UNL     1      -9.360  19.945  67.746  0.00  0.00    +0.006 A 
ENDROOT
BRANCH   1   8
ATOM      7  N   UNL     1      -6.087  20.485  69.007  0.00  0.00    -0.201 NA
ATOM      8  C   UNL     1      -7.024  20.798  67.970  0.00  0.00    +0.265 C 
ATOM      9  O   UNL     1      -6.516  21.364  66.954  0.00  0.00    -0.268 OA
BRANCH   7  10
ATOM     10  C   UNL     1      -4.742  21.054  69.000  0.00  0.00    +0.127 C 
BRANCH  10  11
ATOM     11  C   UNL     1      -3.910  20.239  69.977  0.00  0.00    +0.137 C 
BRANCH  11  13
ATOM     12  O   UNL     1      -4.377  22.093  71.441  0.00  0.00    -0.246 OA
ATOM     13  C   UNL     1      -4.049  20.880  71.313  0.00  0.00    +0.367 C 
ATOM     14  O   UNL     1      -3.715  20.136  72.447  0.00  0.00    -0.246 OA
ENDBRANCH  11  13
ENDBRANCH  10  11
ENDBRANCH   7  10
ENDBRANCH   1   8
BRANCH   4  15
ATOM     15  N   UNL     1     -10.587  16.446  67.388  0.00  0.00    -0.148 NA
ATOM     16  N   UNL     1     -10.517  15.531  68.245  0.00  0.00    -0.148 NA
BRANCH  16  17
ATOM     17  C   UNL     1     -11.658  15.001  68.936  0.00  0.00    +0.103 A 
ATOM     18  C   UNL     1     -12.176  15.633  70.061  0.00  0.00    +0.031 A 
ATOM     19  C   UNL     1     -12.932  14.954  71.003  0.00  0.00    +0.120 A 
ATOM     20  C   UNL     1     -12.695  13.592  71.118  0.00  0.00    +0.202 A 
ATOM     21  O   UNL     1     -13.123  12.929  72.259  0.00  0.00    -0.286 OA
ATOM     22  C   UNL     1     -12.179  12.895  70.035  0.00  0.00    +0.044 A 
ATOM     23  C   UNL     1     -11.835  13.622  68.902  0.00  0.00    +0.024 A 
BRANCH  19  24
ATOM     24  C   UNL     1     -14.018  15.602  71.748  0.00  0.00    +0.391 C 
ATOM     25  O   UNL     1     -13.755  15.892  73.086  0.00  0.00    -0.240 OA
ATOM     26  O   UNL     1     -15.230  15.358  71.471  0.00  0.00    -0.240 OA
ENDBRANCH  19  24
ENDBRANCH  16  17
ENDBRANCH   4  15
TORSDOF 7
ENDMDL
MODEL 3
REMARK VINA RESULT:      -7.1      3.883      4.766
REMARK  Name = 
REMARK  7 active torsions:
REMARK  status: ('A' for Active; 'I' for Inactive)
REMARK    1  A    between atoms: C_2  and  C_4
REMARK    2  A    between atoms: C_4  and  C_5
REMARK    3  A    between atoms: C_5  and  N_6
REMARK    4  A    between atoms: C_7  and  C_9
REMARK    5  A    between atoms: C_12  and  N_13
REMARK    6  A    between atoms: N_14  and  C_15
REMARK    7  A    between atoms: C_20  and  C_21
REMARK                            x       y       z     vdW  Elec       q    Type
REMARK                         _______ _______ _______ _____ _____    ______ ____
ROOT
ATOM      1  C   UNL     1      -6.355  17.461  69.156  0.00  0.00    +0.055 A 
ATOM      2  C   UNL     1      -6.780  16.150  69.151  0.00  0.00    +0.006 A 
ATOM      3  C   UNL     1      -8.132  15.914  69.194  0.00  0.00    +0.021 A 
ATOM      4  C   UNL     1      -8.985  16.789  68.532  0.00  0.00    +0.103 A 
ATOM      5  C   UNL     1      -8.568  18.115  68.536  0.00  0.00    +0.021 A 
ATOM      6  C   UNL     1      -7.229  18.422  68.739  0.00  0.00    +0.006 A 
ENDROOT
BRANCH   1   8
ATOM      7  N   UNL     1      -4.389  18.937  69.138  0.00  0.00    -0.201 NA
ATOM      8  C   UNL     1      -5.005  17.752  69.657  0.00  0.00    +0.265 C 
ATOM      9  O   UNL     1      -4.853  17.582  70.905  0.00  0.00    -0.268 OA
BRANCH   7  10
ATOM     10  C   UNL     1      -3.426  19.691  69.934  0.00  0.00    +0.127 C 
BRANCH  10  11
ATOM     11  C   UNL     1      -4.077  21.021  70.277  0.00  0.00    +0.137 C 
BRANCH  11  13
ATOM     12  O   UNL     1      -3.674  20.212  72.509  0.00  0.00    -0.246 OA
ATOM     13  C   UNL     1      -4.043  21.159  71.759  0.00  0.00    +0.367 C 
ATOM     14  O   UNL     1      -4.521  22.340  72.330  0.00  0.00    -0.246 OA
ENDBRANCH  11  13
ENDBRANCH  10  11
ENDBRANCH   7  10
ENDBRANCH   1   8
BRANCH   4  15
ATOM     15  N   UNL     1     -10.359  16.430  68.405  0.00  0.00    -0.148 NA
ATOM     16  N   UNL     1     -10.782  15.257  68.258  0.00  0.00    -0.148 NA
BRANCH  16  17
ATOM     17  C   UNL     1     -11.859  14.700  69.024  0.00  0.00    +0.103 A 
ATOM     18  C   UNL     1     -12.358  15.354  70.145  0.00  0.00    +0.031 A 
ATOM     19  C   UNL     1     -13.032  14.678  71.151  0.00  0.00    +0.120 A 
ATOM     20  C   UNL     1     -12.718  13.336  71.311  0.00  0.00    +0.202 A 
ATOM     21  O   UNL     1     -13.056  12.703  72.498  0.00  0.00    -0.286 OA
ATOM     22  C   UNL     1     -12.215  12.620  70.234  0.00  0.00    +0.044 A 
ATOM     23  C   UNL     1     -11.963  13.314  69.057  0.00  0.00    +0.024 A 
BRANCH  19  24
ATOM     24  C   UNL     1     -14.116  15.301  71.919  0.00  0.00    +0.391 C 
ATOM     25  O   UNL     1     -15.344  15.413  71.268  0.00  0.00    -0.240 OA
ATOM     26  O   UNL     1     -13.870  16.202  72.775  0.00  0.00    -0.240 OA
ENDBRANCH  19  24
ENDBRANCH  16  17
ENDBRANCH   4  15
TORSDOF 7
ENDMDL
MODEL 4
REMARK VINA RESULT:      -7.1      5.460      9.772
REMARK  Name = 
REMARK  7 active torsions:
REMARK  status: ('A' for Active; 'I' for Inactive)
REMARK    1  A    between atoms: C_2  and  C_4
REMARK    2  A    between atoms: C_4  and  C_5
REMARK    3  A    between atoms: C_5  and  N_6
REMARK    4  A    between atoms: C_7  and  C_9
REMARK    5  A    between atoms: C_12  and  N_13
REMARK    6  A    between atoms: N_14  and  C_15
REMARK    7  A    between atoms: C_20  and  C_21
REMARK                            x       y       z     vdW  Elec       q    Type
REMARK                         _______ _______ _______ _____ _____    ______ ____
ROOT
ATOM      1  C   UNL     1     -12.758  10.905  71.302  0.00  0.00    +0.055 A 
ATOM      2  C   UNL     1     -11.879  11.279  70.308  0.00  0.00    +0.006 A 
ATOM      3  C   UNL     1     -11.983  12.552  69.805  0.00  0.00    +0.021 A 
ATOM      4  C   UNL     1     -12.339  13.584  70.664  0.00  0.00    +0.103 A 
ATOM      5  C   UNL     1     -13.231  13.219  71.667  0.00  0.00    +0.021 A 
ATOM      6  C   UNL     1     -13.342  11.888  72.046  0.00  0.00    +0.006 A 
ENDROOT
BRANCH   1   8
ATOM      7  N   UNL     1     -12.014   8.574  71.066  0.00  0.00    -0.201 NA
ATOM      8  C   UNL     1     -13.053   9.476  71.467  0.00  0.00    +0.265 C 
ATOM      9  O   UNL     1     -13.621   9.173  72.560  0.00  0.00    -0.268 OA
BRANCH   7  10
ATOM     10  C   UNL     1     -11.859   7.274  71.712  0.00  0.00    +0.127 C 
BRANCH  10  11
ATOM     11  C   UNL     1     -10.374   6.948  71.702  0.00  0.00    +0.137 C 
BRANCH  11  13
ATOM     12  O   UNL     1     -10.128   7.044  74.095  0.00  0.00    -0.246 OA
ATOM     13  C   UNL     1      -9.796   7.491  72.961  0.00  0.00    +0.367 C 
ATOM     14  O   UNL     1      -8.933   8.586  72.881  0.00  0.00    -0.246 OA
ENDBRANCH  11  13
ENDBRANCH  10  11
ENDBRANCH   7  10
ENDBRANCH   1   8
BRANCH   4  15
ATOM     15  N   UNL     1     -12.247  14.925  70.189  0.00  0.00    -0.148 NA
ATOM     16  N   UNL     1     -11.173  15.511  69.905  0.00  0.00    -0.148 NA
BRANCH  16  17
ATOM     17  C   UNL     1     -10.967  16.247  68.691  0.00  0.00    +0.103 A 
ATOM     18  C   UNL     1     -10.895  15.600  67.461  0.00  0.00    +0.031 A 
ATOM     19  C   UNL     1     -10.253  16.166  66.370  0.00  0.00    +0.120 A 
ATOM     20  C   UNL     1      -9.237  17.067  66.651  0.00  0.00    +0.202 A 
ATOM     21  O   UNL     1      -8.321  17.381  65.657  0.00  0.00    -0.286 OA
ATOM     22  C   UNL     1      -9.244  17.749  67.860  0.00  0.00    +0.044 A 
ATOM     23  C   UNL     1     -10.233  17.424  68.780  0.00  0.00    +0.024 A 
BRANCH  19  24
ATOM     24  C   UNL     1     -10.704  15.934  64.993  0.00  0.00    +0.391 C 
ATOM     25  O   UNL     1     -11.296  17.021  64.351  0.00  0.00    -0.240 OA
ATOM     26  O   UNL     1     -11.121  14.794  64.630  0.00  0.00    -0.240 OA
ENDBRANCH  19  24
ENDBRANCH  16  17
ENDBRANCH   4  15
TORSDOF 7
ENDMDL
MODEL 5
REMARK VINA RESULT:      -7.1      1.002      2.058
REMARK  Name = 
REMARK  7 active torsions:
REMARK  status: ('A' for Active; 'I' for Inactive)
REMARK    1  A    between atoms: C_2  and  C_4
REMARK    2  A    between atoms: C_4  and  C_5
REMARK    3  A    between atoms: C_5  and  N_6
REMARK    4  A    between atoms: C_7  and  C_9
REMARK    5  A    between atoms: C_12  and  N_13
REMARK    6  A    between atoms: N_14  and  C_15
REMARK    7  A    between atoms: C_20  and  C_21
REMARK                            x       y       z     vdW  Elec       q    Type
REMARK                         _______ _______ _______ _____ _____    ______ ____
ROOT
ATOM      1  C   UNL     1      -8.154  19.709  67.456  0.00  0.00    +0.055 A 
ATOM      2  C   UNL     1      -7.743  18.671  66.648  0.00  0.00    +0.006 A 
ATOM      3  C   UNL     1      -8.673  17.725  66.295  0.00  0.00    +0.021 A 
ATOM      4  C   UNL     1      -9.986  18.125  66.079  0.00  0.00    +0.103 A 
ATOM      5  C   UNL     1     -10.413  19.168  66.893  0.00  0.00    +0.021 A 
ATOM      6  C   UNL     1      -9.484  20.015  67.482  0.00  0.00    +0.006 A 
ENDROOT
BRANCH   1   8
ATOM      7  N   UNL     1      -6.679  19.662  69.421  0.00  0.00    -0.201 NA
ATOM      8  C   UNL     1      -7.147  20.390  68.280  0.00  0.00    +0.265 C 
ATOM      9  O   UNL     1      -6.239  20.985  67.625  0.00  0.00    -0.268 OA
BRANCH   7  10
ATOM     10  C   UNL     1      -5.326  19.859  69.933  0.00  0.00    +0.127 C 
BRANCH  10  11
ATOM     11  C   UNL     1      -5.430  19.924  71.448  0.00  0.00    +0.137 C 
BRANCH  11  13
ATOM     12  O   UNL     1      -3.349  20.293  72.602  0.00  0.00    -0.246 OA
ATOM     13  C   UNL     1      -4.305  20.772  71.930  0.00  0.00    +0.367 C 
ATOM     14  O   UNL     1      -4.365  22.149  71.706  0.00  0.00    -0.246 OA
ENDBRANCH  11  13
ENDBRANCH  10  11
ENDBRANCH   7  10
ENDBRANCH   1   8
BRANCH   4  15
ATOM     15  N   UNL     1     -10.898  17.185  65.517  0.00  0.00    -0.148 NA
ATOM     16  N   UNL     1     -10.563  16.146  64.896  0.00  0.00    -0.148 NA
BRANCH  16  17
ATOM     17  C   UNL     1     -11.122  14.850  65.155  0.00  0.00    +0.103 A 
ATOM     18  C   UNL     1     -10.499  13.959  66.022  0.00  0.00    +0.031 A 
ATOM     19  C   UNL     1     -10.715  12.591  65.950  0.00  0.00    +0.120 A 
ATOM     20  C   UNL     1     -11.079  12.089  64.708  0.00  0.00    +0.202 A 
ATOM     21  O   UNL     1     -10.949  10.729  64.468  0.00  0.00    -0.286 OA
ATOM     22  C   UNL     1     -11.705  12.923  63.792  0.00  0.00    +0.044 A 
ATOM     23  C   UNL     1     -11.857  14.261  64.133  0.00  0.00    +0.024 A 
BRANCH  19  24
ATOM     24  C   UNL     1     -10.694  11.733  67.140  0.00  0.00    +0.391 C 
ATOM     25  O   UNL     1     -11.937  11.333  67.629  0.00  0.00    -0.240 OA
ATOM     26  O   UNL     1      -9.779  11.850  68.009  0.00  0.00    -0.240 OA
ENDBRANCH  19  24
ENDBRANCH  16  17
ENDBRANCH   4  15
TORSDOF 7
ENDMDL
MODEL 6
REMARK VINA RESULT:      -7.0      6.278      9.448
REMARK  Name = 
REMARK  7 active torsions:
REMARK  status: ('A' for Active; 'I' for Inactive)
REMARK    1  A    between atoms: C_2  and  C_4
REMARK    2  A    between atoms: C_4  and  C_5
REMARK    3  A    between atoms: C_5  and  N_6
REMARK    4  A    between atoms: C_7  and  C_9
REMARK    5  A    between atoms: C_12  and  N_13
REMARK    6  A    between atoms: N_14  and  C_15
REMARK    7  A    between atoms: C_20  and  C_21
REMARK                            x       y       z     vdW  Elec       q    Type
REMARK                         _______ _______ _______ _____ _____    ______ ____
ROOT
ATOM      1  C   UNL     1     -11.884  14.105  69.760  0.00  0.00    +0.055 A 
ATOM      2  C   UNL     1     -11.747  12.862  69.178  0.00  0.00    +0.006 A 
ATOM      3  C   UNL     1     -11.864  11.760  69.987  0.00  0.00    +0.021 A 
ATOM      4  C   UNL     1     -12.768  11.796  71.042  0.00  0.00    +0.103 A 
ATOM      5  C   UNL     1     -12.909  13.043  71.640  0.00  0.00    +0.021 A 
ATOM      6  C   UNL     1     -12.565  14.192  70.939  0.00  0.00    +0.006 A 
ENDROOT
BRANCH   1   8
ATOM      7  N   UNL     1     -10.414  14.945  67.978  0.00  0.00    -0.201 NA
ATOM      8  C   UNL     1     -11.245  15.253  69.104  0.00  0.00    +0.265 C 
ATOM      9  O   UNL     1     -11.998  16.261  68.943  0.00  0.00    -0.268 OA
BRANCH   7  10
ATOM     10  C   UNL     1     -10.247  15.900  66.886  0.00  0.00    +0.127 C 
BRANCH  10  11
ATOM     11  C   UNL     1     -10.171  15.093  65.600  0.00  0.00    +0.137 C 
BRANCH  11  13
ATOM     12  O   UNL     1     -11.275  16.778  64.280  0.00  0.00    -0.246 OA
ATOM     13  C   UNL     1     -11.253  15.589  64.706  0.00  0.00    +0.367 C 
ATOM     14  O   UNL     1     -12.317  14.734  64.410  0.00  0.00    -0.246 OA
ENDBRANCH  11  13
ENDBRANCH  10  11
ENDBRANCH   7  10
ENDBRANCH   1   8
BRANCH   4  15
ATOM     15  N   UNL     1     -13.035  10.587  71.748  0.00  0.00    -0.148 NA
ATOM     16  N   UNL     1     -13.112   9.451  71.219  0.00  0.00    -0.148 NA
BRANCH  16  17
ATOM     17  C   UNL     1     -12.439   8.290  71.727  0.00  0.00    +0.103 A 
ATOM     18  C   UNL     1     -11.254   8.403  72.447  0.00  0.00    +0.031 A 
ATOM     19  C   UNL     1     -10.351   7.356  72.546  0.00  0.00    +0.120 A 
ATOM     20  C   UNL     1     -10.352   6.441  71.503  0.00  0.00    +0.202 A 
ATOM     21  O   UNL     1      -9.257   5.604  71.342  0.00  0.00    -0.286 OA
ATOM     22  C   UNL     1     -11.499   6.275  70.741  0.00  0.00    +0.044 A 
ATOM     23  C   UNL     1     -12.578   7.110  71.006  0.00  0.00    +0.024 A 
BRANCH  19  24
ATOM     24  C   UNL     1      -9.531   7.143  73.744  0.00  0.00    +0.391 C 
ATOM     25  O   UNL     1     -10.123   6.406  74.769  0.00  0.00    -0.240 OA
ATOM     26  O   UNL     1      -8.686   8.011  74.115  0.00  0.00    -0.240 OA
ENDBRANCH  19  24
ENDBRANCH  16  17
ENDBRANCH   4  15
TORSDOF 7
ENDMDL
MODEL 7
REMARK VINA RESULT:      -7.0      6.730     11.077
REMARK  Name = 
REMARK  7 active torsions:
REMARK  status: ('A' for Active; 'I' for Inactive)
REMARK    1  A    between atoms: C_2  and  C_4
REMARK    2  A    between atoms: C_4  and  C_5
REMARK    3  A    between atoms: C_5  and  N_6
REMARK    4  A    between atoms: C_7  and  C_9
REMARK    5  A    between atoms: C_12  and  N_13
REMARK    6  A    between atoms: N_14  and  C_15
REMARK    7  A    between atoms: C_20  and  C_21
REMARK                            x       y       z     vdW  Elec       q    Type
REMARK                         _______ _______ _______ _____ _____    ______ ____
ROOT
ATOM      1  C   UNL     1     -11.019   8.877  71.790  0.00  0.00    +0.055 A 
ATOM      2  C   UNL     1     -10.148   9.324  70.819  0.00  0.00    +0.006 A 
ATOM      3  C   UNL     1     -10.681   9.931  69.710  0.00  0.00    +0.021 A 
ATOM      4  C   UNL     1     -11.817  10.718  69.858  0.00  0.00    +0.103 A 
ATOM      5  C   UNL     1     -12.705  10.273  70.830  0.00  0.00    +0.021 A 
ATOM      6  C   UNL     1     -12.259   9.443  71.850  0.00  0.00    +0.006 A 
ENDROOT
BRANCH   1   8
ATOM      7  N   UNL     1     -10.561   6.479  72.077  0.00  0.00    -0.201 NA
ATOM      8  C   UNL     1     -10.580   7.785  72.667  0.00  0.00    +0.265 C 
ATOM      9  O   UNL     1      -9.570   8.052  73.386  0.00  0.00    -0.268 OA
BRANCH   7  10
ATOM     10  C   UNL     1      -9.611   5.466  72.527  0.00  0.00    +0.127 C 
BRANCH  10  11
ATOM     11  C   UNL     1     -10.398   4.184  72.741  0.00  0.00    +0.137 C 
BRANCH  11  13
ATOM     12  O   UNL     1     -10.519   4.958  75.018  0.00  0.00    -0.246 OA
ATOM     13  C   UNL     1     -10.526   3.986  74.211  0.00  0.00    +0.367 C 
ATOM     14  O   UNL     1     -10.561   2.681  74.707  0.00  0.00    -0.246 OA
ENDBRANCH  11  13
ENDBRANCH  10  11
ENDBRANCH   7  10
ENDBRANCH   1   8
BRANCH   4  15
ATOM     15  N   UNL     1     -12.244  11.508  68.751  0.00  0.00    -0.148 NA
ATOM     16  N   UNL     1     -11.761  12.624  68.438  0.00  0.00    -0.148 NA
BRANCH  16  17
ATOM     17  C   UNL     1     -11.364  12.972  67.104  0.00  0.00    +0.103 A 
ATOM     18  C   UNL     1     -11.467  14.279  66.640  0.00  0.00    +0.031 A 
ATOM     19  C   UNL     1     -11.550  14.575  65.289  0.00  0.00    +0.120 A 
ATOM     20  C   UNL     1     -12.088  13.589  64.473  0.00  0.00    +0.202 A 
ATOM     21  O   UNL     1     -12.542  13.936  63.209  0.00  0.00    -0.286 OA
ATOM     22  C   UNL     1     -12.021  12.262  64.872  0.00  0.00    +0.044 A 
ATOM     23  C   UNL     1     -11.492  11.990  66.128  0.00  0.00    +0.024 A 
BRANCH  19  24
ATOM     24  C   UNL     1     -10.982  15.804  64.722  0.00  0.00    +0.391 C 
ATOM     25  O   UNL     1      -9.967  16.408  65.462  0.00  0.00    -0.240 OA
ATOM     26  O   UNL     1     -11.697  16.591  64.033  0.00  0.00    -0.240 OA
ENDBRANCH  19  24
ENDBRANCH  16  17
ENDBRANCH   4  15
TORSDOF 7
ENDMDL
MODEL 8
REMARK VINA RESULT:      -7.0      6.640     10.479
REMARK  Name = 
REMARK  7 active torsions:
REMARK  status: ('A' for Active; 'I' for Inactive)
REMARK    1  A    between atoms: C_2  and  C_4
REMARK    2  A    between atoms: C_4  and  C_5
REMARK    3  A    between atoms: C_5  and  N_6
REMARK    4  A    between atoms: C_7  and  C_9
REMARK    5  A    between atoms: C_12  and  N_13
REMARK    6  A    between atoms: N_14  and  C_15
REMARK    7  A    between atoms: C_20  and  C_21
REMARK                            x       y       z     vdW  Elec       q    Type
REMARK                         _______ _______ _______ _____ _____    ______ ____
ROOT
ATOM      1  C   UNL     1     -11.699  12.836  68.306  0.00  0.00    +0.055 A 
ATOM      2  C   UNL     1     -11.629  11.481  68.060  0.00  0.00    +0.006 A 
ATOM      3  C   UNL     1     -11.479  10.641  69.135  0.00  0.00    +0.021 A 
ATOM      4  C   UNL     1     -12.105  10.967  70.332  0.00  0.00    +0.103 A 
ATOM      5  C   UNL     1     -12.176  12.331  70.593  0.00  0.00    +0.021 A 
ATOM      6  C   UNL     1     -12.082  13.244  69.551  0.00  0.00    +0.006 A 
ENDROOT
BRANCH   1   8
ATOM      7  N   UNL     1     -10.358  13.252  66.289  0.00  0.00    -0.201 NA
ATOM      8  C   UNL     1     -11.309  13.759  67.232  0.00  0.00    +0.265 C 
ATOM      9  O   UNL     1     -12.268  14.410  66.716  0.00  0.00    -0.268 OA
BRANCH   7  10
ATOM     10  C   UNL     1     -10.352  13.718  64.905  0.00  0.00    +0.127 C 
BRANCH  10  11
ATOM     11  C   UNL     1     -10.761  12.540  64.037  0.00  0.00    +0.137 C 
BRANCH  11  13
ATOM     12  O   UNL     1     -12.923  11.842  63.240  0.00  0.00    -0.246 OA
ATOM     13  C   UNL     1     -12.160  12.784  63.594  0.00  0.00    +0.367 C 
ATOM     14  O   UNL     1     -12.604  14.104  63.484  0.00  0.00    -0.246 OA
ENDBRANCH  11  13
ENDBRANCH  10  11
ENDBRANCH   7  10
ENDBRANCH   1   8
BRANCH   4  15
ATOM     15  N   UNL     1     -12.118   9.998  71.377  0.00  0.00    -0.148 NA
ATOM     16  N   UNL     1     -12.799   8.943  71.366  0.00  0.00    -0.148 NA
BRANCH  16  17
ATOM     17  C   UNL     1     -12.267   7.650  71.687  0.00  0.00    +0.103 A 
ATOM     18  C   UNL     1     -11.417   7.472  72.773  0.00  0.00    +0.031 A 
ATOM     19  C   UNL     1     -10.535   6.405  72.849  0.00  0.00    +0.120 A 
ATOM     20  C   UNL     1     -10.111   5.868  71.642  0.00  0.00    +0.202 A 
ATOM     21  O   UNL     1      -8.974   5.073  71.621  0.00  0.00    -0.286 OA
ATOM     22  C   UNL     1     -10.908   6.008  70.515  0.00  0.00    +0.044 A 
ATOM     23  C   UNL     1     -12.066   6.767  70.632  0.00  0.00    +0.024 A 
BRANCH  19  24
ATOM     24  C   UNL     1     -10.169   5.783  74.127  0.00  0.00    +0.391 C 
ATOM     25  O   UNL     1     -10.873   4.630  74.472  0.00  0.00    -0.240 OA
ATOM     26  O   UNL     1      -9.769   6.489  75.101  0.00  0.00    -0.240 OA
ENDBRANCH  19  24
ENDBRANCH  16  17
ENDBRANCH   4  15
TORSDOF 7
ENDMDL
MODEL 9
REMARK VINA RESULT:      -6.7      4.589      6.620
REMARK  Name = 
REMARK  7 active torsions:
REMARK  status: ('A' for Active; 'I' for Inactive)
REMARK    1  A    between atoms: C_2  and  C_4
REMARK    2  A    between atoms: C_4  and  C_5
REMARK    3  A    between atoms: C_5  and  N_6
REMARK    4  A    between atoms: C_7  and  C_9
REMARK    5  A    between atoms: C_12  and  N_13
REMARK    6  A    between atoms: N_14  and  C_15
REMARK    7  A    between atoms: C_20  and  C_21
REMARK                            x       y       z     vdW  Elec       q    Type
REMARK                         _______ _______ _______ _____ _____    ______ ____
ROOT
ATOM      1  C   UNL     1     -10.525  15.550  66.551  0.00  0.00    +0.055 A 
ATOM      2  C   UNL     1     -10.055  15.095  67.765  0.00  0.00    +0.006 A 
ATOM      3  C   UNL     1     -10.756  14.096  68.391  0.00  0.00    +0.021 A 
ATOM      4  C   UNL     1     -11.361  13.115  67.616  0.00  0.00    +0.103 A 
ATOM      5  C   UNL     1     -11.845  13.563  66.391  0.00  0.00    +0.021 A 
ATOM      6  C   UNL     1     -11.333  14.723  65.825  0.00  0.00    +0.006 A 
ENDROOT
BRANCH   1   8
ATOM      7  N   UNL     1     -10.613  17.964  67.002  0.00  0.00    -0.201 NA
ATOM      8  C   UNL     1     -10.172  16.913  66.135  0.00  0.00    +0.265 C 
ATOM      9  O   UNL     1      -8.986  17.047  65.705  0.00  0.00    -0.268 OA
BRANCH   7  10
ATOM     10  C   UNL     1      -9.861  19.210  67.113  0.00  0.00    +0.127 C 
BRANCH  10  11
ATOM     11  C   UNL     1      -9.284  19.257  68.519  0.00  0.00    +0.137 C 
BRANCH  11  13
ATOM     12  O   UNL     1      -7.069  19.622  69.389  0.00  0.00    -0.246 OA
ATOM     13  C   UNL     1      -7.813  19.444  68.385  0.00  0.00    +0.367 C 
ATOM     14  O   UNL     1      -7.264  19.515  67.102  0.00  0.00    -0.246 OA
ENDBRANCH  11  13
ENDBRANCH  10  11
ENDBRANCH   7  10
ENDBRANCH   1   8
BRANCH   4  15
ATOM     15  N   UNL     1     -11.910  11.974  68.271  0.00  0.00    -0.148 NA
ATOM     16  N   UNL     1     -11.234  11.070  68.820  0.00  0.00    -0.148 NA
BRANCH  16  17
ATOM     17  C   UNL     1     -11.500  10.567  70.137  0.00  0.00    +0.103 A 
ATOM     18  C   UNL     1     -11.537   9.201  70.392  0.00  0.00    +0.031 A 
ATOM     19  C   UNL     1     -12.225   8.674  71.474  0.00  0.00    +0.120 A 
ATOM     20  C   UNL     1     -13.299   9.416  71.944  0.00  0.00    +0.202 A 
ATOM     21  O   UNL     1     -14.241   8.799  72.753  0.00  0.00    -0.286 OA
ATOM     22  C   UNL     1     -13.328  10.786  71.726  0.00  0.00    +0.044 A 
ATOM     23  C   UNL     1     -12.311  11.341  70.959  0.00  0.00    +0.024 A 
BRANCH  19  24
ATOM     24  C   UNL     1     -11.770   7.468  72.176  0.00  0.00    +0.391 C 
ATOM     25  O   UNL     1     -10.872   7.669  73.223  0.00  0.00    -0.240 OA
ATOM     26  O   UNL     1     -11.652   6.365  71.562  0.00  0.00    -0.240 OA
ENDBRANCH  19  24
ENDBRANCH  16  17
ENDBRANCH   4  15
TORSDOF 7
ENDMDL
