MODEL 1
REMARK VINA RESULT:      -7.7      0.000      0.000
REMARK  Name = 
REMARK  5 active torsions:
REMARK  status: ('A' for Active; 'I' for Inactive)
REMARK    1  A    between atoms: O_2  and  C_3
REMARK    2  A    between atoms: C_8  and  O_9
REMARK    3  A    between atoms: O_9  and  C_10
REMARK    4  A    between atoms: C_10  and  C_11
REMARK    5  A    between atoms: N_22  and  C_23
REMARK                            x       y       z     vdW  Elec       q    Type
REMARK                         _______ _______ _______ _____ _____    ______ ____
ROOT
ATOM      1  C   UNL     1     -11.455  14.978  69.069  0.00  0.00    +0.173 A 
ATOM      2  C   UNL     1     -11.184  16.042  68.216  0.00  0.00    +0.174 A 
ATOM      3  C   UNL     1     -10.748  15.780  66.923  0.00  0.00    +0.059 A 
ATOM      4  C   UNL     1     -11.224  14.636  66.336  0.00  0.00    +0.089 A 
ATOM      5  N   UNL     1     -11.087  14.336  65.036  0.00  0.00    -0.224 NA
ATOM      6  C   UNL     1     -11.828  13.320  64.533  0.00  0.00    +0.200 A 
ATOM      7  N   UNL     1     -12.184  12.279  65.323  0.00  0.00    -0.205 NA
ATOM      8  C   UNL     1     -11.844  12.349  66.616  0.00  0.00    +0.166 A 
ATOM      9  N   UNL     1     -11.934  11.357  67.439  0.00  0.00    -0.224 NA
ATOM     10  C   UNL     1     -11.539  13.579  67.179  0.00  0.00    +0.057 A 
ATOM     11  C   UNL     1     -11.380  13.691  68.552  0.00  0.00    +0.045 A 
ENDROOT
BRANCH   9  12
ATOM     12  C   UNL     1     -11.084  11.302  68.598  0.00  0.00    +0.110 A 
ATOM     13  C   UNL     1     -11.659  10.610  69.663  0.00  0.00    +0.158 A 
ATOM     14  F   UNL     1     -13.015  10.643  69.822  0.00  0.00    -0.203 F 
ATOM     15  C   UNL     1     -10.871   9.965  70.609  0.00  0.00    +0.038 A 
ATOM     16  C   UNL     1      -9.627   9.520  70.239  0.00  0.00    +0.037 A 
ATOM     17 BR   UNL     1      -8.849   7.930  70.978  0.00  0.00    -0.049 Br
ATOM     18  C   UNL     1      -8.999  10.220  69.219  0.00  0.00    +0.008 A 
ATOM     19  C   UNL     1      -9.793  10.862  68.306  0.00  0.00    +0.022 A 
ENDBRANCH   9  12
BRANCH   1  21
ATOM     20  C   UNL     1     -12.960  15.456  70.963  0.00  0.00    +0.253 C 
ATOM     21  O   UNL     1     -11.675  15.241  70.404  0.00  0.00    -0.468 OA
ENDBRANCH   1  21
BRANCH   2  22
ATOM     22  O   UNL     1     -10.950  17.332  68.698  0.00  0.00    -0.472 OA
BRANCH  22  23
ATOM     23  C   UNL     1      -9.671  17.724  69.123  0.00  0.00    +0.206 C 
BRANCH  23  24
ATOM     24  C   UNL     1      -9.269  19.091  68.644  0.00  0.00    +0.047 C 
ATOM     25  C   UNL     1      -9.924  19.460  67.332  0.00  0.00    +0.021 C 
ATOM     26  C   UNL     1      -9.016  19.246  66.153  0.00  0.00    +0.072 C 
ATOM     27  N   UNL     1      -7.821  20.050  66.210  0.00  0.00    -0.272 NA
ATOM     28  C   UNL     1      -6.789  19.439  65.411  0.00  0.00    +0.090 C 
ATOM     29  C   UNL     1      -7.396  20.350  67.558  0.00  0.00    +0.072 C 
ATOM     30  C   UNL     1      -7.780  19.270  68.536  0.00  0.00    +0.021 C 
ENDBRANCH  23  24
ENDBRANCH  22  23
ENDBRANCH   2  22
TORSDOF 5
ENDMDL
MODEL 2
REMARK VINA RESULT:      -7.7      3.944      8.422
REMARK  Name = 
REMARK  5 active torsions:
REMARK  status: ('A' for Active; 'I' for Inactive)
REMARK    1  A    between atoms: O_2  and  C_3
REMARK    2  A    between atoms: C_8  and  O_9
REMARK    3  A    between atoms: O_9  and  C_10
REMARK    4  A    between atoms: C_10  and  C_11
REMARK    5  A    between atoms: N_22  and  C_23
REMARK                            x       y       z     vdW  Elec       q    Type
REMARK                         _______ _______ _______ _____ _____    ______ ____
ROOT
ATOM      1  C   UNL     1     -12.339  11.753  69.620  0.00  0.00    +0.173 A 
ATOM      2  C   UNL     1     -12.875  11.155  70.754  0.00  0.00    +0.174 A 
ATOM      3  C   UNL     1     -12.959  11.889  71.931  0.00  0.00    +0.059 A 
ATOM      4  C   UNL     1     -13.167  13.238  71.799  0.00  0.00    +0.089 A 
ATOM      5  N   UNL     1     -13.485  14.060  72.809  0.00  0.00    -0.224 NA
ATOM      6  C   UNL     1     -13.925  15.305  72.506  0.00  0.00    +0.200 A 
ATOM      7  N   UNL     1     -13.493  15.925  71.382  0.00  0.00    -0.205 NA
ATOM      8  C   UNL     1     -12.697  15.225  70.565  0.00  0.00    +0.166 A 
ATOM      9  N   UNL     1     -12.050  15.741  69.572  0.00  0.00    -0.224 NA
ATOM     10  C   UNL     1     -12.673  13.842  70.650  0.00  0.00    +0.057 A 
ATOM     11  C   UNL     1     -12.008  13.100  69.685  0.00  0.00    +0.045 A 
ENDROOT
BRANCH   9  12
ATOM     12  C   UNL     1     -10.842  15.123  69.098  0.00  0.00    +0.110 A 
ATOM     13  C   UNL     1     -10.737  15.127  67.707  0.00  0.00    +0.158 A 
ATOM     14  F   UNL     1     -11.874  15.049  66.955  0.00  0.00    -0.203 F 
ATOM     15  C   UNL     1      -9.497  15.118  67.080  0.00  0.00    +0.038 A 
ATOM     16  C   UNL     1      -8.421  15.658  67.740  0.00  0.00    +0.037 A 
ATOM     17 BR   UNL     1      -6.998  16.553  66.814  0.00  0.00    -0.049 Br
ATOM     18  C   UNL     1      -8.464  15.622  69.126  0.00  0.00    +0.008 A 
ATOM     19  C   UNL     1      -9.696  15.614  69.724  0.00  0.00    +0.022 A 
ENDBRANCH   9  12
BRANCH   1  21
ATOM     20  C   UNL     1     -11.287  11.392  67.418  0.00  0.00    +0.253 C 
ATOM     21  O   UNL     1     -12.060  10.961  68.526  0.00  0.00    -0.468 OA
ENDBRANCH   1  21
BRANCH   2  22
ATOM     22  O   UNL     1     -12.968   9.767  70.883  0.00  0.00    -0.472 OA
BRANCH  22  23
ATOM     23  C   UNL     1     -12.726   9.139  72.116  0.00  0.00    +0.206 C 
BRANCH  23  24
ATOM     24  C   UNL     1     -11.642   8.099  72.059  0.00  0.00    +0.047 C 
ATOM     25  C   UNL     1     -10.434   8.564  71.276  0.00  0.00    +0.021 C 
ATOM     26  C   UNL     1     -10.423   8.040  69.868  0.00  0.00    +0.072 C 
ATOM     27  N   UNL     1     -10.376   6.601  69.802  0.00  0.00    -0.272 NA
ATOM     28  C   UNL     1     -10.903   6.157  68.537  0.00  0.00    +0.090 C 
ATOM     29  C   UNL     1     -10.995   5.956  70.936  0.00  0.00    +0.072 C 
ATOM     30  C   UNL     1     -12.114   6.776  71.525  0.00  0.00    +0.021 C 
ENDBRANCH  23  24
ENDBRANCH  22  23
ENDBRANCH   2  22
TORSDOF 5
ENDMDL
MODEL 3
REMARK VINA RESULT:      -7.2      4.123      7.565
REMARK  Name = 
REMARK  5 active torsions:
REMARK  status: ('A' for Active; 'I' for Inactive)
REMARK    1  A    between atoms: O_2  and  C_3
REMARK    2  A    between atoms: C_8  and  O_9
REMARK    3  A    between atoms: O_9  and  C_10
REMARK    4  A    between atoms: C_10  and  C_11
REMARK    5  A    between atoms: N_22  and  C_23
REMARK                            x       y       z     vdW  Elec       q    Type
REMARK                         _______ _______ _______ _____ _____    ______ ____
ROOT
ATOM      1  C   UNL     1     -11.476  14.309  66.416  0.00  0.00    +0.173 A 
ATOM      2  C   UNL     1     -11.832  13.035  66.844  0.00  0.00    +0.174 A 
ATOM      3  C   UNL     1     -11.681  12.704  68.185  0.00  0.00    +0.059 A 
ATOM      4  C   UNL     1     -11.854  13.719  69.090  0.00  0.00    +0.089 A 
ATOM      5  N   UNL     1     -11.959  13.546  70.415  0.00  0.00    -0.224 NA
ATOM      6  C   UNL     1     -12.393  14.587  71.164  0.00  0.00    +0.200 A 
ATOM      7  N   UNL     1     -12.137  15.859  70.776  0.00  0.00    -0.205 NA
ATOM      8  C   UNL     1     -11.523  16.027  69.598  0.00  0.00    +0.166 A 
ATOM      9  N   UNL     1     -11.036  17.153  69.193  0.00  0.00    -0.224 NA
ATOM     10  C   UNL     1     -11.541  15.003  68.664  0.00  0.00    +0.057 A 
ATOM     11  C   UNL     1     -11.084  15.234  67.374  0.00  0.00    +0.045 A 
ENDROOT
BRANCH   9  12
ATOM     12  C   UNL     1      -9.954  17.173  68.246  0.00  0.00    +0.110 A 
ATOM     13  C   UNL     1      -9.956  18.313  67.442  0.00  0.00    +0.158 A 
ATOM     14  F   UNL     1     -11.147  18.894  67.116  0.00  0.00    -0.203 F 
ATOM     15  C   UNL     1      -8.777  18.808  66.896  0.00  0.00    +0.038 A 
ATOM     16  C   UNL     1      -7.595  18.568  67.552  0.00  0.00    +0.037 A 
ATOM     17 BR   UNL     1      -6.147  19.826  67.540  0.00  0.00    -0.049 Br
ATOM     18  C   UNL     1      -7.537  17.414  68.320  0.00  0.00    +0.008 A 
ATOM     19  C   UNL     1      -8.712  16.932  68.834  0.00  0.00    +0.022 A 
ENDBRANCH   9  12
BRANCH   1  21
ATOM     20  C   UNL     1     -11.308  15.859  64.505  0.00  0.00    +0.253 C 
ATOM     21  O   UNL     1     -11.422  14.560  65.061  0.00  0.00    -0.468 OA
ENDBRANCH   1  21
BRANCH   2  22
ATOM     22  O   UNL     1     -11.958  11.966  65.953  0.00  0.00    -0.472 OA
BRANCH  22  23
ATOM     23  C   UNL     1     -11.059  10.888  65.988  0.00  0.00    +0.206 C 
BRANCH  23  24
ATOM     24  C   UNL     1      -9.767  11.157  65.267  0.00  0.00    +0.047 C 
ATOM     25  C   UNL     1      -9.986  11.633  63.848  0.00  0.00    +0.021 C 
ATOM     26  C   UNL     1      -9.825  10.530  62.839  0.00  0.00    +0.072 C 
ATOM     27  N   UNL     1      -8.504   9.954  62.839  0.00  0.00    -0.272 NA
ATOM     28  C   UNL     1      -8.557   8.620  62.297  0.00  0.00    +0.090 C 
ATOM     29  C   UNL     1      -7.850  10.022  64.125  0.00  0.00    +0.072 C 
ATOM     30  C   UNL     1      -8.828   9.984  65.271  0.00  0.00    +0.021 C 
ENDBRANCH  23  24
ENDBRANCH  22  23
ENDBRANCH   2  22
TORSDOF 5
ENDMDL
MODEL 4
REMARK VINA RESULT:      -7.1      4.589      8.146
REMARK  Name = 
REMARK  5 active torsions:
REMARK  status: ('A' for Active; 'I' for Inactive)
REMARK    1  A    between atoms: O_2  and  C_3
REMARK    2  A    between atoms: C_8  and  O_9
REMARK    3  A    between atoms: O_9  and  C_10
REMARK    4  A    between atoms: C_10  and  C_11
REMARK    5  A    between atoms: N_22  and  C_23
REMARK                            x       y       z     vdW  Elec       q    Type
REMARK                         _______ _______ _______ _____ _____    ______ ____
ROOT
ATOM      1  C   UNL     1      -8.451  16.073  69.086  0.00  0.00    +0.173 A 
ATOM      2  C   UNL     1      -9.832  15.929  69.143  0.00  0.00    +0.174 A 
ATOM      3  C   UNL     1     -10.639  17.024  68.856  0.00  0.00    +0.059 A 
ATOM      4  C   UNL     1     -10.158  17.914  67.930  0.00  0.00    +0.089 A 
ATOM      5  N   UNL     1     -10.880  18.897  67.375  0.00  0.00    -0.224 NA
ATOM      6  C   UNL     1     -10.374  19.528  66.288  0.00  0.00    +0.200 A 
ATOM      7  N   UNL     1      -9.034  19.649  66.134  0.00  0.00    -0.205 NA
ATOM      8  C   UNL     1      -8.257  19.053  67.046  0.00  0.00    +0.166 A 
ATOM      9  N   UNL     1      -6.983  19.247  67.146  0.00  0.00    -0.224 NA
ATOM     10  C   UNL     1      -8.779  18.036  67.832  0.00  0.00    +0.057 A 
ATOM     11  C   UNL     1      -7.937  17.281  68.636  0.00  0.00    +0.045 A 
ENDROOT
BRANCH   9  12
ATOM     12  C   UNL     1      -6.320  19.050  68.407  0.00  0.00    +0.110 A 
ATOM     13  C   UNL     1      -5.038  18.518  68.270  0.00  0.00    +0.158 A 
ATOM     14  F   UNL     1      -4.778  17.670  67.232  0.00  0.00    -0.203 F 
ATOM     15  C   UNL     1      -4.053  18.764  69.219  0.00  0.00    +0.038 A 
ATOM     16  C   UNL     1      -4.120  19.922  69.954  0.00  0.00    +0.037 A 
ATOM     17 BR   UNL     1      -2.548  20.850  70.544  0.00  0.00    -0.049 Br
ATOM     18  C   UNL     1      -5.386  20.453  70.158  0.00  0.00    +0.008 A 
ATOM     19  C   UNL     1      -6.347  20.184  69.219  0.00  0.00    +0.022 A 
ENDBRANCH   9  12
BRANCH   1  21
ATOM     20  C   UNL     1      -6.249  15.026  69.456  0.00  0.00    +0.253 C 
ATOM     21  O   UNL     1      -7.661  15.056  69.579  0.00  0.00    -0.468 OA
ENDBRANCH   1  21
BRANCH   2  22
ATOM     22  O   UNL     1     -10.437  14.882  69.842  0.00  0.00    -0.472 OA
BRANCH  22  23
ATOM     23  C   UNL     1     -11.518  14.175  69.290  0.00  0.00    +0.206 C 
BRANCH  23  24
ATOM     24  C   UNL     1     -12.727  14.129  70.182  0.00  0.00    +0.047 C 
ATOM     25  C   UNL     1     -13.203  15.509  70.582  0.00  0.00    +0.021 C 
ATOM     26  C   UNL     1     -12.733  15.906  71.953  0.00  0.00    +0.072 C 
ATOM     27  N   UNL     1     -13.218  15.031  72.991  0.00  0.00    -0.272 NA
ATOM     28  C   UNL     1     -12.346  15.106  74.135  0.00  0.00    +0.090 C 
ATOM     29  C   UNL     1     -13.448  13.679  72.537  0.00  0.00    +0.072 C 
ATOM     30  C   UNL     1     -12.529  13.285  71.410  0.00  0.00    +0.021 C 
ENDBRANCH  23  24
ENDBRANCH  22  23
ENDBRANCH   2  22
TORSDOF 5
ENDMDL
MODEL 5
REMARK VINA RESULT:      -7.0      4.714      8.759
REMARK  Name = 
REMARK  5 active torsions:
REMARK  status: ('A' for Active; 'I' for Inactive)
REMARK    1  A    between atoms: O_2  and  C_3
REMARK    2  A    between atoms: C_8  and  O_9
REMARK    3  A    between atoms: O_9  and  C_10
REMARK    4  A    between atoms: C_10  and  C_11
REMARK    5  A    between atoms: N_22  and  C_23
REMARK                            x       y       z     vdW  Elec       q    Type
REMARK                         _______ _______ _______ _____ _____    ______ ____
ROOT
ATOM      1  C   UNL     1      -9.356  17.362  66.111  0.00  0.00    +0.173 A 
ATOM      2  C   UNL     1      -9.709  16.066  66.471  0.00  0.00    +0.174 A 
ATOM      3  C   UNL     1      -8.713  15.106  66.604  0.00  0.00    +0.059 A 
ATOM      4  C   UNL     1      -7.490  15.547  67.041  0.00  0.00    +0.089 A 
ATOM      5  N   UNL     1      -6.488  14.745  67.429  0.00  0.00    -0.224 NA
ATOM      6  C   UNL     1      -5.443  15.301  68.087  0.00  0.00    +0.200 A 
ATOM      7  N   UNL     1      -5.082  16.581  67.833  0.00  0.00    -0.205 NA
ATOM      8  C   UNL     1      -5.847  17.276  66.983  0.00  0.00    +0.166 A 
ATOM      9  N   UNL     1      -5.520  18.426  66.492  0.00  0.00    -0.224 NA
ATOM     10  C   UNL     1      -7.142  16.853  66.724  0.00  0.00    +0.057 A 
ATOM     11  C   UNL     1      -8.006  17.666  66.005  0.00  0.00    +0.045 A 
ENDROOT
BRANCH   9  12
ATOM     12  C   UNL     1      -6.059  18.851  65.228  0.00  0.00    +0.110 A 
ATOM     13  C   UNL     1      -6.392  20.205  65.207  0.00  0.00    +0.158 A 
ATOM     14  F   UNL     1      -6.819  20.803  66.357  0.00  0.00    -0.203 F 
ATOM     15  C   UNL     1      -6.381  20.928  64.019  0.00  0.00    +0.038 A 
ATOM     16  C   UNL     1      -5.544  20.525  63.009  0.00  0.00    +0.037 A 
ATOM     17 BR   UNL     1      -4.719  21.772  61.807  0.00  0.00    -0.049 Br
ATOM     18  C   UNL     1      -5.234  19.173  62.966  0.00  0.00    +0.008 A 
ATOM     19  C   UNL     1      -5.267  18.475  64.144  0.00  0.00    +0.022 A 
ENDBRANCH   9  12
BRANCH   1  21
ATOM     20  C   UNL     1     -10.386  19.601  66.192  0.00  0.00    +0.253 C 
ATOM     21  O   UNL     1     -10.357  18.248  65.771  0.00  0.00    -0.468 OA
ENDBRANCH   1  21
BRANCH   2  22
ATOM     22  O   UNL     1     -11.013  15.588  66.324  0.00  0.00    -0.472 OA
BRANCH  22  23
ATOM     23  C   UNL     1     -11.444  14.442  67.011  0.00  0.00    +0.206 C 
BRANCH  23  24
ATOM     24  C   UNL     1     -12.109  13.424  66.127  0.00  0.00    +0.047 C 
ATOM     25  C   UNL     1     -11.637  12.015  66.412  0.00  0.00    +0.021 C 
ATOM     26  C   UNL     1     -10.590  11.550  65.439  0.00  0.00    +0.072 C 
ATOM     27  N   UNL     1     -11.061  11.515  64.077  0.00  0.00    -0.272 NA
ATOM     28  C   UNL     1      -9.941  11.604  63.175  0.00  0.00    +0.090 C 
ATOM     29  C   UNL     1     -12.092  12.490  63.804  0.00  0.00    +0.072 C 
ATOM     30  C   UNL     1     -11.962  13.722  64.661  0.00  0.00    +0.021 C 
ENDBRANCH  23  24
ENDBRANCH  22  23
ENDBRANCH   2  22
TORSDOF 5
ENDMDL
MODEL 6
REMARK VINA RESULT:      -6.9      4.156      8.262
REMARK  Name = 
REMARK  5 active torsions:
REMARK  status: ('A' for Active; 'I' for Inactive)
REMARK    1  A    between atoms: O_2  and  C_3
REMARK    2  A    between atoms: C_8  and  O_9
REMARK    3  A    between atoms: O_9  and  C_10
REMARK    4  A    between atoms: C_10  and  C_11
REMARK    5  A    between atoms: N_22  and  C_23
REMARK                            x       y       z     vdW  Elec       q    Type
REMARK                         _______ _______ _______ _____ _____    ______ ____
ROOT
ATOM      1  C   UNL     1      -7.824  16.168  68.796  0.00  0.00    +0.173 A 
ATOM      2  C   UNL     1      -9.182  15.876  68.778  0.00  0.00    +0.174 A 
ATOM      3  C   UNL     1     -10.100  16.917  68.845  0.00  0.00    +0.059 A 
ATOM      4  C   UNL     1      -9.725  18.102  68.265  0.00  0.00    +0.089 A 
ATOM      5  N   UNL     1     -10.551  19.135  68.045  0.00  0.00    -0.224 NA
ATOM      6  C   UNL     1     -10.128  20.130  67.231  0.00  0.00    +0.200 A 
ATOM      7  N   UNL     1      -8.810  20.430  67.149  0.00  0.00    -0.205 NA
ATOM      8  C   UNL     1      -7.963  19.651  67.834  0.00  0.00    +0.166 A 
ATOM      9  N   UNL     1      -6.713  19.930  68.015  0.00  0.00    -0.224 NA
ATOM     10  C   UNL     1      -8.367  18.388  68.239  0.00  0.00    +0.057 A 
ATOM     11  C   UNL     1      -7.441  17.502  68.770  0.00  0.00    +0.045 A 
ENDROOT
BRANCH   9  12
ATOM     12  C   UNL     1      -6.015  19.403  69.156  0.00  0.00    +0.110 A 
ATOM     13  C   UNL     1      -4.704  19.026  68.866  0.00  0.00    +0.158 A 
ATOM     14  F   UNL     1      -4.409  18.555  67.619  0.00  0.00    -0.203 F 
ATOM     15  C   UNL     1      -3.720  19.038  69.847  0.00  0.00    +0.038 A 
ATOM     16  C   UNL     1      -3.848  19.909  70.900  0.00  0.00    +0.037 A 
ATOM     17 BR   UNL     1      -2.329  20.717  71.748  0.00  0.00    -0.049 Br
ATOM     18  C   UNL     1      -5.142  20.265  71.254  0.00  0.00    +0.008 A 
ATOM     19  C   UNL     1      -6.101  20.231  70.276  0.00  0.00    +0.022 A 
ENDBRANCH   9  12
BRANCH   1  21
ATOM     20  C   UNL     1      -6.026  14.714  67.936  0.00  0.00    +0.253 C 
ATOM     21  O   UNL     1      -6.927  15.131  68.948  0.00  0.00    -0.468 OA
ENDBRANCH   1  21
BRANCH   2  22
ATOM     22  O   UNL     1      -9.668  14.603  69.089  0.00  0.00    -0.472 OA
BRANCH  22  23
ATOM     23  C   UNL     1      -9.840  13.632  68.089  0.00  0.00    +0.206 C 
BRANCH  23  24
ATOM     24  C   UNL     1     -11.266  13.479  67.638  0.00  0.00    +0.047 C 
ATOM     25  C   UNL     1     -11.614  12.046  67.299  0.00  0.00    +0.021 C 
ATOM     26  C   UNL     1     -11.564  11.775  65.821  0.00  0.00    +0.072 C 
ATOM     27  N   UNL     1     -12.500  12.572  65.070  0.00  0.00    -0.272 NA
ATOM     28  C   UNL     1     -12.054  12.684  63.705  0.00  0.00    +0.090 C 
ATOM     29  C   UNL     1     -12.786  13.848  65.683  0.00  0.00    +0.072 C 
ATOM     30  C   UNL     1     -11.626  14.375  66.486  0.00  0.00    +0.021 C 
ENDBRANCH  23  24
ENDBRANCH  22  23
ENDBRANCH   2  22
TORSDOF 5
ENDMDL
MODEL 7
REMARK VINA RESULT:      -6.8      3.916      8.177
REMARK  Name = 
REMARK  5 active torsions:
REMARK  status: ('A' for Active; 'I' for Inactive)
REMARK    1  A    between atoms: O_2  and  C_3
REMARK    2  A    between atoms: C_8  and  O_9
REMARK    3  A    between atoms: O_9  and  C_10
REMARK    4  A    between atoms: C_10  and  C_11
REMARK    5  A    between atoms: N_22  and  C_23
REMARK                            x       y       z     vdW  Elec       q    Type
REMARK                         _______ _______ _______ _____ _____    ______ ____
ROOT
ATOM      1  C   UNL     1     -11.165  13.583  66.702  0.00  0.00    +0.173 A 
ATOM      2  C   UNL     1     -11.606  12.431  67.341  0.00  0.00    +0.174 A 
ATOM      3  C   UNL     1     -11.652  12.402  68.730  0.00  0.00    +0.059 A 
ATOM      4  C   UNL     1     -11.925  13.589  69.359  0.00  0.00    +0.089 A 
ATOM      5  N   UNL     1     -12.219  13.708  70.662  0.00  0.00    -0.224 NA
ATOM      6  C   UNL     1     -12.729  14.884  71.098  0.00  0.00    +0.200 A 
ATOM      7  N   UNL     1     -12.393  16.043  70.482  0.00  0.00    -0.205 NA
ATOM      8  C   UNL     1     -11.617  15.954  69.395  0.00  0.00    +0.166 A 
ATOM      9  N   UNL     1     -11.053  16.969  68.827  0.00  0.00    -0.224 NA
ATOM     10  C   UNL     1     -11.528  14.751  68.712  0.00  0.00    +0.057 A 
ATOM     11  C   UNL     1     -10.890  14.699  67.481  0.00  0.00    +0.045 A 
ENDROOT
BRANCH   9  12
ATOM     12  C   UNL     1      -9.849  16.791  68.061  0.00  0.00    +0.110 A 
ATOM     13  C   UNL     1      -9.717  17.722  67.031  0.00  0.00    +0.158 A 
ATOM     14  F   UNL     1     -10.840  18.201  66.420  0.00  0.00    -0.203 F 
ATOM     15  C   UNL     1      -8.464  18.098  66.560  0.00  0.00    +0.038 A 
ATOM     16  C   UNL     1      -7.391  18.026  67.411  0.00  0.00    +0.037 A 
ATOM     17 BR   UNL     1      -5.931  19.268  67.323  0.00  0.00    -0.049 Br
ATOM     18  C   UNL     1      -7.462  17.073  68.417  0.00  0.00    +0.008 A 
ATOM     19  C   UNL     1      -8.706  16.703  68.856  0.00  0.00    +0.022 A 
ENDBRANCH   9  12
BRANCH   1  21
ATOM     20  C   UNL     1     -11.898  13.795  64.356  0.00  0.00    +0.253 C 
ATOM     21  O   UNL     1     -10.917  13.533  65.346  0.00  0.00    -0.468 OA
ENDBRANCH   1  21
BRANCH   2  22
ATOM     22  O   UNL     1     -11.631  11.192  66.696  0.00  0.00    -0.472 OA
BRANCH  22  23
ATOM     23  C   UNL     1     -10.505  10.354  66.701  0.00  0.00    +0.206 C 
BRANCH  23  24
ATOM     24  C   UNL     1     -10.634   9.176  67.627  0.00  0.00    +0.047 C 
ATOM     25  C   UNL     1      -9.644   9.229  68.770  0.00  0.00    +0.021 C 
ATOM     26  C   UNL     1      -8.438   8.365  68.529  0.00  0.00    +0.072 C 
ATOM     27  N   UNL     1      -8.764   6.969  68.385  0.00  0.00    -0.272 NA
ATOM     28  C   UNL     1      -7.724   6.303  67.643  0.00  0.00    +0.090 C 
ATOM     29  C   UNL     1     -10.085   6.743  67.844  0.00  0.00    +0.072 C 
ATOM     30  C   UNL     1     -10.528   7.851  66.925  0.00  0.00    +0.021 C 
ENDBRANCH  23  24
ENDBRANCH  22  23
ENDBRANCH   2  22
TORSDOF 5
ENDMDL
MODEL 8
REMARK VINA RESULT:      -6.8      4.853      6.851
REMARK  Name = 
REMARK  5 active torsions:
REMARK  status: ('A' for Active; 'I' for Inactive)
REMARK    1  A    between atoms: O_2  and  C_3
REMARK    2  A    between atoms: C_8  and  O_9
REMARK    3  A    between atoms: O_9  and  C_10
REMARK    4  A    between atoms: C_10  and  C_11
REMARK    5  A    between atoms: N_22  and  C_23
REMARK                            x       y       z     vdW  Elec       q    Type
REMARK                         _______ _______ _______ _____ _____    ______ ____
ROOT
ATOM      1  C   UNL     1     -10.648  10.553  68.741  0.00  0.00    +0.173 A 
ATOM      2  C   UNL     1     -11.576  11.200  69.548  0.00  0.00    +0.174 A 
ATOM      3  C   UNL     1     -12.294  10.461  70.480  0.00  0.00    +0.059 A 
ATOM      4  C   UNL     1     -11.652   9.384  71.035  0.00  0.00    +0.089 A 
ATOM      5  N   UNL     1     -12.101   8.695  72.094  0.00  0.00    -0.224 NA
ATOM      6  C   UNL     1     -11.251   7.836  72.705  0.00  0.00    +0.200 A 
ATOM      7  N   UNL     1     -10.280   7.216  71.993  0.00  0.00    -0.205 NA
ATOM      8  C   UNL     1     -10.156   7.556  70.704  0.00  0.00    +0.166 A 
ATOM      9  N   UNL     1      -9.421   6.914  69.856  0.00  0.00    -0.224 NA
ATOM     10  C   UNL     1     -10.692   8.753  70.256  0.00  0.00    +0.057 A 
ATOM     11  C   UNL     1     -10.400   9.208  68.978  0.00  0.00    +0.045 A 
ENDROOT
BRANCH   9  12
ATOM     12  C   UNL     1      -9.734   6.954  68.454  0.00  0.00    +0.110 A 
ATOM     13  C   UNL     1      -8.600   7.030  67.645  0.00  0.00    +0.158 A 
ATOM     14  F   UNL     1      -7.496   7.686  68.108  0.00  0.00    -0.203 F 
ATOM     15  C   UNL     1      -8.609   6.529  66.348  0.00  0.00    +0.038 A 
ATOM     16  C   UNL     1      -9.465   5.500  66.044  0.00  0.00    +0.037 A 
ATOM     17 BR   UNL     1      -9.018   4.145  64.762  0.00  0.00    -0.049 Br
ATOM     18  C   UNL     1     -10.631   5.425  66.792  0.00  0.00    +0.008 A 
ATOM     19  C   UNL     1     -10.607   5.939  68.061  0.00  0.00    +0.022 A 
ENDBRANCH   9  12
BRANCH   1  21
ATOM     20  C   UNL     1     -10.608  11.184  66.357  0.00  0.00    +0.253 C 
ATOM     21  O   UNL     1     -10.101  11.243  67.679  0.00  0.00    -0.468 OA
ENDBRANCH   1  21
BRANCH   2  22
ATOM     22  O   UNL     1     -12.101  12.450  69.212  0.00  0.00    -0.472 OA
BRANCH  22  23
ATOM     23  C   UNL     1     -11.623  13.621  69.822  0.00  0.00    +0.206 C 
BRANCH  23  24
ATOM     24  C   UNL     1     -12.709  14.483  70.406  0.00  0.00    +0.047 C 
ATOM     25  C   UNL     1     -12.244  15.897  70.671  0.00  0.00    +0.021 C 
ATOM     26  C   UNL     1     -11.877  16.123  72.112  0.00  0.00    +0.072 C 
ATOM     27  N   UNL     1     -12.981  15.920  73.014  0.00  0.00    -0.272 NA
ATOM     28  C   UNL     1     -12.482  15.613  74.330  0.00  0.00    +0.090 C 
ATOM     29  C   UNL     1     -13.945  14.958  72.531  0.00  0.00    +0.072 C 
ATOM     30  C   UNL     1     -13.319  13.906  71.654  0.00  0.00    +0.021 C 
ENDBRANCH  23  24
ENDBRANCH  22  23
ENDBRANCH   2  22
TORSDOF 5
ENDMDL
MODEL 9
REMARK VINA RESULT:      -6.8      3.811      8.158
REMARK  Name = 
REMARK  5 active torsions:
REMARK  status: ('A' for Active; 'I' for Inactive)
REMARK    1  A    between atoms: O_2  and  C_3
REMARK    2  A    between atoms: C_8  and  O_9
REMARK    3  A    between atoms: O_9  and  C_10
REMARK    4  A    between atoms: C_10  and  C_11
REMARK    5  A    between atoms: N_22  and  C_23
REMARK                            x       y       z     vdW  Elec       q    Type
REMARK                         _______ _______ _______ _____ _____    ______ ____
ROOT
ATOM      1  C   UNL     1      -8.839  13.268  67.940  0.00  0.00    +0.173 A 
ATOM      2  C   UNL     1      -9.913  12.386  67.893  0.00  0.00    +0.174 A 
ATOM      3  C   UNL     1     -11.144  12.842  67.439  0.00  0.00    +0.059 A 
ATOM      4  C   UNL     1     -11.119  13.821  66.478  0.00  0.00    +0.089 A 
ATOM      5  N   UNL     1     -12.188  14.224  65.776  0.00  0.00    -0.224 NA
ATOM      6  C   UNL     1     -11.981  14.995  64.683  0.00  0.00    +0.200 A 
ATOM      7  N   UNL     1     -10.918  15.833  64.631  0.00  0.00    -0.205 NA
ATOM      8  C   UNL     1     -10.058  15.794  65.657  0.00  0.00    +0.166 A 
ATOM      9  N   UNL     1      -9.121  16.663  65.846  0.00  0.00    -0.224 NA
ATOM     10  C   UNL     1     -10.031  14.683  66.487  0.00  0.00    +0.057 A 
ATOM     11  C   UNL     1      -9.018  14.544  67.425  0.00  0.00    +0.045 A 
ENDROOT
BRANCH   9  12
ATOM     12  C   UNL     1      -8.616  16.905  67.170  0.00  0.00    +0.110 A 
ATOM     13  C   UNL     1      -7.223  16.939  67.224  0.00  0.00    +0.158 A 
ATOM     14  F   UNL     1      -6.505  16.162  66.361  0.00  0.00    -0.203 F 
ATOM     15  C   UNL     1      -6.560  17.678  68.197  0.00  0.00    +0.038 A 
ATOM     16  C   UNL     1      -7.184  18.780  68.727  0.00  0.00    +0.037 A 
ATOM     17 BR   UNL     1      -6.210  20.336  69.283  0.00  0.00    -0.049 Br
ATOM     18  C   UNL     1      -8.571  18.759  68.741  0.00  0.00    +0.008 A 
ATOM     19  C   UNL     1      -9.205  18.010  67.784  0.00  0.00    +0.022 A 
ENDBRANCH   9  12
BRANCH   1  21
ATOM     20  C   UNL     1      -6.514  13.664  68.661  0.00  0.00    +0.253 C 
ATOM     21  O   UNL     1      -7.688  12.873  68.589  0.00  0.00    -0.468 OA
ENDBRANCH   1  21
BRANCH   2  22
ATOM     22  O   UNL     1      -9.927  11.201  68.632  0.00  0.00    -0.472 OA
BRANCH  22  23
ATOM     23  C   UNL     1     -11.135  10.551  68.931  0.00  0.00    +0.206 C 
BRANCH  23  24
ATOM     24  C   UNL     1     -11.406  10.429  70.405  0.00  0.00    +0.047 C 
ATOM     25  C   UNL     1     -10.951   9.101  70.967  0.00  0.00    +0.021 C 
ATOM     26  C   UNL     1     -12.080   8.119  71.112  0.00  0.00    +0.072 C 
ATOM     27  N   UNL     1     -13.109   8.570  72.013  0.00  0.00    -0.272 NA
ATOM     28  C   UNL     1     -14.349   7.905  71.705  0.00  0.00    +0.090 C 
ATOM     29  C   UNL     1     -13.232  10.009  72.066  0.00  0.00    +0.072 C 
ATOM     30  C   UNL     1     -12.845  10.668  70.768  0.00  0.00    +0.021 C 
ENDBRANCH  23  24
ENDBRANCH  22  23
ENDBRANCH   2  22
TORSDOF 5
ENDMDL
