MODEL 1
REMARK VINA RESULT:      -5.7      0.000      0.000
REMARK  Name = 
REMARK  2 active torsions:
REMARK  status: ('A' for Active; 'I' for Inactive)
REMARK    1  A    between atoms: N_4  and  C_5
REMARK    2  A    between atoms: C_8  and  C_9
REMARK                            x       y       z     vdW  Elec       q    Type
REMARK                         _______ _______ _______ _____ _____    ______ ____
ROOT
ATOM      1  C   UNL     1      -8.462  16.927  68.479  0.00  0.00    +0.038 C 
ATOM      2  C   UNL     1      -9.119  16.896  67.228  0.00  0.00    +0.053 A 
ATOM      3  C   UNL     1     -10.013  17.947  66.984  0.00  0.00    +0.280 A 
ATOM      4  O   UNL     1     -10.703  18.365  67.973  0.00  0.00    -0.265 OA
ATOM      5  N   UNL     1     -10.530  17.912  65.726  0.00  0.00    -0.153 NA
ATOM      6  C   UNL     1     -10.585  16.764  64.999  0.00  0.00    +0.355 A 
ATOM      7  O   UNL     1     -11.505  16.628  64.131  0.00  0.00    -0.244 OA
ATOM      8  N   UNL     1     -10.138  15.569  65.478  0.00  0.00    -0.252 N 
ATOM      9  C   UNL     1      -9.219  15.730  66.463  0.00  0.00    +0.083 A 
ENDROOT
BRANCH   8  10
ATOM     10  C   UNL     1     -11.376  14.634  65.896  0.00  0.00    +0.232 C 
ATOM     11  O   UNL     1     -10.701  14.073  67.161  0.00  0.00    -0.327 OA
ATOM     12  C   UNL     1     -12.007  13.270  67.093  0.00  0.00    +0.172 C 
ATOM     13  C   UNL     1     -11.374  12.391  65.872  0.00  0.00    +0.005 C 
ATOM     14  C   UNL     1     -10.834  13.328  65.072  0.00  0.00    +0.025 C 
BRANCH  12  15
ATOM     15  C   UNL     1     -11.525  12.204  68.264  0.00  0.00    +0.216 C 
ATOM     16  O   UNL     1     -12.010  11.024  67.671  0.00  0.00    -0.217 OA
ENDBRANCH  12  15
ENDBRANCH   8  10
TORSDOF 2
ENDMDL
MODEL 2
REMARK VINA RESULT:      -5.5      2.803      3.956
REMARK  Name = 
REMARK  2 active torsions:
REMARK  status: ('A' for Active; 'I' for Inactive)
REMARK    1  A    between atoms: N_4  and  C_5
REMARK    2  A    between atoms: C_8  and  C_9
REMARK                            x       y       z     vdW  Elec       q    Type
REMARK                         _______ _______ _______ _____ _____    ______ ____
ROOT
ATOM      1  C   UNL     1     -12.440  12.837  70.814  0.00  0.00    +0.038 C 
ATOM      2  C   UNL     1     -11.898  14.021  70.264  0.00  0.00    +0.053 A 
ATOM      3  C   UNL     1     -12.509  15.215  70.666  0.00  0.00    +0.280 A 
ATOM      4  O   UNL     1     -13.776  15.196  70.823  0.00  0.00    -0.265 OA
ATOM      5  N   UNL     1     -11.875  16.317  70.182  0.00  0.00    -0.153 NA
ATOM      6  C   UNL     1     -11.095  16.272  69.068  0.00  0.00    +0.355 A 
ATOM      7  O   UNL     1     -10.979  17.318  68.355  0.00  0.00    -0.244 OA
ATOM      8  N   UNL     1     -10.902  15.128  68.353  0.00  0.00    -0.252 N 
ATOM      9  C   UNL     1     -11.112  14.019  69.107  0.00  0.00    +0.083 A 
ENDROOT
BRANCH   8  10
ATOM     10  C   UNL     1     -11.763  15.162  66.998  0.00  0.00    +0.232 C 
ATOM     11  O   UNL     1     -11.871  13.631  66.867  0.00  0.00    -0.327 OA
ATOM     12  C   UNL     1     -12.526  14.126  65.570  0.00  0.00    +0.172 C 
ATOM     13  C   UNL     1     -11.042  14.478  64.987  0.00  0.00    +0.005 C 
ATOM     14  C   UNL     1     -10.454  15.116  66.015  0.00  0.00    +0.025 C 
BRANCH  12  15
ATOM     15  C   UNL     1     -12.558  12.614  64.897  0.00  0.00    +0.216 C 
ATOM     16  O   UNL     1     -12.593  12.999  63.544  0.00  0.00    -0.217 OA
ENDBRANCH  12  15
ENDBRANCH   8  10
TORSDOF 2
ENDMDL
MODEL 3
REMARK VINA RESULT:      -5.3      2.299      3.635
REMARK  Name = 
REMARK  2 active torsions:
REMARK  status: ('A' for Active; 'I' for Inactive)
REMARK    1  A    between atoms: N_4  and  C_5
REMARK    2  A    between atoms: C_8  and  C_9
REMARK                            x       y       z     vdW  Elec       q    Type
REMARK                         _______ _______ _______ _____ _____    ______ ____
ROOT
ATOM      1  C   UNL     1     -10.432  19.854  66.221  0.00  0.00    +0.038 C 
ATOM      2  C   UNL     1      -9.789  18.890  67.030  0.00  0.00    +0.053 A 
ATOM      3  C   UNL     1      -8.397  18.813  66.896  0.00  0.00    +0.280 A 
ATOM      4  O   UNL     1      -7.915  18.977  65.725  0.00  0.00    -0.265 OA
ATOM      5  N   UNL     1      -7.833  17.940  67.774  0.00  0.00    -0.153 NA
ATOM      6  C   UNL     1      -8.539  16.920  68.333  0.00  0.00    +0.355 A 
ATOM      7  O   UNL     1      -7.924  15.861  68.676  0.00  0.00    -0.244 OA
ATOM      8  N   UNL     1      -9.852  16.692  68.048  0.00  0.00    -0.252 N 
ATOM      9  C   UNL     1     -10.475  17.813  67.602  0.00  0.00    +0.083 A 
ENDROOT
BRANCH   8  10
ATOM     10  C   UNL     1     -10.000  15.434  67.060  0.00  0.00    +0.232 C 
ATOM     11  O   UNL     1     -10.826  16.189  66.002  0.00  0.00    -0.327 OA
ATOM     12  C   UNL     1     -10.829  14.750  65.467  0.00  0.00    +0.172 C 
ATOM     13  C   UNL     1     -11.915  14.352  66.619  0.00  0.00    +0.005 C 
ATOM     14  C   UNL     1     -11.402  14.913  67.728  0.00  0.00    +0.025 C 
BRANCH  12  15
ATOM     15  C   UNL     1     -11.984  15.074  64.328  0.00  0.00    +0.216 C 
ATOM     16  O   UNL     1     -11.583  16.383  64.003  0.00  0.00    -0.217 OA
ENDBRANCH  12  15
ENDBRANCH   8  10
TORSDOF 2
ENDMDL
MODEL 4
REMARK VINA RESULT:      -5.3      2.416      3.655
REMARK  Name = 
REMARK  2 active torsions:
REMARK  status: ('A' for Active; 'I' for Inactive)
REMARK    1  A    between atoms: N_4  and  C_5
REMARK    2  A    between atoms: C_8  and  C_9
REMARK                            x       y       z     vdW  Elec       q    Type
REMARK                         _______ _______ _______ _____ _____    ______ ____
ROOT
ATOM      1  C   UNL     1      -8.581  16.319  66.186  0.00  0.00    +0.038 C 
ATOM      2  C   UNL     1      -9.448  15.207  66.081  0.00  0.00    +0.053 A 
ATOM      3  C   UNL     1     -10.363  15.247  65.022  0.00  0.00    +0.280 A 
ATOM      4  O   UNL     1     -10.867  16.383  64.729  0.00  0.00    -0.265 OA
ATOM      5  N   UNL     1     -11.094  14.104  64.918  0.00  0.00    -0.153 NA
ATOM      6  C   UNL     1     -11.284  13.269  65.974  0.00  0.00    +0.355 A 
ATOM      7  O   UNL     1     -12.342  12.566  66.022  0.00  0.00    -0.244 OA
ATOM      8  N   UNL     1     -10.768  13.520  67.211  0.00  0.00    -0.252 N 
ATOM      9  C   UNL     1      -9.689  14.341  67.152  0.00  0.00    +0.083 A 
ENDROOT
BRANCH   8  10
ATOM     10  C   UNL     1     -11.920  14.037  68.204  0.00  0.00    +0.232 C 
ATOM     11  O   UNL     1     -10.994  14.964  69.014  0.00  0.00    -0.327 OA
ATOM     12  C   UNL     1     -12.321  15.061  69.779  0.00  0.00    +0.172 C 
ATOM     13  C   UNL     1     -12.046  13.575  70.395  0.00  0.00    +0.005 C 
ATOM     14  C   UNL     1     -11.662  12.866  69.319  0.00  0.00    +0.025 C 
BRANCH  12  15
ATOM     15  C   UNL     1     -11.633  15.847  71.063  0.00  0.00    +0.216 C 
ATOM     16  O   UNL     1     -12.014  14.946  72.075  0.00  0.00    -0.217 OA
ENDBRANCH  12  15
ENDBRANCH   8  10
TORSDOF 2
ENDMDL
MODEL 5
REMARK VINA RESULT:      -5.1      2.484      5.152
REMARK  Name = 
REMARK  2 active torsions:
REMARK  status: ('A' for Active; 'I' for Inactive)
REMARK    1  A    between atoms: N_4  and  C_5
REMARK    2  A    between atoms: C_8  and  C_9
REMARK                            x       y       z     vdW  Elec       q    Type
REMARK                         _______ _______ _______ _____ _____    ______ ____
ROOT
ATOM      1  C   UNL     1      -8.971  10.964  65.319  0.00  0.00    +0.038 C 
ATOM      2  C   UNL     1     -10.216  11.629  65.382  0.00  0.00    +0.053 A 
ATOM      3  C   UNL     1     -10.952  11.656  64.190  0.00  0.00    +0.280 A 
ATOM      4  O   UNL     1     -10.295  11.791  63.103  0.00  0.00    -0.265 OA
ATOM      5  N   UNL     1     -12.181  12.220  64.346  0.00  0.00    -0.153 NA
ATOM      6  C   UNL     1     -12.455  13.087  65.357  0.00  0.00    +0.355 A 
ATOM      7  O   UNL     1     -13.350  13.973  65.182  0.00  0.00    -0.244 OA
ATOM      8  N   UNL     1     -11.522  13.463  66.276  0.00  0.00    -0.252 N 
ATOM      9  C   UNL     1     -10.527  12.547  66.390  0.00  0.00    +0.083 A 
ENDROOT
BRANCH   8  10
ATOM     10  C   UNL     1     -10.999  14.950  65.968  0.00  0.00    +0.232 C 
ATOM     11  O   UNL     1      -9.511  14.621  66.197  0.00  0.00    -0.327 OA
ATOM     12  C   UNL     1      -9.489  16.139  65.973  0.00  0.00    +0.172 C 
ATOM     13  C   UNL     1     -10.093  16.344  67.475  0.00  0.00    +0.005 C 
ATOM     14  C   UNL     1     -11.091  15.442  67.527  0.00  0.00    +0.025 C 
BRANCH  12  15
ATOM     15  C   UNL     1      -7.915  16.284  66.462  0.00  0.00    +0.216 C 
ATOM     16  O   UNL     1      -7.593  17.457  65.755  0.00  0.00    -0.217 OA
ENDBRANCH  12  15
ENDBRANCH   8  10
TORSDOF 2
ENDMDL
MODEL 6
REMARK VINA RESULT:      -5.1      2.618      5.468
REMARK  Name = 
REMARK  2 active torsions:
REMARK  status: ('A' for Active; 'I' for Inactive)
REMARK    1  A    between atoms: N_4  and  C_5
REMARK    2  A    between atoms: C_8  and  C_9
REMARK                            x       y       z     vdW  Elec       q    Type
REMARK                         _______ _______ _______ _____ _____    ______ ____
ROOT
ATOM      1  C   UNL     1      -8.799  15.382  69.292  0.00  0.00    +0.038 C 
ATOM      2  C   UNL     1      -9.487  15.627  68.082  0.00  0.00    +0.053 A 
ATOM      3  C   UNL     1      -9.003  14.945  66.958  0.00  0.00    +0.280 A 
ATOM      4  O   UNL     1      -7.738  14.797  66.867  0.00  0.00    -0.265 OA
ATOM      5  N   UNL     1      -9.771  15.145  65.853  0.00  0.00    -0.153 NA
ATOM      6  C   UNL     1     -10.571  16.236  65.717  0.00  0.00    +0.355 A 
ATOM      7  O   UNL     1     -10.825  16.672  64.550  0.00  0.00    -0.244 OA
ATOM      8  N   UNL     1     -10.654  17.209  66.668  0.00  0.00    -0.252 N 
ATOM      9  C   UNL     1     -10.299  16.750  67.894  0.00  0.00    +0.083 A 
ENDROOT
BRANCH   8  10
ATOM     10  C   UNL     1      -9.841  18.515  66.206  0.00  0.00    +0.232 C 
ATOM     11  O   UNL     1      -8.751  18.385  67.286  0.00  0.00    -0.327 OA
ATOM     12  C   UNL     1      -8.399  19.718  66.612  0.00  0.00    +0.172 C 
ATOM     13  C   UNL     1      -9.657  20.413  67.387  0.00  0.00    +0.005 C 
ATOM     14  C   UNL     1     -10.654  19.530  67.200  0.00  0.00    +0.025 C 
BRANCH  12  15
ATOM     15  C   UNL     1      -7.303  20.130  67.781  0.00  0.00    +0.216 C 
ATOM     16  O   UNL     1      -6.958  21.404  67.292  0.00  0.00    -0.217 OA
ENDBRANCH  12  15
ENDBRANCH   8  10
TORSDOF 2
ENDMDL
MODEL 7
REMARK VINA RESULT:      -5.1      2.211      5.279
REMARK  Name = 
REMARK  2 active torsions:
REMARK  status: ('A' for Active; 'I' for Inactive)
REMARK    1  A    between atoms: N_4  and  C_5
REMARK    2  A    between atoms: C_8  and  C_9
REMARK                            x       y       z     vdW  Elec       q    Type
REMARK                         _______ _______ _______ _____ _____    ______ ____
ROOT
ATOM      1  C   UNL     1     -10.389  13.121  64.217  0.00  0.00    +0.038 C 
ATOM      2  C   UNL     1     -10.631  12.810  65.575  0.00  0.00    +0.053 A 
ATOM      3  C   UNL     1     -11.883  12.247  65.856  0.00  0.00    +0.280 A 
ATOM      4  O   UNL     1     -12.881  12.686  65.192  0.00  0.00    -0.265 OA
ATOM      5  N   UNL     1     -12.010  11.879  67.160  0.00  0.00    -0.153 NA
ATOM      6  C   UNL     1     -11.257  12.438  68.145  0.00  0.00    +0.355 A 
ATOM      7  O   UNL     1     -11.733  12.502  69.323  0.00  0.00    -0.244 OA
ATOM      8  N   UNL     1     -10.333  13.409  67.903  0.00  0.00    -0.252 N 
ATOM      9  C   UNL     1      -9.896  13.382  66.618  0.00  0.00    +0.083 A 
ENDROOT
BRANCH   8  10
ATOM     10  C   UNL     1     -10.891  14.842  68.366  0.00  0.00    +0.232 C 
ATOM     11  O   UNL     1     -10.374  15.597  67.127  0.00  0.00    -0.327 OA
ATOM     12  C   UNL     1     -10.934  16.728  67.999  0.00  0.00    +0.172 C 
ATOM     13  C   UNL     1      -9.626  16.594  68.967  0.00  0.00    +0.005 C 
ATOM     14  C   UNL     1      -9.519  15.266  69.151  0.00  0.00    +0.025 C 
BRANCH  12  15
ATOM     15  C   UNL     1     -10.261  17.914  67.061  0.00  0.00    +0.216 C 
ATOM     16  O   UNL     1     -11.017  19.000  67.539  0.00  0.00    -0.217 OA
ENDBRANCH  12  15
ENDBRANCH   8  10
TORSDOF 2
ENDMDL
MODEL 8
REMARK VINA RESULT:      -5.0      2.532      3.245
REMARK  Name = 
REMARK  2 active torsions:
REMARK  status: ('A' for Active; 'I' for Inactive)
REMARK    1  A    between atoms: N_4  and  C_5
REMARK    2  A    between atoms: C_8  and  C_9
REMARK                            x       y       z     vdW  Elec       q    Type
REMARK                         _______ _______ _______ _____ _____    ______ ____
ROOT
ATOM      1  C   UNL     1      -9.193  19.297  68.772  0.00  0.00    +0.038 C 
ATOM      2  C   UNL     1      -9.454  18.177  67.949  0.00  0.00    +0.053 A 
ATOM      3  C   UNL     1     -10.047  18.456  66.711  0.00  0.00    +0.280 A 
ATOM      4  O   UNL     1     -10.914  19.393  66.679  0.00  0.00    -0.265 OA
ATOM      5  N   UNL     1     -10.175  17.349  65.931  0.00  0.00    -0.153 NA
ATOM      6  C   UNL     1     -10.209  16.095  66.455  0.00  0.00    +0.355 A 
ATOM      7  O   UNL     1     -10.847  15.185  65.836  0.00  0.00    -0.244 OA
ATOM      8  N   UNL     1     -10.130  15.856  67.795  0.00  0.00    -0.252 N 
ATOM      9  C   UNL     1      -9.522  16.875  68.455  0.00  0.00    +0.083 A 
ENDROOT
BRANCH   8  10
ATOM     10  C   UNL     1     -11.575  15.475  68.383  0.00  0.00    +0.232 C 
ATOM     11  O   UNL     1     -11.322  16.090  69.773  0.00  0.00    -0.327 OA
ATOM     12  C   UNL     1     -12.696  15.429  69.943  0.00  0.00    +0.172 C 
ATOM     13  C   UNL     1     -11.960  13.973  70.004  0.00  0.00    +0.005 C 
ATOM     14  C   UNL     1     -11.093  14.028  68.977  0.00  0.00    +0.025 C 
BRANCH  12  15
ATOM     15  C   UNL     1     -12.694  15.627  71.586  0.00  0.00    +0.216 C 
ATOM     16  O   UNL     1     -11.586  16.489  71.682  0.00  0.00    -0.217 OA
ENDBRANCH  12  15
ENDBRANCH   8  10
TORSDOF 2
ENDMDL
MODEL 9
REMARK VINA RESULT:      -5.0      3.157      4.237
REMARK  Name = 
REMARK  2 active torsions:
REMARK  status: ('A' for Active; 'I' for Inactive)
REMARK    1  A    between atoms: N_4  and  C_5
REMARK    2  A    between atoms: C_8  and  C_9
REMARK                            x       y       z     vdW  Elec       q    Type
REMARK                         _______ _______ _______ _____ _____    ______ ____
ROOT
ATOM      1  C   UNL     1      -9.791  14.878  66.570  0.00  0.00    +0.038 C 
ATOM      2  C   UNL     1     -10.673  14.285  65.638  0.00  0.00    +0.053 A 
ATOM      3  C   UNL     1     -12.007  14.173  66.050  0.00  0.00    +0.280 A 
ATOM      4  O   UNL     1     -12.216  13.896  67.279  0.00  0.00    -0.265 OA
ATOM      5  N   UNL     1     -12.818  13.690  65.070  0.00  0.00    -0.153 NA
ATOM      6  C   UNL     1     -12.340  12.944  64.038  0.00  0.00    +0.355 A 
ATOM      7  O   UNL     1     -13.106  12.091  63.488  0.00  0.00    -0.244 OA
ATOM      8  N   UNL     1     -11.023  12.619  63.916  0.00  0.00    -0.252 N 
ATOM      9  C   UNL     1     -10.222  13.491  64.579  0.00  0.00    +0.083 A 
ENDROOT
BRANCH   8  10
ATOM     10  C   UNL     1     -10.784  11.084  64.324  0.00  0.00    +0.232 C 
ATOM     11  O   UNL     1      -9.475  11.349  65.092  0.00  0.00    -0.327 OA
ATOM     12  C   UNL     1      -9.580   9.818  65.125  0.00  0.00    +0.172 C 
ATOM     13  C   UNL     1      -9.129   9.780  63.557  0.00  0.00    +0.005 C 
ATOM     14  C   UNL     1      -9.892  10.735  62.997  0.00  0.00    +0.025 C 
BRANCH  12  15
ATOM     15  C   UNL     1      -8.036   9.630  65.692  0.00  0.00    +0.216 C 
ATOM     16  O   UNL     1      -7.726   8.427  65.032  0.00  0.00    -0.217 OA
ENDBRANCH  12  15
ENDBRANCH   8  10
TORSDOF 2
ENDMDL
