MODEL 1
REMARK VINA RESULT:      -5.4      0.000      0.000
REMARK  Name = 
REMARK  10 active torsions:
REMARK  status: ('A' for Active; 'I' for Inactive)
REMARK    1  A    between atoms: C_2  and  C_3
REMARK    2  A    between atoms: C_3  and  O_4
REMARK    3  A    between atoms: O_4  and  C_5
REMARK    4  A    between atoms: C_8  and  C_9
REMARK    5  A    between atoms: C_9  and  O_11
REMARK    6  A    between atoms: O_11  and  C_12
REMARK    7  A    between atoms: C_12  and  C_13
REMARK    8  A    between atoms: C_13  and  N_14
REMARK    9  A    between atoms: N_14  and  C_15
REMARK   10  A    between atoms: N_14  and  C_17
REMARK                            x       y       z     vdW  Elec       q    Type
REMARK                         _______ _______ _______ _____ _____    ______ ____
ROOT
ATOM      1  C   UNL     1     -11.470  12.449  66.141  0.00  0.00    +0.155 A 
ATOM      2  C   UNL     1     -12.311  13.091  65.256  0.00  0.00    +0.123 A 
ATOM      3  N   UNL     1     -13.198  12.261  64.505  0.00  0.00    -0.125 NA
ATOM      4  C   UNL     1     -12.084  14.415  64.946  0.00  0.00    +0.028 A 
ATOM      5  C   UNL     1     -10.942  15.045  65.364  0.00  0.00    +0.077 A 
ATOM      6  C   UNL     1      -9.928  14.278  65.918  0.00  0.00    +0.010 A 
ATOM      7  C   UNL     1     -10.279  13.074  66.489  0.00  0.00    +0.039 A 
ENDROOT
BRANCH   5   8
ATOM      8  C   UNL     1     -10.648  16.444  65.106  0.00  0.00    +0.341 C 
ATOM      9  O   UNL     1     -11.330  17.127  64.301  0.00  0.00    -0.245 OA
BRANCH   8  10
ATOM     10  O   UNL     1      -9.498  16.977  65.664  0.00  0.00    -0.444 OA
BRANCH  10  11
ATOM     11  C   UNL     1      -9.549  18.111  66.515  0.00  0.00    +0.226 C 
BRANCH  11  12
ATOM     12  C   UNL     1     -10.438  17.886  67.708  0.00  0.00    +0.120 C 
BRANCH  12  13
ATOM     13  N   UNL     1      -9.708  17.251  68.774  0.00  0.00    -0.270 NA
BRANCH  13  14
ATOM     14  C   UNL     1     -10.283  16.002  69.205  0.00  0.00    +0.072 C 
ATOM     15  C   UNL     1     -11.729  15.845  68.809  0.00  0.00    +0.019 C 
ENDBRANCH  13  14
BRANCH  13  16
ATOM     16  C   UNL     1      -8.302  17.154  68.474  0.00  0.00    +0.072 C 
ATOM     17  C   UNL     1      -7.784  15.901  69.154  0.00  0.00    +0.019 C 
ENDBRANCH  13  16
ENDBRANCH  12  13
ENDBRANCH  11  12
ENDBRANCH  10  11
ENDBRANCH   8  10
ENDBRANCH   5   8
BRANCH   1  18
ATOM     18  O   UNL     1     -11.982  11.401  66.894  0.00  0.00    -0.474 OA
BRANCH  18  19
ATOM     19  C   UNL     1     -11.218  10.880  67.952  0.00  0.00    +0.205 C 
BRANCH  19  21
ATOM     20  C   UNL     1     -11.859  12.340  69.836  0.00  0.00    +0.004 C 
ATOM     21  C   UNL     1     -11.994  10.946  69.257  0.00  0.00    +0.047 C 
ENDBRANCH  19  21
ENDBRANCH  18  19
ENDBRANCH   1  18
TORSDOF 10
ENDMDL
MODEL 2
REMARK VINA RESULT:      -5.3      3.049      4.698
REMARK  Name = 
REMARK  10 active torsions:
REMARK  status: ('A' for Active; 'I' for Inactive)
REMARK    1  A    between atoms: C_2  and  C_3
REMARK    2  A    between atoms: C_3  and  O_4
REMARK    3  A    between atoms: O_4  and  C_5
REMARK    4  A    between atoms: C_8  and  C_9
REMARK    5  A    between atoms: C_9  and  O_11
REMARK    6  A    between atoms: O_11  and  C_12
REMARK    7  A    between atoms: C_12  and  C_13
REMARK    8  A    between atoms: C_13  and  N_14
REMARK    9  A    between atoms: N_14  and  C_15
REMARK   10  A    between atoms: N_14  and  C_17
REMARK                            x       y       z     vdW  Elec       q    Type
REMARK                         _______ _______ _______ _____ _____    ______ ____
ROOT
ATOM      1  C   UNL     1     -10.647  14.615  65.152  0.00  0.00    +0.155 A 
ATOM      2  C   UNL     1     -10.831  15.944  65.472  0.00  0.00    +0.123 A 
ATOM      3  N   UNL     1     -11.157  16.820  64.392  0.00  0.00    -0.125 NA
ATOM      4  C   UNL     1     -10.442  16.401  66.713  0.00  0.00    +0.028 A 
ATOM      5  C   UNL     1      -9.721  15.600  67.559  0.00  0.00    +0.077 A 
ATOM      6  C   UNL     1      -9.211  14.408  67.067  0.00  0.00    +0.010 A 
ATOM      7  C   UNL     1      -9.847  13.842  65.983  0.00  0.00    +0.039 A 
ENDROOT
BRANCH   5   8
ATOM      8  C   UNL     1      -9.305  15.997  68.892  0.00  0.00    +0.341 C 
ATOM      9  O   UNL     1      -8.311  16.743  69.082  0.00  0.00    -0.245 OA
BRANCH   8  10
ATOM     10  O   UNL     1      -9.947  15.415  69.972  0.00  0.00    -0.444 OA
BRANCH  10  11
ATOM     11  C   UNL     1     -11.267  15.787  70.334  0.00  0.00    +0.226 C 
BRANCH  11  12
ATOM     12  C   UNL     1     -12.145  14.591  70.587  0.00  0.00    +0.120 C 
BRANCH  12  13
ATOM     13  N   UNL     1     -12.547  14.537  71.968  0.00  0.00    -0.270 NA
BRANCH  13  14
ATOM     14  C   UNL     1     -12.355  15.777  72.676  0.00  0.00    +0.072 C 
ATOM     15  C   UNL     1     -12.434  15.625  74.175  0.00  0.00    +0.019 C 
ENDBRANCH  13  14
BRANCH  13  16
ATOM     16  C   UNL     1     -13.875  14.000  72.116  0.00  0.00    +0.072 C 
ATOM     17  C   UNL     1     -14.839  15.029  71.557  0.00  0.00    +0.019 C 
ENDBRANCH  13  16
ENDBRANCH  12  13
ENDBRANCH  11  12
ENDBRANCH  10  11
ENDBRANCH   8  10
ENDBRANCH   5   8
BRANCH   1  18
ATOM     18  O   UNL     1     -11.514  14.032  64.238  0.00  0.00    -0.474 OA
BRANCH  18  19
ATOM     19  C   UNL     1     -12.351  12.985  64.660  0.00  0.00    +0.205 C 
BRANCH  19  21
ATOM     20  C   UNL     1     -10.914  11.394  63.435  0.00  0.00    +0.004 C 
ATOM     21  C   UNL     1     -12.343  11.851  63.647  0.00  0.00    +0.047 C 
ENDBRANCH  19  21
ENDBRANCH  18  19
ENDBRANCH   1  18
TORSDOF 10
ENDMDL
MODEL 3
REMARK VINA RESULT:      -5.1      2.895      4.051
REMARK  Name = 
REMARK  10 active torsions:
REMARK  status: ('A' for Active; 'I' for Inactive)
REMARK    1  A    between atoms: C_2  and  C_3
REMARK    2  A    between atoms: C_3  and  O_4
REMARK    3  A    between atoms: O_4  and  C_5
REMARK    4  A    between atoms: C_8  and  C_9
REMARK    5  A    between atoms: C_9  and  O_11
REMARK    6  A    between atoms: O_11  and  C_12
REMARK    7  A    between atoms: C_12  and  C_13
REMARK    8  A    between atoms: C_13  and  N_14
REMARK    9  A    between atoms: N_14  and  C_15
REMARK   10  A    between atoms: N_14  and  C_17
REMARK                            x       y       z     vdW  Elec       q    Type
REMARK                         _______ _______ _______ _____ _____    ______ ____
ROOT
ATOM      1  C   UNL     1     -10.829  12.641  65.734  0.00  0.00    +0.155 A 
ATOM      2  C   UNL     1     -12.048  13.260  65.912  0.00  0.00    +0.123 A 
ATOM      3  N   UNL     1     -13.079  12.913  64.988  0.00  0.00    -0.125 NA
ATOM      4  C   UNL     1     -12.139  14.341  66.763  0.00  0.00    +0.028 A 
ATOM      5  C   UNL     1     -11.013  14.913  67.292  0.00  0.00    +0.077 A 
ATOM      6  C   UNL     1      -9.778  14.523  66.794  0.00  0.00    +0.010 A 
ATOM      7  C   UNL     1      -9.690  13.278  66.210  0.00  0.00    +0.039 A 
ENDROOT
BRANCH   5   8
ATOM      8  C   UNL     1     -11.030  16.030  68.220  0.00  0.00    +0.341 C 
ATOM      9  O   UNL     1     -10.106  16.882  68.248  0.00  0.00    -0.245 OA
BRANCH   8  10
ATOM     10  O   UNL     1     -12.025  16.057  69.181  0.00  0.00    -0.444 OA
BRANCH  10  11
ATOM     11  C   UNL     1     -11.725  15.908  70.560  0.00  0.00    +0.226 C 
BRANCH  11  12
ATOM     12  C   UNL     1     -11.982  14.508  71.047  0.00  0.00    +0.120 C 
BRANCH  12  13
ATOM     13  N   UNL     1     -12.750  14.525  72.265  0.00  0.00    -0.270 NA
BRANCH  13  14
ATOM     14  C   UNL     1     -12.813  15.821  72.891  0.00  0.00    +0.072 C 
ATOM     15  C   UNL     1     -12.467  15.790  74.359  0.00  0.00    +0.019 C 
ENDBRANCH  13  14
BRANCH  13  16
ATOM     16  C   UNL     1     -14.045  13.919  72.087  0.00  0.00    +0.072 C 
ATOM     17  C   UNL     1     -14.987  15.006  71.606  0.00  0.00    +0.019 C 
ENDBRANCH  13  16
ENDBRANCH  12  13
ENDBRANCH  11  12
ENDBRANCH  10  11
ENDBRANCH   8  10
ENDBRANCH   5   8
BRANCH   1  18
ATOM     18  O   UNL     1     -10.817  11.292  65.407  0.00  0.00    -0.474 OA
BRANCH  18  19
ATOM     19  C   UNL     1      -9.647  10.544  65.621  0.00  0.00    +0.205 C 
BRANCH  19  21
ATOM     20  C   UNL     1     -10.743   9.543  67.594  0.00  0.00    +0.004 C 
ATOM     21  C   UNL     1      -9.967   9.238  66.328  0.00  0.00    +0.047 C 
ENDBRANCH  19  21
ENDBRANCH  18  19
ENDBRANCH   1  18
TORSDOF 10
ENDMDL
MODEL 4
REMARK VINA RESULT:      -5.1      1.056      1.636
REMARK  Name = 
REMARK  10 active torsions:
REMARK  status: ('A' for Active; 'I' for Inactive)
REMARK    1  A    between atoms: C_2  and  C_3
REMARK    2  A    between atoms: C_3  and  O_4
REMARK    3  A    between atoms: O_4  and  C_5
REMARK    4  A    between atoms: C_8  and  C_9
REMARK    5  A    between atoms: C_9  and  O_11
REMARK    6  A    between atoms: O_11  and  C_12
REMARK    7  A    between atoms: C_12  and  C_13
REMARK    8  A    between atoms: C_13  and  N_14
REMARK    9  A    between atoms: N_14  and  C_15
REMARK   10  A    between atoms: N_14  and  C_17
REMARK                            x       y       z     vdW  Elec       q    Type
REMARK                         _______ _______ _______ _____ _____    ______ ____
ROOT
ATOM      1  C   UNL     1     -11.533  12.535  66.367  0.00  0.00    +0.155 A 
ATOM      2  C   UNL     1     -12.293  13.099  65.363  0.00  0.00    +0.123 A 
ATOM      3  N   UNL     1     -13.091  12.201  64.590  0.00  0.00    -0.125 NA
ATOM      4  C   UNL     1     -12.056  14.403  64.986  0.00  0.00    +0.028 A 
ATOM      5  C   UNL     1     -10.968  15.083  65.467  0.00  0.00    +0.077 A 
ATOM      6  C   UNL     1     -10.003  14.376  66.167  0.00  0.00    +0.010 A 
ATOM      7  C   UNL     1     -10.391  13.207  66.784  0.00  0.00    +0.039 A 
ENDROOT
BRANCH   5   8
ATOM      8  C   UNL     1     -10.670  16.467  65.142  0.00  0.00    +0.341 C 
ATOM      9  O   UNL     1     -11.298  17.088  64.248  0.00  0.00    -0.245 OA
BRANCH   8  10
ATOM     10  O   UNL     1      -9.570  17.051  65.747  0.00  0.00    -0.444 OA
BRANCH  10  11
ATOM     11  C   UNL     1      -9.703  18.200  66.569  0.00  0.00    +0.226 C 
BRANCH  11  12
ATOM     12  C   UNL     1      -9.552  17.873  68.030  0.00  0.00    +0.120 C 
BRANCH  12  13
ATOM     13  N   UNL     1      -8.333  18.431  68.554  0.00  0.00    -0.270 NA
BRANCH  13  14
ATOM     14  C   UNL     1      -7.295  17.456  68.768  0.00  0.00    +0.072 C 
ATOM     15  C   UNL     1      -7.816  16.043  68.855  0.00  0.00    +0.019 C 
ENDBRANCH  13  14
BRANCH  13  16
ATOM     16  C   UNL     1      -7.894  19.567  67.785  0.00  0.00    +0.072 C 
ATOM     17  C   UNL     1      -6.461  19.855  68.190  0.00  0.00    +0.019 C 
ENDBRANCH  13  16
ENDBRANCH  12  13
ENDBRANCH  11  12
ENDBRANCH  10  11
ENDBRANCH   8  10
ENDBRANCH   5   8
BRANCH   1  18
ATOM     18  O   UNL     1     -12.101  11.530  67.138  0.00  0.00    -0.474 OA
BRANCH  18  19
ATOM     19  C   UNL     1     -11.304  10.853  68.077  0.00  0.00    +0.205 C 
BRANCH  19  21
ATOM     20  C   UNL     1     -11.943  12.125  70.094  0.00  0.00    +0.004 C 
ATOM     21  C   UNL     1     -12.012  10.770  69.419  0.00  0.00    +0.047 C 
ENDBRANCH  19  21
ENDBRANCH  18  19
ENDBRANCH   1  18
TORSDOF 10
ENDMDL
MODEL 5
REMARK VINA RESULT:      -5.0      2.507      6.378
REMARK  Name = 
REMARK  10 active torsions:
REMARK  status: ('A' for Active; 'I' for Inactive)
REMARK    1  A    between atoms: C_2  and  C_3
REMARK    2  A    between atoms: C_3  and  O_4
REMARK    3  A    between atoms: O_4  and  C_5
REMARK    4  A    between atoms: C_8  and  C_9
REMARK    5  A    between atoms: C_9  and  O_11
REMARK    6  A    between atoms: O_11  and  C_12
REMARK    7  A    between atoms: C_12  and  C_13
REMARK    8  A    between atoms: C_13  and  N_14
REMARK    9  A    between atoms: N_14  and  C_15
REMARK   10  A    between atoms: N_14  and  C_17
REMARK                            x       y       z     vdW  Elec       q    Type
REMARK                         _______ _______ _______ _____ _____    ______ ____
ROOT
ATOM      1  C   UNL     1      -9.986  16.289  66.085  0.00  0.00    +0.155 A 
ATOM      2  C   UNL     1     -10.866  15.845  65.119  0.00  0.00    +0.123 A 
ATOM      3  N   UNL     1     -11.340  16.823  64.194  0.00  0.00    -0.125 NA
ATOM      4  C   UNL     1     -11.437  14.597  65.248  0.00  0.00    +0.028 A 
ATOM      5  C   UNL     1     -11.282  13.872  66.399  0.00  0.00    +0.077 A 
ATOM      6  C   UNL     1     -10.723  14.496  67.504  0.00  0.00    +0.010 A 
ATOM      7  C   UNL     1      -9.904  15.580  67.277  0.00  0.00    +0.039 A 
ENDROOT
BRANCH   5   8
ATOM      8  C   UNL     1     -11.824  12.539  66.596  0.00  0.00    +0.341 C 
ATOM      9  O   UNL     1     -12.182  11.820  65.629  0.00  0.00    -0.245 OA
BRANCH   8  10
ATOM     10  O   UNL     1     -12.075  12.127  67.894  0.00  0.00    -0.444 OA
BRANCH  10  11
ATOM     11  C   UNL     1     -11.524  10.925  68.407  0.00  0.00    +0.226 C 
BRANCH  11  12
ATOM     12  C   UNL     1     -11.207  11.027  69.874  0.00  0.00    +0.120 C 
BRANCH  12  13
ATOM     13  N   UNL     1     -11.833   9.958  70.607  0.00  0.00    -0.270 NA
BRANCH  13  14
ATOM     14  C   UNL     1     -10.901   9.110  71.305  0.00  0.00    +0.072 C 
ATOM     15  C   UNL     1     -10.414   7.950  70.473  0.00  0.00    +0.019 C 
ENDBRANCH  13  14
BRANCH  13  16
ATOM     16  C   UNL     1     -12.899  10.441  71.447  0.00  0.00    +0.072 C 
ATOM     17  C   UNL     1     -13.464   9.244  72.187  0.00  0.00    +0.019 C 
ENDBRANCH  13  16
ENDBRANCH  12  13
ENDBRANCH  11  12
ENDBRANCH  10  11
ENDBRANCH   8  10
ENDBRANCH   5   8
BRANCH   1  18
ATOM     18  O   UNL     1      -8.999  17.191  65.712  0.00  0.00    -0.474 OA
BRANCH  18  19
ATOM     19  C   UNL     1      -8.783  18.336  66.497  0.00  0.00    +0.205 C 
BRANCH  19  21
ATOM     20  C   UNL     1     -10.097  19.957  67.817  0.00  0.00    +0.004 C 
ATOM     21  C   UNL     1     -10.012  19.230  66.490  0.00  0.00    +0.047 C 
ENDBRANCH  19  21
ENDBRANCH  18  19
ENDBRANCH   1  18
TORSDOF 10
ENDMDL
MODEL 6
REMARK VINA RESULT:      -4.9      2.124      5.402
REMARK  Name = 
REMARK  10 active torsions:
REMARK  status: ('A' for Active; 'I' for Inactive)
REMARK    1  A    between atoms: C_2  and  C_3
REMARK    2  A    between atoms: C_3  and  O_4
REMARK    3  A    between atoms: O_4  and  C_5
REMARK    4  A    between atoms: C_8  and  C_9
REMARK    5  A    between atoms: C_9  and  O_11
REMARK    6  A    between atoms: O_11  and  C_12
REMARK    7  A    between atoms: C_12  and  C_13
REMARK    8  A    between atoms: C_13  and  N_14
REMARK    9  A    between atoms: N_14  and  C_15
REMARK   10  A    between atoms: N_14  and  C_17
REMARK                            x       y       z     vdW  Elec       q    Type
REMARK                         _______ _______ _______ _____ _____    ______ ____
ROOT
ATOM      1  C   UNL     1     -10.824  16.263  67.552  0.00  0.00    +0.155 A 
ATOM      2  C   UNL     1     -11.492  15.115  67.925  0.00  0.00    +0.123 A 
ATOM      3  N   UNL     1     -11.445  14.774  69.311  0.00  0.00    -0.125 NA
ATOM      4  C   UNL     1     -11.925  14.239  66.954  0.00  0.00    +0.028 A 
ATOM      5  C   UNL     1     -11.550  14.401  65.647  0.00  0.00    +0.077 A 
ATOM      6  C   UNL     1     -10.564  15.331  65.353  0.00  0.00    +0.010 A 
ATOM      7  C   UNL     1     -10.384  16.371  66.239  0.00  0.00    +0.039 A 
ENDROOT
BRANCH   5   8
ATOM      8  C   UNL     1     -11.992  13.541  64.564  0.00  0.00    +0.341 C 
ATOM      9  O   UNL     1     -12.607  13.994  63.566  0.00  0.00    -0.245 OA
BRANCH   8  10
ATOM     10  O   UNL     1     -11.845  12.173  64.723  0.00  0.00    -0.444 OA
BRANCH  10  11
ATOM     11  C   UNL     1     -10.572  11.552  64.641  0.00  0.00    +0.226 C 
BRANCH  11  12
ATOM     12  C   UNL     1     -10.284  10.689  65.839  0.00  0.00    +0.120 C 
BRANCH  12  13
ATOM     13  N   UNL     1      -9.819  11.487  66.943  0.00  0.00    -0.270 NA
BRANCH  13  14
ATOM     14  C   UNL     1     -10.110  10.916  68.233  0.00  0.00    +0.072 C 
ATOM     15  C   UNL     1     -11.583  10.898  68.556  0.00  0.00    +0.019 C 
ENDBRANCH  13  14
BRANCH  13  16
ATOM     16  C   UNL     1      -8.435  11.857  66.787  0.00  0.00    +0.072 C 
ATOM     17  C   UNL     1      -8.273  13.244  67.378  0.00  0.00    +0.019 C 
ENDBRANCH  13  16
ENDBRANCH  12  13
ENDBRANCH  11  12
ENDBRANCH  10  11
ENDBRANCH   8  10
ENDBRANCH   5   8
BRANCH   1  18
ATOM     18  O   UNL     1     -10.915  17.376  68.376  0.00  0.00    -0.474 OA
BRANCH  18  19
ATOM     19  C   UNL     1      -9.818  18.247  68.476  0.00  0.00    +0.205 C 
BRANCH  19  21
ATOM     20  C   UNL     1      -9.460  19.968  66.742  0.00  0.00    +0.004 C 
ATOM     21  C   UNL     1     -10.201  19.647  68.025  0.00  0.00    +0.047 C 
ENDBRANCH  19  21
ENDBRANCH  18  19
ENDBRANCH   1  18
TORSDOF 10
ENDMDL
MODEL 7
REMARK VINA RESULT:      -4.9      2.629      6.406
REMARK  Name = 
REMARK  10 active torsions:
REMARK  status: ('A' for Active; 'I' for Inactive)
REMARK    1  A    between atoms: C_2  and  C_3
REMARK    2  A    between atoms: C_3  and  O_4
REMARK    3  A    between atoms: O_4  and  C_5
REMARK    4  A    between atoms: C_8  and  C_9
REMARK    5  A    between atoms: C_9  and  O_11
REMARK    6  A    between atoms: O_11  and  C_12
REMARK    7  A    between atoms: C_12  and  C_13
REMARK    8  A    between atoms: C_13  and  N_14
REMARK    9  A    between atoms: N_14  and  C_15
REMARK   10  A    between atoms: N_14  and  C_17
REMARK                            x       y       z     vdW  Elec       q    Type
REMARK                         _______ _______ _______ _____ _____    ______ ____
ROOT
ATOM      1  C   UNL     1      -9.848  16.575  66.189  0.00  0.00    +0.155 A 
ATOM      2  C   UNL     1     -10.690  15.934  65.304  0.00  0.00    +0.123 A 
ATOM      3  N   UNL     1     -11.254  16.737  64.267  0.00  0.00    -0.125 NA
ATOM      4  C   UNL     1     -11.150  14.669  65.605  0.00  0.00    +0.028 A 
ATOM      5  C   UNL     1     -10.925  14.117  66.838  0.00  0.00    +0.077 A 
ATOM      6  C   UNL     1     -10.417  14.927  67.842  0.00  0.00    +0.010 A 
ATOM      7  C   UNL     1      -9.697  16.039  67.461  0.00  0.00    +0.039 A 
ENDROOT
BRANCH   5   8
ATOM      8  C   UNL     1     -11.348  12.781  67.217  0.00  0.00    +0.341 C 
ATOM      9  O   UNL     1     -12.111  12.096  66.489  0.00  0.00    -0.245 OA
BRANCH   8  10
ATOM     10  O   UNL     1     -11.003  12.326  68.478  0.00  0.00    -0.444 OA
BRANCH  10  11
ATOM     11  C   UNL     1     -11.540  11.121  69.001  0.00  0.00    +0.226 C 
BRANCH  11  12
ATOM     12  C   UNL     1     -12.085  11.299  70.392  0.00  0.00    +0.120 C 
BRANCH  12  13
ATOM     13  N   UNL     1     -12.122  10.041  71.091  0.00  0.00    -0.270 NA
BRANCH  13  14
ATOM     14  C   UNL     1     -13.442   9.476  71.196  0.00  0.00    +0.072 C 
ATOM     15  C   UNL     1     -13.740   8.909  72.561  0.00  0.00    +0.019 C 
ENDBRANCH  13  14
BRANCH  13  16
ATOM     16  C   UNL     1     -11.149   9.115  70.571  0.00  0.00    +0.072 C 
ATOM     17  C   UNL     1     -10.158   8.833  71.684  0.00  0.00    +0.019 C 
ENDBRANCH  13  16
ENDBRANCH  12  13
ENDBRANCH  11  12
ENDBRANCH  10  11
ENDBRANCH   8  10
ENDBRANCH   5   8
BRANCH   1  18
ATOM     18  O   UNL     1      -8.945  17.501  65.684  0.00  0.00    -0.474 OA
BRANCH  18  19
ATOM     19  C   UNL     1      -8.676  18.668  66.419  0.00  0.00    +0.205 C 
BRANCH  19  21
ATOM     20  C   UNL     1     -10.154  20.029  67.854  0.00  0.00    +0.004 C 
ATOM     21  C   UNL     1      -9.886  19.586  66.429  0.00  0.00    +0.047 C 
ENDBRANCH  19  21
ENDBRANCH  18  19
ENDBRANCH   1  18
TORSDOF 10
ENDMDL
MODEL 8
REMARK VINA RESULT:      -4.9      3.035      5.583
REMARK  Name = 
REMARK  10 active torsions:
REMARK  status: ('A' for Active; 'I' for Inactive)
REMARK    1  A    between atoms: C_2  and  C_3
REMARK    2  A    between atoms: C_3  and  O_4
REMARK    3  A    between atoms: O_4  and  C_5
REMARK    4  A    between atoms: C_8  and  C_9
REMARK    5  A    between atoms: C_9  and  O_11
REMARK    6  A    between atoms: O_11  and  C_12
REMARK    7  A    between atoms: C_12  and  C_13
REMARK    8  A    between atoms: C_13  and  N_14
REMARK    9  A    between atoms: N_14  and  C_15
REMARK   10  A    between atoms: N_14  and  C_17
REMARK                            x       y       z     vdW  Elec       q    Type
REMARK                         _______ _______ _______ _____ _____    ______ ____
ROOT
ATOM      1  C   UNL     1     -11.188  14.282  68.817  0.00  0.00    +0.155 A 
ATOM      2  C   UNL     1     -11.531  13.023  68.370  0.00  0.00    +0.123 A 
ATOM      3  N   UNL     1     -11.115  11.925  69.183  0.00  0.00    -0.125 NA
ATOM      4  C   UNL     1     -11.996  12.866  67.082  0.00  0.00    +0.028 A 
ATOM      5  C   UNL     1     -11.957  13.906  66.191  0.00  0.00    +0.077 A 
ATOM      6  C   UNL     1     -11.252  15.048  66.540  0.00  0.00    +0.010 A 
ATOM      7  C   UNL     1     -11.078  15.305  67.882  0.00  0.00    +0.039 A 
ENDROOT
BRANCH   5   8
ATOM      8  C   UNL     1     -12.458  13.827  64.831  0.00  0.00    +0.341 C 
ATOM      9  O   UNL     1     -12.590  14.850  64.113  0.00  0.00    -0.245 OA
BRANCH   8  10
ATOM     10  O   UNL     1     -12.928  12.603  64.384  0.00  0.00    -0.444 OA
BRANCH  10  11
ATOM     11  C   UNL     1     -12.275  11.898  63.341  0.00  0.00    +0.226 C 
BRANCH  11  12
ATOM     12  C   UNL     1     -10.777  12.011  63.431  0.00  0.00    +0.120 C 
BRANCH  12  13
ATOM     13  N   UNL     1     -10.193  10.753  63.819  0.00  0.00    -0.270 NA
BRANCH  13  14
ATOM     14  C   UNL     1      -9.423  10.127  62.775  0.00  0.00    +0.072 C 
ATOM     15  C   UNL     1      -7.935  10.181  63.020  0.00  0.00    +0.019 C 
ENDBRANCH  13  14
BRANCH  13  16
ATOM     16  C   UNL     1      -9.479  10.859  65.065  0.00  0.00    +0.072 C 
ATOM     17  C   UNL     1     -10.123   9.888  66.035  0.00  0.00    +0.019 C 
ENDBRANCH  13  16
ENDBRANCH  12  13
ENDBRANCH  11  12
ENDBRANCH  10  11
ENDBRANCH   8  10
ENDBRANCH   5   8
BRANCH   1  18
ATOM     18  O   UNL     1     -11.302  14.554  70.173  0.00  0.00    -0.474 OA
BRANCH  18  19
ATOM     19  C   UNL     1     -12.553  14.918  70.698  0.00  0.00    +0.205 C 
BRANCH  19  21
ATOM     20  C   UNL     1     -13.630  15.719  72.770  0.00  0.00    +0.004 C 
ATOM     21  C   UNL     1     -12.385  15.816  71.912  0.00  0.00    +0.047 C 
ENDBRANCH  19  21
ENDBRANCH  18  19
ENDBRANCH   1  18
TORSDOF 10
ENDMDL
MODEL 9
REMARK VINA RESULT:      -4.9      2.252      3.480
REMARK  Name = 
REMARK  10 active torsions:
REMARK  status: ('A' for Active; 'I' for Inactive)
REMARK    1  A    between atoms: C_2  and  C_3
REMARK    2  A    between atoms: C_3  and  O_4
REMARK    3  A    between atoms: O_4  and  C_5
REMARK    4  A    between atoms: C_8  and  C_9
REMARK    5  A    between atoms: C_9  and  O_11
REMARK    6  A    between atoms: O_11  and  C_12
REMARK    7  A    between atoms: C_12  and  C_13
REMARK    8  A    between atoms: C_13  and  N_14
REMARK    9  A    between atoms: N_14  and  C_15
REMARK   10  A    between atoms: N_14  and  C_17
REMARK                            x       y       z     vdW  Elec       q    Type
REMARK                         _______ _______ _______ _____ _____    ______ ____
ROOT
ATOM      1  C   UNL     1     -11.908  14.025  68.817  0.00  0.00    +0.155 A 
ATOM      2  C   UNL     1     -11.656  15.351  69.103  0.00  0.00    +0.123 A 
ATOM      3  N   UNL     1     -12.330  15.895  70.239  0.00  0.00    -0.125 NA
ATOM      4  C   UNL     1     -11.012  16.133  68.169  0.00  0.00    +0.028 A 
ATOM      5  C   UNL     1     -10.779  15.664  66.904  0.00  0.00    +0.077 A 
ATOM      6  C   UNL     1     -11.384  14.478  66.516  0.00  0.00    +0.010 A 
ATOM      7  C   UNL     1     -11.739  13.590  67.508  0.00  0.00    +0.039 A 
ENDROOT
BRANCH   5   8
ATOM      8  C   UNL     1     -10.079  16.415  65.877  0.00  0.00    +0.341 C 
ATOM      9  O   UNL     1     -10.691  16.986  64.939  0.00  0.00    -0.245 OA
BRANCH   8  10
ATOM     10  O   UNL     1      -8.695  16.370  65.872  0.00  0.00    -0.444 OA
BRANCH  10  11
ATOM     11  C   UNL     1      -7.918  17.523  66.156  0.00  0.00    +0.226 C 
BRANCH  11  12
ATOM     12  C   UNL     1      -7.625  17.662  67.625  0.00  0.00    +0.120 C 
BRANCH  12  13
ATOM     13  N   UNL     1      -8.041  18.953  68.108  0.00  0.00    -0.270 NA
BRANCH  13  14
ATOM     14  C   UNL     1      -6.958  19.760  68.608  0.00  0.00    +0.072 C 
ATOM     15  C   UNL     1      -6.538  20.850  67.654  0.00  0.00    +0.019 C 
ENDBRANCH  13  14
BRANCH  13  16
ATOM     16  C   UNL     1      -8.864  19.641  67.146  0.00  0.00    +0.072 C 
ATOM     17  C   UNL     1     -10.230  19.829  67.777  0.00  0.00    +0.019 C 
ENDBRANCH  13  16
ENDBRANCH  12  13
ENDBRANCH  11  12
ENDBRANCH  10  11
ENDBRANCH   8  10
ENDBRANCH   5   8
BRANCH   1  18
ATOM     18  O   UNL     1     -11.982  13.126  69.872  0.00  0.00    -0.474 OA
BRANCH  18  19
ATOM     19  C   UNL     1     -11.790  11.757  69.621  0.00  0.00    +0.205 C 
BRANCH  19  21
ATOM     20  C   UNL     1     -13.100  11.788  71.715  0.00  0.00    +0.004 C 
ATOM     21  C   UNL     1     -12.242  10.925  70.811  0.00  0.00    +0.047 C 
ENDBRANCH  19  21
ENDBRANCH  18  19
ENDBRANCH   1  18
TORSDOF 10
ENDMDL
