MODEL 1
REMARK VINA RESULT:      -7.4      0.000      0.000
REMARK  Name = 
REMARK  3 active torsions:
REMARK  status: ('A' for Active; 'I' for Inactive)
REMARK    1  A    between atoms: N_4  and  C_5
REMARK    2  A    between atoms: N_17  and  C_18
REMARK    3  A    between atoms: C_18  and  C_19
REMARK                            x       y       z     vdW  Elec       q    Type
REMARK                         _______ _______ _______ _____ _____    ______ ____
ROOT
ATOM      1  O   UNL     1     -10.935  15.020  64.652  0.00  0.00    -0.258 OA
ATOM      2  C   UNL     1     -10.838  14.849  65.906  0.00  0.00    +0.312 A 
ATOM      3  N   UNL     1      -9.863  15.307  66.731  0.00  0.00    -0.237 N 
ATOM      4  C   UNL     1      -9.847  14.633  67.888  0.00  0.00    +0.344 A 
ATOM      5  O   UNL     1      -8.778  14.351  68.512  0.00  0.00    -0.245 OA
ATOM      6  N   UNL     1     -11.079  14.582  68.452  0.00  0.00    -0.226 N 
ATOM      7  S   UNL     1     -12.035  14.404  67.060  0.00  0.00    +0.060 S 
ENDROOT
BRANCH   6   8
ATOM      8  C   UNL     1     -11.425  14.490  69.839  0.00  0.00    +0.075 A 
ATOM      9  C   UNL     1     -11.923  13.265  70.267  0.00  0.00    +0.017 A 
ATOM     10  C   UNL     1     -12.930  13.180  71.223  0.00  0.00    +0.001 A 
ATOM     11  C   UNL     1     -13.251  11.943  71.767  0.00  0.00    +0.000 A 
ATOM     12  C   UNL     1     -12.491  10.838  71.403  0.00  0.00    +0.000 A 
ATOM     13  C   UNL     1     -11.816  10.918  70.198  0.00  0.00    +0.000 A 
ATOM     14  C   UNL     1     -13.480  14.311  71.757  0.00  0.00    +0.000 A 
ATOM     15  C   UNL     1     -13.041  15.533  71.326  0.00  0.00    +0.002 A 
ATOM     16  C   UNL     1     -11.750  12.119  69.500  0.00  0.00    +0.001 A 
ATOM     17  C   UNL     1     -11.952  15.605  70.466  0.00  0.00    +0.018 A 
ENDBRANCH   6   8
BRANCH   3  18
ATOM     18  C   UNL     1      -8.804  16.176  66.220  0.00  0.00    +0.141 C 
BRANCH  18  19
ATOM     19  C   UNL     1      -8.983  17.587  66.679  0.00  0.00    +0.001 A 
ATOM     20  C   UNL     1     -10.243  18.125  66.441  0.00  0.00    -0.002 A 
ATOM     21  C   UNL     1     -10.770  19.137  67.202  0.00  0.00    -0.000 A 
ATOM     22  C   UNL     1     -10.018  19.717  68.195  0.00  0.00    -0.000 A 
ATOM     23  C   UNL     1      -8.815  19.104  68.522  0.00  0.00    -0.000 A 
ATOM     24  C   UNL     1      -8.447  17.906  67.922  0.00  0.00    -0.002 A 
ENDBRANCH  18  19
ENDBRANCH   3  18
TORSDOF 3
ENDMDL
MODEL 2
REMARK VINA RESULT:      -7.4      1.618      2.937
REMARK  Name = 
REMARK  3 active torsions:
REMARK  status: ('A' for Active; 'I' for Inactive)
REMARK    1  A    between atoms: N_4  and  C_5
REMARK    2  A    between atoms: N_17  and  C_18
REMARK    3  A    between atoms: C_18  and  C_19
REMARK                            x       y       z     vdW  Elec       q    Type
REMARK                         _______ _______ _______ _____ _____    ______ ____
ROOT
ATOM      1  O   UNL     1     -11.322  16.604  63.853  0.00  0.00    -0.258 OA
ATOM      2  C   UNL     1     -11.224  15.581  64.598  0.00  0.00    +0.312 A 
ATOM      3  N   UNL     1     -10.322  15.361  65.587  0.00  0.00    -0.237 N 
ATOM      4  C   UNL     1     -10.244  14.060  65.895  0.00  0.00    +0.344 A 
ATOM      5  O   UNL     1      -9.158  13.489  66.221  0.00  0.00    -0.245 OA
ATOM      6  N   UNL     1     -11.469  13.529  66.127  0.00  0.00    -0.226 N 
ATOM      7  S   UNL     1     -12.377  14.354  64.953  0.00  0.00    +0.060 S 
ENDROOT
BRANCH   6   8
ATOM      8  C   UNL     1     -11.821  12.431  66.979  0.00  0.00    +0.075 A 
ATOM      9  C   UNL     1     -11.913  12.713  68.336  0.00  0.00    +0.017 A 
ATOM     10  C   UNL     1     -11.505  11.799  69.301  0.00  0.00    +0.001 A 
ATOM     11  C   UNL     1     -11.803  12.038  70.637  0.00  0.00    +0.000 A 
ATOM     12  C   UNL     1     -12.582  13.143  70.958  0.00  0.00    +0.000 A 
ATOM     13  C   UNL     1     -12.596  14.180  70.041  0.00  0.00    +0.000 A 
ATOM     14  C   UNL     1     -10.975  10.593  68.938  0.00  0.00    +0.000 A 
ATOM     15  C   UNL     1     -10.831  10.302  67.608  0.00  0.00    +0.002 A 
ATOM     16  C   UNL     1     -12.021  14.025  68.785  0.00  0.00    +0.001 A 
ATOM     17  C   UNL     1     -11.356  11.168  66.658  0.00  0.00    +0.018 A 
ENDBRANCH   6   8
BRANCH   3  18
ATOM     18  C   UNL     1      -9.364  16.400  65.965  0.00  0.00    +0.141 C 
BRANCH  18  19
ATOM     19  C   UNL     1     -10.025  17.505  66.723  0.00  0.00    +0.001 A 
ATOM     20  C   UNL     1      -9.777  17.507  68.091  0.00  0.00    -0.002 A 
ATOM     21  C   UNL     1      -9.831  18.648  68.850  0.00  0.00    -0.000 A 
ATOM     22  C   UNL     1     -10.218  19.838  68.281  0.00  0.00    -0.000 A 
ATOM     23  C   UNL     1     -10.343  19.870  66.898  0.00  0.00    -0.000 A 
ATOM     24  C   UNL     1     -10.000  18.763  66.132  0.00  0.00    -0.002 A 
ENDBRANCH  18  19
ENDBRANCH   3  18
TORSDOF 3
ENDMDL
MODEL 3
REMARK VINA RESULT:      -7.3      2.972      5.824
REMARK  Name = 
REMARK  3 active torsions:
REMARK  status: ('A' for Active; 'I' for Inactive)
REMARK    1  A    between atoms: N_4  and  C_5
REMARK    2  A    between atoms: N_17  and  C_18
REMARK    3  A    between atoms: C_18  and  C_19
REMARK                            x       y       z     vdW  Elec       q    Type
REMARK                         _______ _______ _______ _____ _____    ______ ____
ROOT
ATOM      1  O   UNL     1     -10.258  16.840  68.606  0.00  0.00    -0.258 OA
ATOM      2  C   UNL     1     -10.639  15.716  68.156  0.00  0.00    +0.312 A 
ATOM      3  N   UNL     1     -11.743  15.012  68.514  0.00  0.00    -0.237 N 
ATOM      4  C   UNL     1     -11.639  13.726  68.153  0.00  0.00    +0.344 A 
ATOM      5  O   UNL     1     -12.097  12.771  68.852  0.00  0.00    -0.245 OA
ATOM      6  N   UNL     1     -11.295  13.602  66.847  0.00  0.00    -0.226 N 
ATOM      7  S   UNL     1     -10.212  14.902  66.702  0.00  0.00    +0.060 S 
ENDROOT
BRANCH   6   8
ATOM      8  C   UNL     1     -11.606  12.540  65.938  0.00  0.00    +0.075 A 
ATOM      9  C   UNL     1     -10.634  11.559  65.785  0.00  0.00    +0.017 A 
ATOM     10  C   UNL     1     -10.390  10.958  64.554  0.00  0.00    +0.001 A 
ATOM     11  C   UNL     1      -9.559   9.847  64.491  0.00  0.00    +0.000 A 
ATOM     12  C   UNL     1      -9.067   9.315  65.676  0.00  0.00    +0.000 A 
ATOM     13  C   UNL     1      -9.013  10.167  66.764  0.00  0.00    +0.000 A 
ATOM     14  C   UNL     1     -11.092  11.335  63.444  0.00  0.00    +0.000 A 
ATOM     15  C   UNL     1     -12.027  12.328  63.552  0.00  0.00    +0.002 A 
ATOM     16  C   UNL     1      -9.607  11.423  66.713  0.00  0.00    +0.001 A 
ATOM     17  C   UNL     1     -12.348  12.831  64.807  0.00  0.00    +0.018 A 
ENDBRANCH   6   8
BRANCH   3  18
ATOM     18  C   UNL     1     -12.707  15.571  69.461  0.00  0.00    +0.141 C 
BRANCH  18  19
ATOM     19  C   UNL     1     -12.414  15.138  70.861  0.00  0.00    +0.001 A 
ATOM     20  C   UNL     1     -11.859  16.120  71.674  0.00  0.00    -0.002 A 
ATOM     21  C   UNL     1     -11.997  16.115  73.039  0.00  0.00    -0.000 A 
ATOM     22  C   UNL     1     -12.637  15.071  73.663  0.00  0.00    -0.000 A 
ATOM     23  C   UNL     1     -13.302  14.158  72.855  0.00  0.00    -0.000 A 
ATOM     24  C   UNL     1     -13.382  14.357  71.483  0.00  0.00    -0.002 A 
ENDBRANCH  18  19
ENDBRANCH   3  18
TORSDOF 3
ENDMDL
MODEL 4
REMARK VINA RESULT:      -7.2      1.888      5.929
REMARK  Name = 
REMARK  3 active torsions:
REMARK  status: ('A' for Active; 'I' for Inactive)
REMARK    1  A    between atoms: N_4  and  C_5
REMARK    2  A    between atoms: N_17  and  C_18
REMARK    3  A    between atoms: C_18  and  C_19
REMARK                            x       y       z     vdW  Elec       q    Type
REMARK                         _______ _______ _______ _____ _____    ______ ____
ROOT
ATOM      1  O   UNL     1     -12.059  12.295  67.336  0.00  0.00    -0.258 OA
ATOM      2  C   UNL     1     -11.659  13.500  67.358  0.00  0.00    +0.312 A 
ATOM      3  N   UNL     1     -11.497  14.298  68.443  0.00  0.00    -0.237 N 
ATOM      4  C   UNL     1     -11.448  15.590  68.095  0.00  0.00    +0.344 A 
ATOM      5  O   UNL     1     -11.948  16.518  68.802  0.00  0.00    -0.245 OA
ATOM      6  N   UNL     1     -10.550  15.805  67.102  0.00  0.00    -0.226 N 
ATOM      7  S   UNL     1     -10.786  14.400  66.180  0.00  0.00    +0.060 S 
ENDROOT
BRANCH   6   8
ATOM      8  C   UNL     1      -9.791  16.988  66.824  0.00  0.00    +0.075 A 
ATOM      9  C   UNL     1      -8.787  17.301  67.733  0.00  0.00    +0.017 A 
ATOM     10  C   UNL     1      -8.497  18.616  68.077  0.00  0.00    +0.001 A 
ATOM     11  C   UNL     1      -7.359  18.891  68.825  0.00  0.00    +0.000 A 
ATOM     12  C   UNL     1      -6.496  17.847  69.132  0.00  0.00    +0.000 A 
ATOM     13  C   UNL     1      -7.034  16.572  69.118  0.00  0.00    +0.000 A 
ATOM     14  C   UNL     1      -9.214  19.650  67.543  0.00  0.00    +0.000 A 
ATOM     15  C   UNL     1     -10.237  19.374  66.677  0.00  0.00    +0.002 A 
ATOM     16  C   UNL     1      -8.315  16.347  68.628  0.00  0.00    +0.001 A 
ATOM     17  C   UNL     1     -10.435  18.068  66.246  0.00  0.00    +0.018 A 
ENDBRANCH   6   8
BRANCH   3  18
ATOM     18  C   UNL     1     -11.704  13.771  69.792  0.00  0.00    +0.141 C 
BRANCH  18  19
ATOM     19  C   UNL     1     -12.287  14.805  70.700  0.00  0.00    +0.001 A 
ATOM     20  C   UNL     1     -13.632  14.628  71.004  0.00  0.00    -0.002 A 
ATOM     21  C   UNL     1     -14.198  15.105  72.158  0.00  0.00    -0.000 A 
ATOM     22  C   UNL     1     -13.452  15.859  73.032  0.00  0.00    -0.000 A 
ATOM     23  C   UNL     1     -12.084  15.932  72.801  0.00  0.00    -0.000 A 
ATOM     24  C   UNL     1     -11.501  15.195  71.779  0.00  0.00    -0.002 A 
ENDBRANCH  18  19
ENDBRANCH   3  18
TORSDOF 3
ENDMDL
MODEL 5
REMARK VINA RESULT:      -7.0      2.844      4.850
REMARK  Name = 
REMARK  3 active torsions:
REMARK  status: ('A' for Active; 'I' for Inactive)
REMARK    1  A    between atoms: N_4  and  C_5
REMARK    2  A    between atoms: N_17  and  C_18
REMARK    3  A    between atoms: C_18  and  C_19
REMARK                            x       y       z     vdW  Elec       q    Type
REMARK                         _______ _______ _______ _____ _____    ______ ____
ROOT
ATOM      1  O   UNL     1     -11.244  15.668  69.957  0.00  0.00    -0.258 OA
ATOM      2  C   UNL     1     -11.339  15.044  68.855  0.00  0.00    +0.312 A 
ATOM      3  N   UNL     1     -10.634  15.262  67.716  0.00  0.00    -0.237 N 
ATOM      4  C   UNL     1     -11.240  14.716  66.655  0.00  0.00    +0.344 A 
ATOM      5  O   UNL     1     -11.239  15.251  65.504  0.00  0.00    -0.245 OA
ATOM      6  N   UNL     1     -11.558  13.417  66.877  0.00  0.00    -0.226 N 
ATOM      7  S   UNL     1     -12.009  13.497  68.512  0.00  0.00    +0.060 S 
ENDROOT
BRANCH   6   8
ATOM      8  C   UNL     1     -11.676  12.350  65.927  0.00  0.00    +0.075 A 
ATOM      9  C   UNL     1     -10.516  11.630  65.667  0.00  0.00    +0.017 A 
ATOM     10  C   UNL     1     -10.222  11.155  64.394  0.00  0.00    +0.001 A 
ATOM     11  C   UNL     1      -9.164  10.270  64.224  0.00  0.00    +0.000 A 
ATOM     12  C   UNL     1      -8.488   9.817  65.349  0.00  0.00    +0.000 A 
ATOM     13  C   UNL     1      -8.560  10.612  66.479  0.00  0.00    +0.000 A 
ATOM     14  C   UNL     1     -11.062  11.405  63.346  0.00  0.00    +0.000 A 
ATOM     15  C   UNL     1     -12.191  12.149  63.559  0.00  0.00    +0.002 A 
ATOM     16  C   UNL     1      -9.428  11.696  66.530  0.00  0.00    +0.001 A 
ATOM     17  C   UNL     1     -12.537  12.509  64.855  0.00  0.00    +0.018 A 
ENDBRANCH   6   8
BRANCH   3  18
ATOM     18  C   UNL     1      -9.560  16.255  67.685  0.00  0.00    +0.141 C 
BRANCH  18  19
ATOM     19  C   UNL     1     -10.102  17.645  67.590  0.00  0.00    +0.001 A 
ATOM     20  C   UNL     1      -9.780  18.474  68.658  0.00  0.00    -0.002 A 
ATOM     21  C   UNL     1      -9.714  19.839  68.541  0.00  0.00    -0.000 A 
ATOM     22  C   UNL     1     -10.049  20.446  67.354  0.00  0.00    -0.000 A 
ATOM     23  C   UNL     1     -10.245  19.624  66.252  0.00  0.00    -0.000 A 
ATOM     24  C   UNL     1     -10.021  18.256  66.343  0.00  0.00    -0.002 A 
ENDBRANCH  18  19
ENDBRANCH   3  18
TORSDOF 3
ENDMDL
MODEL 6
REMARK VINA RESULT:      -7.0      3.135      7.034
REMARK  Name = 
REMARK  3 active torsions:
REMARK  status: ('A' for Active; 'I' for Inactive)
REMARK    1  A    between atoms: N_4  and  C_5
REMARK    2  A    between atoms: N_17  and  C_18
REMARK    3  A    between atoms: C_18  and  C_19
REMARK                            x       y       z     vdW  Elec       q    Type
REMARK                         _______ _______ _______ _____ _____    ______ ____
ROOT
ATOM      1  O   UNL     1     -12.742  14.035  63.775  0.00  0.00    -0.258 OA
ATOM      2  C   UNL     1     -12.029  14.522  64.706  0.00  0.00    +0.312 A 
ATOM      3  N   UNL     1     -11.670  13.926  65.871  0.00  0.00    -0.237 N 
ATOM      4  C   UNL     1     -11.266  14.828  66.776  0.00  0.00    +0.344 A 
ATOM      5  O   UNL     1     -11.503  14.717  68.018  0.00  0.00    -0.245 OA
ATOM      6  N   UNL     1     -10.331  15.664  66.262  0.00  0.00    -0.226 N 
ATOM      7  S   UNL     1     -10.929  15.844  64.684  0.00  0.00    +0.060 S 
ENDROOT
BRANCH   6   8
ATOM      8  C   UNL     1      -9.275  16.350  66.945  0.00  0.00    +0.075 A 
ATOM      9  C   UNL     1      -9.353  17.738  66.957  0.00  0.00    +0.017 A 
ATOM     10  C   UNL     1      -8.217  18.534  66.862  0.00  0.00    +0.001 A 
ATOM     11  C   UNL     1      -8.321  19.901  67.084  0.00  0.00    +0.000 A 
ATOM     12  C   UNL     1      -9.546  20.419  67.485  0.00  0.00    +0.000 A 
ATOM     13  C   UNL     1     -10.669  19.673  67.169  0.00  0.00    +0.000 A 
ATOM     14  C   UNL     1      -6.979  17.969  66.728  0.00  0.00    +0.000 A 
ATOM     15  C   UNL     1      -6.872  16.606  66.669  0.00  0.00    +0.002 A 
ATOM     16  C   UNL     1     -10.545  18.386  66.658  0.00  0.00    +0.001 A 
ATOM     17  C   UNL     1      -7.997  15.821  66.891  0.00  0.00    +0.018 A 
ENDBRANCH   6   8
BRANCH   3  18
ATOM     18  C   UNL     1     -12.030  12.534  66.137  0.00  0.00    +0.141 C 
BRANCH  18  19
ATOM     19  C   UNL     1     -10.863  11.620  65.947  0.00  0.00    +0.001 A 
ATOM     20  C   UNL     1     -10.725  10.636  66.920  0.00  0.00    -0.002 A 
ATOM     21  C   UNL     1     -10.095   9.442  66.679  0.00  0.00    -0.000 A 
ATOM     22  C   UNL     1      -9.499   9.209  65.463  0.00  0.00    -0.000 A 
ATOM     23  C   UNL     1      -9.741  10.128  64.450  0.00  0.00    -0.000 A 
ATOM     24  C   UNL     1     -10.624  11.182  64.649  0.00  0.00    -0.002 A 
ENDBRANCH  18  19
ENDBRANCH   3  18
TORSDOF 3
ENDMDL
MODEL 7
REMARK VINA RESULT:      -6.9      2.665      4.724
REMARK  Name = 
REMARK  3 active torsions:
REMARK  status: ('A' for Active; 'I' for Inactive)
REMARK    1  A    between atoms: N_4  and  C_5
REMARK    2  A    between atoms: N_17  and  C_18
REMARK    3  A    between atoms: C_18  and  C_19
REMARK                            x       y       z     vdW  Elec       q    Type
REMARK                         _______ _______ _______ _____ _____    ______ ____
ROOT
ATOM      1  O   UNL     1     -12.556  14.480  66.174  0.00  0.00    -0.258 OA
ATOM      2  C   UNL     1     -11.802  13.660  66.785  0.00  0.00    +0.312 A 
ATOM      3  N   UNL     1     -11.182  13.837  67.979  0.00  0.00    -0.237 N 
ATOM      4  C   UNL     1     -10.176  12.968  68.140  0.00  0.00    +0.344 A 
ATOM      5  O   UNL     1      -9.092  13.264  68.728  0.00  0.00    -0.245 OA
ATOM      6  N   UNL     1     -10.576  11.695  67.899  0.00  0.00    -0.226 N 
ATOM      7  S   UNL     1     -11.639  11.957  66.602  0.00  0.00    +0.060 S 
ENDROOT
BRANCH   6   8
ATOM      8  C   UNL     1     -10.064  10.477  68.456  0.00  0.00    +0.075 A 
ATOM      9  C   UNL     1     -10.613  10.079  69.669  0.00  0.00    +0.017 A 
ATOM     10  C   UNL     1      -9.843   9.473  70.655  0.00  0.00    +0.001 A 
ATOM     11  C   UNL     1     -10.469   8.909  71.760  0.00  0.00    +0.000 A 
ATOM     12  C   UNL     1     -11.857   8.891  71.800  0.00  0.00    +0.000 A 
ATOM     13  C   UNL     1     -12.514   9.834  71.029  0.00  0.00    +0.000 A 
ATOM     14  C   UNL     1      -8.504   9.269  70.466  0.00  0.00    +0.000 A 
ATOM     15  C   UNL     1      -7.925   9.688  69.300  0.00  0.00    +0.002 A 
ATOM     16  C   UNL     1     -11.815  10.616  70.117  0.00  0.00    +0.001 A 
ATOM     17  C   UNL     1      -8.725  10.177  68.275  0.00  0.00    +0.018 A 
ENDBRANCH   6   8
BRANCH   3  18
ATOM     18  C   UNL     1     -11.415  15.048  68.765  0.00  0.00    +0.141 C 
BRANCH  18  19
ATOM     19  C   UNL     1     -11.645  14.730  70.207  0.00  0.00    +0.001 A 
ATOM     20  C   UNL     1     -11.417  15.784  71.084  0.00  0.00    -0.002 A 
ATOM     21  C   UNL     1     -12.035  15.878  72.304  0.00  0.00    -0.000 A 
ATOM     22  C   UNL     1     -12.859  14.867  72.739  0.00  0.00    -0.000 A 
ATOM     23  C   UNL     1     -13.191  13.878  71.823  0.00  0.00    -0.000 A 
ATOM     24  C   UNL     1     -12.773  13.971  70.501  0.00  0.00    -0.002 A 
ENDBRANCH  18  19
ENDBRANCH   3  18
TORSDOF 3
ENDMDL
MODEL 8
REMARK VINA RESULT:      -6.8      3.450      7.546
REMARK  Name = 
REMARK  3 active torsions:
REMARK  status: ('A' for Active; 'I' for Inactive)
REMARK    1  A    between atoms: N_4  and  C_5
REMARK    2  A    between atoms: N_17  and  C_18
REMARK    3  A    between atoms: C_18  and  C_19
REMARK                            x       y       z     vdW  Elec       q    Type
REMARK                         _______ _______ _______ _____ _____    ______ ____
ROOT
ATOM      1  O   UNL     1      -9.208   8.014  68.104  0.00  0.00    -0.258 OA
ATOM      2  C   UNL     1      -9.696   9.027  67.513  0.00  0.00    +0.312 A 
ATOM      3  N   UNL     1     -10.218  10.144  68.081  0.00  0.00    -0.237 N 
ATOM      4  C   UNL     1     -10.985  10.818  67.214  0.00  0.00    +0.344 A 
ATOM      5  O   UNL     1     -12.044  11.428  67.555  0.00  0.00    -0.245 OA
ATOM      6  N   UNL     1     -10.339  11.034  66.042  0.00  0.00    -0.226 N 
ATOM      7  S   UNL     1      -9.496   9.569  65.893  0.00  0.00    +0.060 S 
ENDROOT
BRANCH   6   8
ATOM      8  C   UNL     1     -10.510  12.112  65.113  0.00  0.00    +0.075 A 
ATOM      9  C   UNL     1     -10.156  13.376  65.569  0.00  0.00    +0.017 A 
ATOM     10  C   UNL     1     -10.874  14.511  65.207  0.00  0.00    +0.001 A 
ATOM     11  C   UNL     1     -10.366  15.767  65.515  0.00  0.00    +0.000 A 
ATOM     12  C   UNL     1      -9.109  15.852  66.098  0.00  0.00    +0.000 A 
ATOM     13  C   UNL     1      -8.661  14.730  66.775  0.00  0.00    +0.000 A 
ATOM     14  C   UNL     1     -11.975  14.411  64.403  0.00  0.00    +0.000 A 
ATOM     15  C   UNL     1     -12.375  13.176  63.972  0.00  0.00    +0.002 A 
ATOM     16  C   UNL     1      -9.355  13.529  66.695  0.00  0.00    +0.001 A 
ATOM     17  C   UNL     1     -11.580  12.068  64.236  0.00  0.00    +0.018 A 
ENDBRANCH   6   8
BRANCH   3  18
ATOM     18  C   UNL     1     -10.182  10.327  69.531  0.00  0.00    +0.141 C 
BRANCH  18  19
ATOM     19  C   UNL     1     -11.406   9.771  70.184  0.00  0.00    +0.001 A 
ATOM     20  C   UNL     1     -11.212   8.578  70.872  0.00  0.00    -0.002 A 
ATOM     21  C   UNL     1     -12.007   8.193  71.921  0.00  0.00    -0.000 A 
ATOM     22  C   UNL     1     -13.092   8.956  72.281  0.00  0.00    -0.000 A 
ATOM     23  C   UNL     1     -13.217  10.204  71.687  0.00  0.00    -0.000 A 
ATOM     24  C   UNL     1     -12.229  10.683  70.836  0.00  0.00    -0.002 A 
ENDBRANCH  18  19
ENDBRANCH   3  18
TORSDOF 3
ENDMDL
MODEL 9
REMARK VINA RESULT:      -6.7      2.179      6.350
REMARK  Name = 
REMARK  3 active torsions:
REMARK  status: ('A' for Active; 'I' for Inactive)
REMARK    1  A    between atoms: N_4  and  C_5
REMARK    2  A    between atoms: N_17  and  C_18
REMARK    3  A    between atoms: C_18  and  C_19
REMARK                            x       y       z     vdW  Elec       q    Type
REMARK                         _______ _______ _______ _____ _____    ______ ____
ROOT
ATOM      1  O   UNL     1     -12.227  13.350  69.921  0.00  0.00    -0.258 OA
ATOM      2  C   UNL     1     -11.451  14.039  69.188  0.00  0.00    +0.312 A 
ATOM      3  N   UNL     1     -10.802  13.639  68.065  0.00  0.00    -0.237 N 
ATOM      4  C   UNL     1      -9.785  14.459  67.772  0.00  0.00    +0.344 A 
ATOM      5  O   UNL     1      -8.688  14.054  67.279  0.00  0.00    -0.245 OA
ATOM      6  N   UNL     1     -10.179  15.756  67.760  0.00  0.00    -0.226 N 
ATOM      7  S   UNL     1     -11.277  15.745  69.055  0.00  0.00    +0.060 S 
ENDROOT
BRANCH   6   8
ATOM      8  C   UNL     1      -9.643  16.846  67.000  0.00  0.00    +0.075 A 
ATOM      9  C   UNL     1      -8.658  17.603  67.624  0.00  0.00    +0.017 A 
ATOM     10  C   UNL     1      -8.573  18.980  67.446  0.00  0.00    +0.001 A 
ATOM     11  C   UNL     1      -7.459  19.661  67.919  0.00  0.00    +0.000 A 
ATOM     12  C   UNL     1      -6.419  18.929  68.479  0.00  0.00    +0.000 A 
ATOM     13  C   UNL     1      -6.738  17.678  68.976  0.00  0.00    +0.000 A 
ATOM     14  C   UNL     1      -9.478  19.638  66.662  0.00  0.00    +0.000 A 
ATOM     15  C   UNL     1     -10.486  18.928  66.068  0.00  0.00    +0.002 A 
ATOM     16  C   UNL     1      -7.988  17.118  68.741  0.00  0.00    +0.001 A 
ATOM     17  C   UNL     1     -10.486  17.541  66.151  0.00  0.00    +0.018 A 
ENDBRANCH   6   8
BRANCH   3  18
ATOM     18  C   UNL     1     -11.025  12.303  67.513  0.00  0.00    +0.141 C 
BRANCH  18  19
ATOM     19  C   UNL     1     -11.658  12.368  66.161  0.00  0.00    +0.001 A 
ATOM     20  C   UNL     1     -12.244  13.589  65.846  0.00  0.00    -0.002 A 
ATOM     21  C   UNL     1     -12.398  14.024  64.555  0.00  0.00    -0.000 A 
ATOM     22  C   UNL     1     -12.039  13.212  63.506  0.00  0.00    -0.000 A 
ATOM     23  C   UNL     1     -11.338  12.053  63.810  0.00  0.00    -0.000 A 
ATOM     24  C   UNL     1     -10.947  11.787  65.116  0.00  0.00    -0.002 A 
ENDBRANCH  18  19
ENDBRANCH   3  18
TORSDOF 3
ENDMDL
