MODEL 1
REMARK VINA RESULT:      -5.4      0.000      0.000
REMARK  Name = 
REMARK  15 active torsions:
REMARK  status: ('A' for Active; 'I' for Inactive)
REMARK    1  A    between atoms: C_2  and  C_3
REMARK    2  A    between atoms: C_4  and  C_5
REMARK    3  A    between atoms: C_5  and  C_6
REMARK    4  A    between atoms: C_7  and  C_8
REMARK    5  A    between atoms: C_8  and  C_9
REMARK    6  A    between atoms: C_10  and  C_11
REMARK    7  A    between atoms: C_11  and  C_12
REMARK    8  A    between atoms: C_13  and  C_14
REMARK    9  A    between atoms: C_14  and  C_15
REMARK   10  A    between atoms: C_16  and  C_17
REMARK   11  A    between atoms: C_17  and  C_18
REMARK   12  A    between atoms: C_18  and  C_19
REMARK   13  A    between atoms: C_19  and  C_20
REMARK   14  A    between atoms: C_20  and  O_22
REMARK   15  A    between atoms: O_22  and  C_23
REMARK                            x       y       z     vdW  Elec       q    Type
REMARK                         _______ _______ _______ _____ _____    ______ ____
ROOT
ATOM      1  C   UNL     1     -10.032   9.065  66.728  0.00  0.00    -0.026 C 
ATOM      2  C   UNL     1      -9.631   9.592  65.566  0.00  0.00    -0.026 C 
ENDROOT
BRANCH   1   3
ATOM      3  C   UNL     1     -11.090   9.748  67.543  0.00  0.00    +0.051 C 
BRANCH   3   5
ATOM      4  C   UNL     1     -11.161  11.298  69.365  0.00  0.00    -0.026 C 
ATOM      5  C   UNL     1     -10.423  10.395  68.705  0.00  0.00    -0.026 C 
BRANCH   4   6
ATOM      6  C   UNL     1     -11.684  12.405  68.498  0.00  0.00    +0.051 C 
BRANCH   6   8
ATOM      7  C   UNL     1     -10.285  14.440  68.714  0.00  0.00    -0.026 C 
ATOM      8  C   UNL     1     -10.483  13.244  68.179  0.00  0.00    -0.026 C 
BRANCH   7   9
ATOM      9  C   UNL     1     -11.519  15.238  69.000  0.00  0.00    +0.051 C 
BRANCH   9  11
ATOM     10  C   UNL     1     -12.055  15.832  71.296  0.00  0.00    -0.030 C 
ATOM     11  C   UNL     1     -11.332  16.110  70.203  0.00  0.00    -0.026 C 
BRANCH  10  13
ATOM     12  C   UNL     1     -14.373  15.079  71.750  0.00  0.00    +0.005 C 
ATOM     13  C   UNL     1     -13.011  14.679  71.253  0.00  0.00    +0.026 C 
ENDBRANCH  10  13
ENDBRANCH   9  11
ENDBRANCH   7   9
ENDBRANCH   6   8
ENDBRANCH   4   6
ENDBRANCH   3   5
ENDBRANCH   1   3
BRANCH   2  14
ATOM     14  C   UNL     1      -9.857  11.033  65.283  0.00  0.00    +0.051 C 
BRANCH  14  15
ATOM     15  C   UNL     1     -10.459  11.252  63.930  0.00  0.00    -0.026 C 
ATOM     16  C   UNL     1     -11.661  11.772  63.749  0.00  0.00    -0.030 C 
BRANCH  16  17
ATOM     17  C   UNL     1     -12.163  12.687  64.805  0.00  0.00    +0.026 C 
BRANCH  17  18
ATOM     18  C   UNL     1     -12.079  14.135  64.341  0.00  0.00    +0.016 C 
BRANCH  18  19
ATOM     19  C   UNL     1     -10.837  14.716  65.000  0.00  0.00    +0.110 C 
BRANCH  19  20
ATOM     20  C   UNL     1     -10.956  16.208  64.985  0.00  0.00    +0.317 C 
ATOM     21  O   UNL     1     -11.610  16.687  64.010  0.00  0.00    -0.250 OA
BRANCH  20  22
ATOM     22  O   UNL     1      -9.864  16.951  65.413  0.00  0.00    -0.448 OA
BRANCH  22  23
ATOM     23  C   UNL     1     -10.032  17.699  66.604  0.00  0.00    +0.209 C 
ATOM     24  C   UNL     1     -10.557  19.084  66.285  0.00  0.00    +0.051 C 
ENDBRANCH  22  23
ENDBRANCH  20  22
ENDBRANCH  19  20
ENDBRANCH  18  19
ENDBRANCH  17  18
ENDBRANCH  16  17
ENDBRANCH  14  15
ENDBRANCH   2  14
TORSDOF 15
ENDMDL
MODEL 2
REMARK VINA RESULT:      -5.1      1.821      4.387
REMARK  Name = 
REMARK  15 active torsions:
REMARK  status: ('A' for Active; 'I' for Inactive)
REMARK    1  A    between atoms: C_2  and  C_3
REMARK    2  A    between atoms: C_4  and  C_5
REMARK    3  A    between atoms: C_5  and  C_6
REMARK    4  A    between atoms: C_7  and  C_8
REMARK    5  A    between atoms: C_8  and  C_9
REMARK    6  A    between atoms: C_10  and  C_11
REMARK    7  A    between atoms: C_11  and  C_12
REMARK    8  A    between atoms: C_13  and  C_14
REMARK    9  A    between atoms: C_14  and  C_15
REMARK   10  A    between atoms: C_16  and  C_17
REMARK   11  A    between atoms: C_17  and  C_18
REMARK   12  A    between atoms: C_18  and  C_19
REMARK   13  A    between atoms: C_19  and  C_20
REMARK   14  A    between atoms: C_20  and  O_22
REMARK   15  A    between atoms: O_22  and  C_23
REMARK                            x       y       z     vdW  Elec       q    Type
REMARK                         _______ _______ _______ _____ _____    ______ ____
ROOT
ATOM      1  C   UNL     1     -12.074  10.269  71.015  0.00  0.00    -0.026 C 
ATOM      2  C   UNL     1     -11.054   9.945  70.211  0.00  0.00    -0.026 C 
ENDROOT
BRANCH   1   3
ATOM      3  C   UNL     1     -12.896  11.492  70.737  0.00  0.00    +0.051 C 
BRANCH   3   5
ATOM      4  C   UNL     1     -13.463  13.405  72.058  0.00  0.00    -0.026 C 
ATOM      5  C   UNL     1     -13.300  12.075  72.045  0.00  0.00    -0.026 C 
BRANCH   4   6
ATOM      6  C   UNL     1     -12.255  14.169  71.601  0.00  0.00    +0.051 C 
BRANCH   6   8
ATOM      7  C   UNL     1     -12.152  15.884  69.814  0.00  0.00    -0.026 C 
ATOM      8  C   UNL     1     -12.804  15.329  70.824  0.00  0.00    -0.026 C 
BRANCH   7   9
ATOM      9  C   UNL     1     -10.659  15.886  69.924  0.00  0.00    +0.051 C 
BRANCH   9  11
ATOM     10  C   UNL     1      -8.839  16.093  68.326  0.00  0.00    -0.030 C 
ATOM     11  C   UNL     1     -10.029  16.548  68.738  0.00  0.00    -0.026 C 
BRANCH  10  13
ATOM     12  C   UNL     1      -7.993  13.766  68.186  0.00  0.00    +0.005 C 
ATOM     13  C   UNL     1      -8.201  14.962  69.074  0.00  0.00    +0.026 C 
ENDBRANCH  10  13
ENDBRANCH   9  11
ENDBRANCH   7   9
ENDBRANCH   6   8
ENDBRANCH   4   6
ENDBRANCH   3   5
ENDBRANCH   1   3
BRANCH   2  14
ATOM     14  C   UNL     1     -10.433  10.977  69.342  0.00  0.00    +0.051 C 
BRANCH  14  15
ATOM     15  C   UNL     1     -10.802  10.796  67.903  0.00  0.00    -0.026 C 
ATOM     16  C   UNL     1     -11.589  11.633  67.247  0.00  0.00    -0.030 C 
BRANCH  16  17
ATOM     17  C   UNL     1     -11.616  13.039  67.721  0.00  0.00    +0.026 C 
BRANCH  17  18
ATOM     18  C   UNL     1     -11.488  14.000  66.546  0.00  0.00    +0.016 C 
BRANCH  18  19
ATOM     19  C   UNL     1     -12.653  13.688  65.618  0.00  0.00    +0.110 C 
BRANCH  19  20
ATOM     20  C   UNL     1     -12.289  14.146  64.241  0.00  0.00    +0.317 C 
ATOM     21  O   UNL     1     -12.625  15.337  63.963  0.00  0.00    -0.250 OA
BRANCH  20  22
ATOM     22  O   UNL     1     -12.380  13.226  63.205  0.00  0.00    -0.448 OA
BRANCH  22  23
ATOM     23  C   UNL     1     -12.276  11.859  63.559  0.00  0.00    +0.209 C 
ATOM     24  C   UNL     1     -10.827  11.418  63.531  0.00  0.00    +0.051 C 
ENDBRANCH  22  23
ENDBRANCH  20  22
ENDBRANCH  19  20
ENDBRANCH  18  19
ENDBRANCH  17  18
ENDBRANCH  16  17
ENDBRANCH  14  15
ENDBRANCH   2  14
TORSDOF 15
ENDMDL
MODEL 3
REMARK VINA RESULT:      -5.1      4.199      7.178
REMARK  Name = 
REMARK  15 active torsions:
REMARK  status: ('A' for Active; 'I' for Inactive)
REMARK    1  A    between atoms: C_2  and  C_3
REMARK    2  A    between atoms: C_4  and  C_5
REMARK    3  A    between atoms: C_5  and  C_6
REMARK    4  A    between atoms: C_7  and  C_8
REMARK    5  A    between atoms: C_8  and  C_9
REMARK    6  A    between atoms: C_10  and  C_11
REMARK    7  A    between atoms: C_11  and  C_12
REMARK    8  A    between atoms: C_13  and  C_14
REMARK    9  A    between atoms: C_14  and  C_15
REMARK   10  A    between atoms: C_16  and  C_17
REMARK   11  A    between atoms: C_17  and  C_18
REMARK   12  A    between atoms: C_18  and  C_19
REMARK   13  A    between atoms: C_19  and  C_20
REMARK   14  A    between atoms: C_20  and  O_22
REMARK   15  A    between atoms: O_22  and  C_23
REMARK                            x       y       z     vdW  Elec       q    Type
REMARK                         _______ _______ _______ _____ _____    ______ ____
ROOT
ATOM      1  C   UNL     1      -9.851   9.024  65.734  0.00  0.00    -0.026 C 
ATOM      2  C   UNL     1     -10.211   8.735  66.990  0.00  0.00    -0.026 C 
ENDROOT
BRANCH   1   3
ATOM      3  C   UNL     1      -9.601  10.446  65.328  0.00  0.00    +0.051 C 
BRANCH   3   5
ATOM      4  C   UNL     1     -10.211  11.925  63.548  0.00  0.00    -0.026 C 
ATOM      5  C   UNL     1     -10.355  10.699  64.071  0.00  0.00    -0.026 C 
BRANCH   4   6
ATOM      6  C   UNL     1     -10.565  13.034  64.495  0.00  0.00    +0.051 C 
BRANCH   6   8
ATOM      7  C   UNL     1     -12.676  13.577  65.674  0.00  0.00    -0.026 C 
ATOM      8  C   UNL     1     -11.978  12.752  64.908  0.00  0.00    -0.026 C 
BRANCH   7   9
ATOM      9  C   UNL     1     -11.890  14.339  66.696  0.00  0.00    +0.051 C 
BRANCH   9  11
ATOM     10  C   UNL     1     -10.692  13.375  68.579  0.00  0.00    -0.030 C 
ATOM     11  C   UNL     1     -11.879  13.626  68.012  0.00  0.00    -0.026 C 
BRANCH  10  13
ATOM     12  C   UNL     1      -8.387  12.743  67.917  0.00  0.00    +0.005 C 
ATOM     13  C   UNL     1      -9.448  13.809  67.865  0.00  0.00    +0.026 C 
ENDBRANCH  10  13
ENDBRANCH   9  11
ENDBRANCH   7   9
ENDBRANCH   6   8
ENDBRANCH   4   6
ENDBRANCH   3   5
ENDBRANCH   1   3
BRANCH   2  14
ATOM     14  C   UNL     1     -10.805   9.785  67.856  0.00  0.00    +0.051 C 
BRANCH  14  15
ATOM     15  C   UNL     1     -10.295   9.710  69.261  0.00  0.00    -0.026 C 
ATOM     16  C   UNL     1     -10.920  10.261  70.288  0.00  0.00    -0.030 C 
BRANCH  16  17
ATOM     17  C   UNL     1     -12.392  10.420  70.172  0.00  0.00    +0.026 C 
BRANCH  17  18
ATOM     18  C   UNL     1     -13.024  10.562  71.550  0.00  0.00    +0.016 C 
BRANCH  18  19
ATOM     19  C   UNL     1     -12.852   9.213  72.233  0.00  0.00    +0.110 C 
BRANCH  19  20
ATOM     20  C   UNL     1     -13.917   8.294  71.726  0.00  0.00    +0.317 C 
ATOM     21  O   UNL     1     -15.026   8.366  72.337  0.00  0.00    -0.250 OA
BRANCH  20  22
ATOM     22  O   UNL     1     -13.535   7.029  71.299  0.00  0.00    -0.448 OA
BRANCH  22  23
ATOM     23  C   UNL     1     -12.155   6.723  71.376  0.00  0.00    +0.209 C 
ATOM     24  C   UNL     1     -11.601   6.438  69.995  0.00  0.00    +0.051 C 
ENDBRANCH  22  23
ENDBRANCH  20  22
ENDBRANCH  19  20
ENDBRANCH  18  19
ENDBRANCH  17  18
ENDBRANCH  16  17
ENDBRANCH  14  15
ENDBRANCH   2  14
TORSDOF 15
ENDMDL
MODEL 4
REMARK VINA RESULT:      -5.1      1.804      5.577
REMARK  Name = 
REMARK  15 active torsions:
REMARK  status: ('A' for Active; 'I' for Inactive)
REMARK    1  A    between atoms: C_2  and  C_3
REMARK    2  A    between atoms: C_4  and  C_5
REMARK    3  A    between atoms: C_5  and  C_6
REMARK    4  A    between atoms: C_7  and  C_8
REMARK    5  A    between atoms: C_8  and  C_9
REMARK    6  A    between atoms: C_10  and  C_11
REMARK    7  A    between atoms: C_11  and  C_12
REMARK    8  A    between atoms: C_13  and  C_14
REMARK    9  A    between atoms: C_14  and  C_15
REMARK   10  A    between atoms: C_16  and  C_17
REMARK   11  A    between atoms: C_17  and  C_18
REMARK   12  A    between atoms: C_18  and  C_19
REMARK   13  A    between atoms: C_19  and  C_20
REMARK   14  A    between atoms: C_20  and  O_22
REMARK   15  A    between atoms: O_22  and  C_23
REMARK                            x       y       z     vdW  Elec       q    Type
REMARK                         _______ _______ _______ _____ _____    ______ ____
ROOT
ATOM      1  C   UNL     1     -13.339  12.420  72.101  0.00  0.00    -0.026 C 
ATOM      2  C   UNL     1     -13.702  13.684  72.350  0.00  0.00    -0.026 C 
ENDROOT
BRANCH   1   3
ATOM      3  C   UNL     1     -12.456  12.103  70.930  0.00  0.00    +0.051 C 
BRANCH   3   5
ATOM      4  C   UNL     1     -11.470   9.955  70.555  0.00  0.00    -0.026 C 
ATOM      5  C   UNL     1     -12.611  10.656  70.623  0.00  0.00    -0.026 C 
BRANCH   4   6
ATOM      6  C   UNL     1     -10.479  10.502  69.570  0.00  0.00    +0.051 C 
BRANCH   6   8
ATOM      7  C   UNL     1     -10.671  10.614  67.101  0.00  0.00    -0.026 C 
ATOM      8  C   UNL     1     -10.935   9.986  68.238  0.00  0.00    -0.026 C 
BRANCH   7   9
ATOM      9  C   UNL     1     -10.610  12.107  67.180  0.00  0.00    +0.051 C 
BRANCH   9  11
ATOM     10  C   UNL     1     -12.198  13.255  65.741  0.00  0.00    -0.030 C 
ATOM     11  C   UNL     1     -11.957  12.717  66.943  0.00  0.00    -0.026 C 
BRANCH  10  13
ATOM     12  C   UNL     1     -11.518  12.417  63.509  0.00  0.00    +0.005 C 
ATOM     13  C   UNL     1     -11.112  13.228  64.709  0.00  0.00    +0.026 C 
ENDBRANCH  10  13
ENDBRANCH   9  11
ENDBRANCH   7   9
ENDBRANCH   6   8
ENDBRANCH   4   6
ENDBRANCH   3   5
ENDBRANCH   1   3
BRANCH   2  14
ATOM     14  C   UNL     1     -13.643  14.702  71.271  0.00  0.00    +0.051 C 
BRANCH  14  15
ATOM     15  C   UNL     1     -12.693  15.812  71.597  0.00  0.00    -0.026 C 
ATOM     16  C   UNL     1     -11.439  15.839  71.175  0.00  0.00    -0.030 C 
BRANCH  16  17
ATOM     17  C   UNL     1     -11.141  15.121  69.911  0.00  0.00    +0.026 C 
BRANCH  17  18
ATOM     18  C   UNL     1     -11.675  15.900  68.716  0.00  0.00    +0.016 C 
BRANCH  18  19
ATOM     19  C   UNL     1     -10.516  16.016  67.737  0.00  0.00    +0.110 C 
BRANCH  19  20
ATOM     20  C   UNL     1      -9.760  17.268  68.056  0.00  0.00    +0.317 C 
ATOM     21  O   UNL     1      -8.715  17.102  68.754  0.00  0.00    -0.250 OA
BRANCH  20  22
ATOM     22  O   UNL     1     -10.490  18.421  68.310  0.00  0.00    -0.448 OA
BRANCH  22  23
ATOM     23  C   UNL     1     -10.727  19.278  67.208  0.00  0.00    +0.209 C 
ATOM     24  C   UNL     1      -9.732  20.420  67.206  0.00  0.00    +0.051 C 
ENDBRANCH  22  23
ENDBRANCH  20  22
ENDBRANCH  19  20
ENDBRANCH  18  19
ENDBRANCH  17  18
ENDBRANCH  16  17
ENDBRANCH  14  15
ENDBRANCH   2  14
TORSDOF 15
ENDMDL
MODEL 5
REMARK VINA RESULT:      -5.1      2.202      4.287
REMARK  Name = 
REMARK  15 active torsions:
REMARK  status: ('A' for Active; 'I' for Inactive)
REMARK    1  A    between atoms: C_2  and  C_3
REMARK    2  A    between atoms: C_4  and  C_5
REMARK    3  A    between atoms: C_5  and  C_6
REMARK    4  A    between atoms: C_7  and  C_8
REMARK    5  A    between atoms: C_8  and  C_9
REMARK    6  A    between atoms: C_10  and  C_11
REMARK    7  A    between atoms: C_11  and  C_12
REMARK    8  A    between atoms: C_13  and  C_14
REMARK    9  A    between atoms: C_14  and  C_15
REMARK   10  A    between atoms: C_16  and  C_17
REMARK   11  A    between atoms: C_17  and  C_18
REMARK   12  A    between atoms: C_18  and  C_19
REMARK   13  A    between atoms: C_19  and  C_20
REMARK   14  A    between atoms: C_20  and  O_22
REMARK   15  A    between atoms: O_22  and  C_23
REMARK                            x       y       z     vdW  Elec       q    Type
REMARK                         _______ _______ _______ _____ _____    ______ ____
ROOT
ATOM      1  C   UNL     1      -9.532  11.223  66.861  0.00  0.00    -0.026 C 
ATOM      2  C   UNL     1      -9.301  11.127  65.547  0.00  0.00    -0.026 C 
ENDROOT
BRANCH   1   3
ATOM      3  C   UNL     1     -10.652  10.449  67.490  0.00  0.00    +0.051 C 
BRANCH   3   5
ATOM      4  C   UNL     1     -11.531  11.776  69.277  0.00  0.00    -0.026 C 
ATOM      5  C   UNL     1     -11.656  11.426  67.990  0.00  0.00    -0.026 C 
BRANCH   4   6
ATOM      6  C   UNL     1     -11.550  10.614  70.227  0.00  0.00    +0.051 C 
BRANCH   6   8
ATOM      7  C   UNL     1     -13.152   9.986  72.010  0.00  0.00    -0.026 C 
ATOM      8  C   UNL     1     -12.714  10.878  71.135  0.00  0.00    -0.026 C 
BRANCH   7   9
ATOM      9  C   UNL     1     -13.019   8.552  71.602  0.00  0.00    +0.051 C 
BRANCH   9  11
ATOM     10  C   UNL     1     -11.200   6.942  71.716  0.00  0.00    -0.030 C 
ATOM     11  C   UNL     1     -11.917   7.874  72.357  0.00  0.00    -0.026 C 
BRANCH  10  13
ATOM     12  C   UNL     1     -10.482   7.120  69.349  0.00  0.00    +0.005 C 
ATOM     13  C   UNL     1     -11.543   6.623  70.293  0.00  0.00    +0.026 C 
ENDBRANCH  10  13
ENDBRANCH   9  11
ENDBRANCH   7   9
ENDBRANCH   6   8
ENDBRANCH   4   6
ENDBRANCH   3   5
ENDBRANCH   1   3
BRANCH   2  14
ATOM     14  C   UNL     1     -10.372  10.654  64.634  0.00  0.00    +0.051 C 
BRANCH  14  15
ATOM     15  C   UNL     1     -10.555  11.566  63.462  0.00  0.00    -0.026 C 
ATOM     16  C   UNL     1     -11.574  12.401  63.346  0.00  0.00    -0.030 C 
BRANCH  16  17
ATOM     17  C   UNL     1     -12.194  12.881  64.607  0.00  0.00    +0.026 C 
BRANCH  17  18
ATOM     18  C   UNL     1     -12.212  14.404  64.647  0.00  0.00    +0.016 C 
BRANCH  18  19
ATOM     19  C   UNL     1     -11.010  14.817  65.484  0.00  0.00    +0.110 C 
BRANCH  19  20
ATOM     20  C   UNL     1     -10.787  16.284  65.288  0.00  0.00    +0.317 C 
ATOM     21  O   UNL     1     -11.296  16.770  64.234  0.00  0.00    -0.250 OA
BRANCH  20  22
ATOM     22  O   UNL     1      -9.564  16.813  65.678  0.00  0.00    -0.448 OA
BRANCH  22  23
ATOM     23  C   UNL     1      -9.599  18.036  66.391  0.00  0.00    +0.209 C 
ATOM     24  C   UNL     1     -10.399  17.877  67.667  0.00  0.00    +0.051 C 
ENDBRANCH  22  23
ENDBRANCH  20  22
ENDBRANCH  19  20
ENDBRANCH  18  19
ENDBRANCH  17  18
ENDBRANCH  16  17
ENDBRANCH  14  15
ENDBRANCH   2  14
TORSDOF 15
ENDMDL
MODEL 6
REMARK VINA RESULT:      -5.0      1.565      5.691
REMARK  Name = 
REMARK  15 active torsions:
REMARK  status: ('A' for Active; 'I' for Inactive)
REMARK    1  A    between atoms: C_2  and  C_3
REMARK    2  A    between atoms: C_4  and  C_5
REMARK    3  A    between atoms: C_5  and  C_6
REMARK    4  A    between atoms: C_7  and  C_8
REMARK    5  A    between atoms: C_8  and  C_9
REMARK    6  A    between atoms: C_10  and  C_11
REMARK    7  A    between atoms: C_11  and  C_12
REMARK    8  A    between atoms: C_13  and  C_14
REMARK    9  A    between atoms: C_14  and  C_15
REMARK   10  A    between atoms: C_16  and  C_17
REMARK   11  A    between atoms: C_17  and  C_18
REMARK   12  A    between atoms: C_18  and  C_19
REMARK   13  A    between atoms: C_19  and  C_20
REMARK   14  A    between atoms: C_20  and  O_22
REMARK   15  A    between atoms: O_22  and  C_23
REMARK                            x       y       z     vdW  Elec       q    Type
REMARK                         _______ _______ _______ _____ _____    ______ ____
ROOT
ATOM      1  C   UNL     1     -12.193  16.178  71.744  0.00  0.00    -0.026 C 
ATOM      2  C   UNL     1     -11.305  16.166  70.743  0.00  0.00    -0.026 C 
ENDROOT
BRANCH   1   3
ATOM      3  C   UNL     1     -12.322  14.992  72.654  0.00  0.00    +0.051 C 
BRANCH   3   5
ATOM      4  C   UNL     1     -13.776  13.100  72.473  0.00  0.00    -0.026 C 
ATOM      5  C   UNL     1     -13.692  14.437  72.487  0.00  0.00    -0.026 C 
BRANCH   4   6
ATOM      6  C   UNL     1     -12.917  12.448  71.430  0.00  0.00    +0.051 C 
BRANCH   6   8
ATOM      7  C   UNL     1     -12.284  10.074  71.104  0.00  0.00    -0.026 C 
ATOM      8  C   UNL     1     -13.077  10.975  71.663  0.00  0.00    -0.026 C 
BRANCH   7   9
ATOM      9  C   UNL     1     -11.768  10.415  69.741  0.00  0.00    +0.051 C 
BRANCH   9  11
ATOM     10  C   UNL     1      -9.670  10.556  68.521  0.00  0.00    -0.030 C 
ATOM     11  C   UNL     1     -10.271  10.380  69.704  0.00  0.00    -0.026 C 
BRANCH  10  13
ATOM     12  C   UNL     1      -9.696  11.224  66.133  0.00  0.00    +0.005 C 
ATOM     13  C   UNL     1     -10.520  10.767  67.305  0.00  0.00    +0.026 C 
ENDBRANCH  10  13
ENDBRANCH   9  11
ENDBRANCH   7   9
ENDBRANCH   6   8
ENDBRANCH   4   6
ENDBRANCH   3   5
ENDBRANCH   1   3
BRANCH   2  14
ATOM     14  C   UNL     1     -10.781  14.877  70.227  0.00  0.00    +0.051 C 
BRANCH  14  15
ATOM     15  C   UNL     1     -11.762  14.190  69.330  0.00  0.00    -0.026 C 
ATOM     16  C   UNL     1     -11.750  14.316  68.013  0.00  0.00    -0.030 C 
BRANCH  16  17
ATOM     17  C   UNL     1     -10.443  14.623  67.380  0.00  0.00    +0.026 C 
BRANCH  17  18
ATOM     18  C   UNL     1     -10.619  15.636  66.256  0.00  0.00    +0.016 C 
BRANCH  18  19
ATOM     19  C   UNL     1     -10.528  14.846  64.959  0.00  0.00    +0.110 C 
BRANCH  19  20
ATOM     20  C   UNL     1     -11.852  14.929  64.268  0.00  0.00    +0.317 C 
ATOM     21  O   UNL     1     -12.169  16.083  63.848  0.00  0.00    -0.250 OA
BRANCH  20  22
ATOM     22  O   UNL     1     -12.892  14.150  64.758  0.00  0.00    -0.448 OA
BRANCH  22  23
ATOM     23  C   UNL     1     -12.658  12.755  64.834  0.00  0.00    +0.209 C 
ATOM     24  C   UNL     1     -12.389  12.191  63.454  0.00  0.00    +0.051 C 
ENDBRANCH  22  23
ENDBRANCH  20  22
ENDBRANCH  19  20
ENDBRANCH  18  19
ENDBRANCH  17  18
ENDBRANCH  16  17
ENDBRANCH  14  15
ENDBRANCH   2  14
TORSDOF 15
ENDMDL
MODEL 7
REMARK VINA RESULT:      -5.0      2.361      5.257
REMARK  Name = 
REMARK  15 active torsions:
REMARK  status: ('A' for Active; 'I' for Inactive)
REMARK    1  A    between atoms: C_2  and  C_3
REMARK    2  A    between atoms: C_4  and  C_5
REMARK    3  A    between atoms: C_5  and  C_6
REMARK    4  A    between atoms: C_7  and  C_8
REMARK    5  A    between atoms: C_8  and  C_9
REMARK    6  A    between atoms: C_10  and  C_11
REMARK    7  A    between atoms: C_11  and  C_12
REMARK    8  A    between atoms: C_13  and  C_14
REMARK    9  A    between atoms: C_14  and  C_15
REMARK   10  A    between atoms: C_16  and  C_17
REMARK   11  A    between atoms: C_17  and  C_18
REMARK   12  A    between atoms: C_18  and  C_19
REMARK   13  A    between atoms: C_19  and  C_20
REMARK   14  A    between atoms: C_20  and  O_22
REMARK   15  A    between atoms: O_22  and  C_23
REMARK                            x       y       z     vdW  Elec       q    Type
REMARK                         _______ _______ _______ _____ _____    ______ ____
ROOT
ATOM      1  C   UNL     1     -11.068  12.683  64.335  0.00  0.00    -0.026 C 
ATOM      2  C   UNL     1     -10.272  11.754  64.877  0.00  0.00    -0.026 C 
ENDROOT
BRANCH   1   3
ATOM      3  C   UNL     1     -12.017  13.461  65.197  0.00  0.00    +0.051 C 
BRANCH   3   5
ATOM      4  C   UNL     1     -10.957  15.572  64.820  0.00  0.00    -0.026 C 
ATOM      5  C   UNL     1     -12.076  14.851  64.670  0.00  0.00    -0.026 C 
BRANCH   4   6
ATOM      6  C   UNL     1     -10.482  15.670  66.240  0.00  0.00    +0.051 C 
BRANCH   6   8
ATOM      7  C   UNL     1      -8.221  15.440  67.228  0.00  0.00    -0.026 C 
ATOM      8  C   UNL     1      -9.028  15.307  66.186  0.00  0.00    -0.026 C 
BRANCH   7   9
ATOM      9  C   UNL     1      -8.522  16.584  68.144  0.00  0.00    +0.051 C 
BRANCH   9  11
ATOM     10  C   UNL     1      -8.388  18.969  67.688  0.00  0.00    -0.030 C 
ATOM     11  C   UNL     1      -7.736  17.802  67.768  0.00  0.00    -0.026 C 
BRANCH  10  13
ATOM     12  C   UNL     1     -10.640  19.428  66.758  0.00  0.00    +0.005 C 
ATOM     13  C   UNL     1      -9.859  18.992  67.968  0.00  0.00    +0.026 C 
ENDBRANCH  10  13
ENDBRANCH   9  11
ENDBRANCH   7   9
ENDBRANCH   6   8
ENDBRANCH   4   6
ENDBRANCH   3   5
ENDBRANCH   1   3
BRANCH   2  14
ATOM     14  C   UNL     1     -10.612  11.157  66.194  0.00  0.00    +0.051 C 
BRANCH  14  15
ATOM     15  C   UNL     1      -9.672  11.600  67.271  0.00  0.00    -0.026 C 
ATOM     16  C   UNL     1     -10.042  12.367  68.284  0.00  0.00    -0.030 C 
BRANCH  16  17
ATOM     17  C   UNL     1     -11.466  12.292  68.696  0.00  0.00    +0.026 C 
BRANCH  17  18
ATOM     18  C   UNL     1     -12.021  13.687  68.953  0.00  0.00    +0.016 C 
BRANCH  18  19
ATOM     19  C   UNL     1     -10.921  14.451  69.675  0.00  0.00    +0.110 C 
BRANCH  19  20
ATOM     20  C   UNL     1     -11.564  15.490  70.539  0.00  0.00    +0.317 C 
ATOM     21  O   UNL     1     -11.430  16.684  70.135  0.00  0.00    -0.250 OA
BRANCH  20  22
ATOM     22  O   UNL     1     -11.532  15.302  71.914  0.00  0.00    -0.448 OA
BRANCH  22  23
ATOM     23  C   UNL     1     -12.631  15.808  72.650  0.00  0.00    +0.209 C 
ATOM     24  C   UNL     1     -12.483  15.467  74.118  0.00  0.00    +0.051 C 
ENDBRANCH  22  23
ENDBRANCH  20  22
ENDBRANCH  19  20
ENDBRANCH  18  19
ENDBRANCH  17  18
ENDBRANCH  16  17
ENDBRANCH  14  15
ENDBRANCH   2  14
TORSDOF 15
ENDMDL
MODEL 8
REMARK VINA RESULT:      -5.0      1.670      5.099
REMARK  Name = 
REMARK  15 active torsions:
REMARK  status: ('A' for Active; 'I' for Inactive)
REMARK    1  A    between atoms: C_2  and  C_3
REMARK    2  A    between atoms: C_4  and  C_5
REMARK    3  A    between atoms: C_5  and  C_6
REMARK    4  A    between atoms: C_7  and  C_8
REMARK    5  A    between atoms: C_8  and  C_9
REMARK    6  A    between atoms: C_10  and  C_11
REMARK    7  A    between atoms: C_11  and  C_12
REMARK    8  A    between atoms: C_13  and  C_14
REMARK    9  A    between atoms: C_14  and  C_15
REMARK   10  A    between atoms: C_16  and  C_17
REMARK   11  A    between atoms: C_17  and  C_18
REMARK   12  A    between atoms: C_18  and  C_19
REMARK   13  A    between atoms: C_19  and  C_20
REMARK   14  A    between atoms: C_20  and  O_22
REMARK   15  A    between atoms: O_22  and  C_23
REMARK                            x       y       z     vdW  Elec       q    Type
REMARK                         _______ _______ _______ _____ _____    ______ ____
ROOT
ATOM      1  C   UNL     1     -12.471  15.604  70.475  0.00  0.00    -0.026 C 
ATOM      2  C   UNL     1     -11.792  15.530  69.325  0.00  0.00    -0.026 C 
ENDROOT
BRANCH   1   3
ATOM      3  C   UNL     1     -12.227  14.601  71.564  0.00  0.00    +0.051 C 
BRANCH   3   5
ATOM      4  C   UNL     1     -13.416  12.605  72.134  0.00  0.00    -0.026 C 
ATOM      5  C   UNL     1     -13.514  13.910  71.842  0.00  0.00    -0.026 C 
BRANCH   4   6
ATOM      6  C   UNL     1     -12.712  11.799  71.083  0.00  0.00    +0.051 C 
BRANCH   6   8
ATOM      7  C   UNL     1     -11.952   9.494  71.589  0.00  0.00    -0.026 C 
ATOM      8  C   UNL     1     -12.940  10.370  71.478  0.00  0.00    -0.026 C 
BRANCH   7   9
ATOM      9  C   UNL     1     -10.804   9.684  70.647  0.00  0.00    +0.051 C 
BRANCH   9  11
ATOM     10  C   UNL     1     -10.472   8.662  68.467  0.00  0.00    -0.030 C 
ATOM     11  C   UNL     1     -10.605   8.475  69.786  0.00  0.00    -0.026 C 
BRANCH  10  13
ATOM     12  C   UNL     1     -10.224  10.090  66.456  0.00  0.00    +0.005 C 
ATOM     13  C   UNL     1     -10.540  10.057  67.926  0.00  0.00    +0.026 C 
ENDBRANCH  10  13
ENDBRANCH   9  11
ENDBRANCH   7   9
ENDBRANCH   6   8
ENDBRANCH   4   6
ENDBRANCH   3   5
ENDBRANCH   1   3
BRANCH   2  14
ATOM     14  C   UNL     1     -11.155  14.252  68.916  0.00  0.00    +0.051 C 
BRANCH  14  15
ATOM     15  C   UNL     1     -12.007  13.482  67.957  0.00  0.00    -0.026 C 
ATOM     16  C   UNL     1     -11.830  13.511  66.646  0.00  0.00    -0.030 C 
BRANCH  16  17
ATOM     17  C   UNL     1     -10.456  13.797  66.162  0.00  0.00    +0.026 C 
BRANCH  17  18
ATOM     18  C   UNL     1     -10.443  15.059  65.309  0.00  0.00    +0.016 C 
BRANCH  18  19
ATOM     19  C   UNL     1      -9.677  16.101  66.112  0.00  0.00    +0.110 C 
BRANCH  19  20
ATOM     20  C   UNL     1     -10.198  17.453  65.739  0.00  0.00    +0.317 C 
ATOM     21  O   UNL     1     -11.014  17.467  64.769  0.00  0.00    -0.250 OA
BRANCH  20  22
ATOM     22  O   UNL     1      -9.326  18.531  65.821  0.00  0.00    -0.448 OA
BRANCH  22  23
ATOM     23  C   UNL     1      -9.163  19.119  67.099  0.00  0.00    +0.209 C 
ATOM     24  C   UNL     1     -10.513  19.444  67.705  0.00  0.00    +0.051 C 
ENDBRANCH  22  23
ENDBRANCH  20  22
ENDBRANCH  19  20
ENDBRANCH  18  19
ENDBRANCH  17  18
ENDBRANCH  16  17
ENDBRANCH  14  15
ENDBRANCH   2  14
TORSDOF 15
ENDMDL
MODEL 9
REMARK VINA RESULT:      -5.0      3.572      7.787
REMARK  Name = 
REMARK  15 active torsions:
REMARK  status: ('A' for Active; 'I' for Inactive)
REMARK    1  A    between atoms: C_2  and  C_3
REMARK    2  A    between atoms: C_4  and  C_5
REMARK    3  A    between atoms: C_5  and  C_6
REMARK    4  A    between atoms: C_7  and  C_8
REMARK    5  A    between atoms: C_8  and  C_9
REMARK    6  A    between atoms: C_10  and  C_11
REMARK    7  A    between atoms: C_11  and  C_12
REMARK    8  A    between atoms: C_13  and  C_14
REMARK    9  A    between atoms: C_14  and  C_15
REMARK   10  A    between atoms: C_16  and  C_17
REMARK   11  A    between atoms: C_17  and  C_18
REMARK   12  A    between atoms: C_18  and  C_19
REMARK   13  A    between atoms: C_19  and  C_20
REMARK   14  A    between atoms: C_20  and  O_22
REMARK   15  A    between atoms: O_22  and  C_23
REMARK                            x       y       z     vdW  Elec       q    Type
REMARK                         _______ _______ _______ _____ _____    ______ ____
ROOT
ATOM      1  C   UNL     1     -11.692  15.867  69.740  0.00  0.00    -0.026 C 
ATOM      2  C   UNL     1     -12.279  15.918  70.941  0.00  0.00    -0.026 C 
ENDROOT
BRANCH   1   3
ATOM      3  C   UNL     1     -11.015  14.610  69.281  0.00  0.00    +0.051 C 
BRANCH   3   5
ATOM      4  C   UNL     1     -11.898  12.656  68.219  0.00  0.00    -0.026 C 
ATOM      5  C   UNL     1     -11.864  13.996  68.225  0.00  0.00    -0.026 C 
BRANCH   4   6
ATOM      6  C   UNL     1     -10.546  12.014  68.112  0.00  0.00    +0.051 C 
BRANCH   6   8
ATOM      7  C   UNL     1     -10.256  10.420  66.237  0.00  0.00    -0.026 C 
ATOM      8  C   UNL     1     -10.793  10.711  67.412  0.00  0.00    -0.026 C 
BRANCH   7   9
ATOM      9  C   UNL     1     -10.058  11.576  65.306  0.00  0.00    +0.051 C 
BRANCH   9  11
ATOM     10  C   UNL     1     -11.846  11.921  63.696  0.00  0.00    -0.030 C 
ATOM     11  C   UNL     1     -10.687  11.311  63.973  0.00  0.00    -0.026 C 
BRANCH  10  13
ATOM     12  C   UNL     1     -12.162  14.267  64.434  0.00  0.00    +0.005 C 
ATOM     13  C   UNL     1     -12.452  12.821  64.729  0.00  0.00    +0.026 C 
ENDBRANCH  10  13
ENDBRANCH   9  11
ENDBRANCH   7   9
ENDBRANCH   6   8
ENDBRANCH   4   6
ENDBRANCH   3   5
ENDBRANCH   1   3
BRANCH   2  14
ATOM     14  C   UNL     1     -11.897  14.948  71.999  0.00  0.00    +0.051 C 
BRANCH  14  15
ATOM     15  C   UNL     1     -13.092  14.332  72.655  0.00  0.00    -0.026 C 
ATOM     16  C   UNL     1     -13.659  13.216  72.224  0.00  0.00    -0.030 C 
BRANCH  16  17
ATOM     17  C   UNL     1     -12.788  12.258  71.498  0.00  0.00    +0.026 C 
BRANCH  17  18
ATOM     18  C   UNL     1     -13.218  10.825  71.784  0.00  0.00    +0.016 C 
BRANCH  18  19
ATOM     19  C   UNL     1     -12.435   9.950  70.816  0.00  0.00    +0.110 C 
BRANCH  19  20
ATOM     20  C   UNL     1     -11.930   8.759  71.567  0.00  0.00    +0.317 C 
ATOM     21  O   UNL     1     -12.572   8.476  72.624  0.00  0.00    -0.250 OA
BRANCH  20  22
ATOM     22  O   UNL     1     -10.557   8.553  71.612  0.00  0.00    -0.448 OA
BRANCH  22  23
ATOM     23  C   UNL     1      -9.767   9.354  70.752  0.00  0.00    +0.209 C 
ATOM     24  C   UNL     1      -8.322   8.901  70.793  0.00  0.00    +0.051 C 
ENDBRANCH  22  23
ENDBRANCH  20  22
ENDBRANCH  19  20
ENDBRANCH  18  19
ENDBRANCH  17  18
ENDBRANCH  16  17
ENDBRANCH  14  15
ENDBRANCH   2  14
TORSDOF 15
ENDMDL
