MODEL 1
REMARK VINA RESULT:      -6.6      0.000      0.000
REMARK  Name = 
REMARK  8 active torsions:
REMARK  status: ('A' for Active; 'I' for Inactive)
REMARK    1  A    between atoms: C_2  and  C_3
REMARK    2  A    between atoms: C_3  and  C_4
REMARK    3  A    between atoms: C_4  and  N_5
REMARK    4  A    between atoms: N_5  and  C_6
REMARK    5  A    between atoms: C_8  and  C_9
REMARK    6  A    between atoms: C_13  and  S_14
REMARK    7  A    between atoms: C_18  and  O_19
REMARK    8  A    between atoms: O_19  and  C_20
REMARK                            x       y       z     vdW  Elec       q    Type
REMARK                         _______ _______ _______ _____ _____    ______ ____
ROOT
ATOM      1  C   UNL     1     -11.663  15.673  69.158  0.00  0.00    +0.101 A 
ATOM      2  C   UNL     1     -11.588  14.400  68.613  0.00  0.00    +0.178 A 
ATOM      3  C   UNL     1     -11.919  13.364  69.477  0.00  0.00    +0.161 A 
ATOM      4  C   UNL     1     -12.305  13.595  70.791  0.00  0.00    +0.030 A 
ATOM      5  C   UNL     1     -12.248  14.868  71.316  0.00  0.00    +0.083 A 
ATOM      6  C   UNL     1     -12.054  15.916  70.455  0.00  0.00    +0.026 A 
ENDROOT
BRANCH   3   7
ATOM      7  S   UNL     1     -11.510  11.712  69.040  0.00  0.00    +0.096 S 
ATOM      8  O   UNL     1     -10.018  11.549  68.856  0.00  0.00    -0.150 OA
ATOM      9  O   UNL     1     -12.150  11.301  67.755  0.00  0.00    -0.150 OA
ATOM     10  N   UNL     1     -11.954  10.628  70.322  0.00  0.00    +0.039 NA
ENDBRANCH   3   7
BRANCH   5  11
ATOM     11  C   UNL     1     -12.320  15.035  72.774  0.00  0.00    +0.388 C 
ATOM     12  O   UNL     1     -12.146  16.344  73.233  0.00  0.00    -0.241 OA
ATOM     13  O   UNL     1     -13.238  14.381  73.351  0.00  0.00    -0.241 OA
ENDBRANCH   5  11
BRANCH   1  14
ATOM     14  N   UNL     1     -11.336  16.787  68.325  0.00  0.00    -0.234 NA
BRANCH  14  15
ATOM     15  C   UNL     1     -10.069  17.488  68.457  0.00  0.00    +0.112 C 
BRANCH  15  16
ATOM     16  C   UNL     1      -9.359  17.608  67.114  0.00  0.00    +0.023 C 
BRANCH  16  18
ATOM     17  C   UNL     1     -10.302  19.813  66.577  0.00  0.00    +0.000 C 
ATOM     18  C   UNL     1     -10.325  18.343  66.198  0.00  0.00    +0.002 C 
ENDBRANCH  16  18
ENDBRANCH  15  16
ENDBRANCH  14  15
ENDBRANCH   1  14
BRANCH   2  19
ATOM     19  O   UNL     1     -10.553  14.160  67.715  0.00  0.00    -0.451 OA
BRANCH  19  20
ATOM     20  C   UNL     1     -10.724  14.031  66.354  0.00  0.00    +0.145 A 
ATOM     21  C   UNL     1      -9.917  13.099  65.712  0.00  0.00    +0.037 A 
ATOM     22  C   UNL     1     -10.384  12.352  64.637  0.00  0.00    +0.003 A 
ATOM     23  C   UNL     1     -11.716  12.431  64.254  0.00  0.00    +0.000 A 
ATOM     24  C   UNL     1     -12.415  13.548  64.698  0.00  0.00    +0.003 A 
ATOM     25  C   UNL     1     -11.882  14.374  65.681  0.00  0.00    +0.037 A 
ENDBRANCH  19  20
ENDBRANCH   2  19
TORSDOF 8
ENDMDL
MODEL 2
REMARK VINA RESULT:      -6.5      2.644      5.639
REMARK  Name = 
REMARK  8 active torsions:
REMARK  status: ('A' for Active; 'I' for Inactive)
REMARK    1  A    between atoms: C_2  and  C_3
REMARK    2  A    between atoms: C_3  and  C_4
REMARK    3  A    between atoms: C_4  and  N_5
REMARK    4  A    between atoms: N_5  and  C_6
REMARK    5  A    between atoms: C_8  and  C_9
REMARK    6  A    between atoms: C_13  and  S_14
REMARK    7  A    between atoms: C_18  and  O_19
REMARK    8  A    between atoms: O_19  and  C_20
REMARK                            x       y       z     vdW  Elec       q    Type
REMARK                         _______ _______ _______ _____ _____    ______ ____
ROOT
ATOM      1  C   UNL     1     -11.144  14.936  69.451  0.00  0.00    +0.101 A 
ATOM      2  C   UNL     1     -10.765  15.512  68.248  0.00  0.00    +0.178 A 
ATOM      3  C   UNL     1     -10.884  14.691  67.133  0.00  0.00    +0.161 A 
ATOM      4  C   UNL     1     -11.357  13.389  67.225  0.00  0.00    +0.030 A 
ATOM      5  C   UNL     1     -11.606  12.827  68.459  0.00  0.00    +0.083 A 
ATOM      6  C   UNL     1     -11.624  13.651  69.553  0.00  0.00    +0.026 A 
ENDROOT
BRANCH   3   7
ATOM      7  S   UNL     1     -10.099  15.157  65.632  0.00  0.00    +0.096 S 
ATOM      8  O   UNL     1     -10.107  14.019  64.636  0.00  0.00    -0.150 OA
ATOM      9  O   UNL     1      -8.670  15.535  65.843  0.00  0.00    -0.150 OA
ATOM     10  N   UNL     1     -10.973  16.455  64.879  0.00  0.00    +0.039 NA
ENDBRANCH   3   7
BRANCH   5  11
ATOM     11  C   UNL     1     -11.764  11.370  68.552  0.00  0.00    +0.388 C 
ATOM     12  O   UNL     1     -12.726  10.933  69.468  0.00  0.00    -0.241 OA
ATOM     13  O   UNL     1     -11.752  10.750  67.448  0.00  0.00    -0.241 OA
ENDBRANCH   5  11
BRANCH   1  14
ATOM     14  N   UNL     1     -11.048  15.724  70.639  0.00  0.00    -0.234 NA
BRANCH  14  15
ATOM     15  C   UNL     1     -12.218  16.023  71.449  0.00  0.00    +0.112 C 
BRANCH  15  16
ATOM     16  C   UNL     1     -12.141  15.340  72.809  0.00  0.00    +0.023 C 
BRANCH  16  18
ATOM     17  C   UNL     1     -14.368  14.839  71.897  0.00  0.00    +0.000 C 
ATOM     18  C   UNL     1     -13.285  14.339  72.836  0.00  0.00    +0.002 C 
ENDBRANCH  16  18
ENDBRANCH  15  16
ENDBRANCH  14  15
ENDBRANCH   1  14
BRANCH   2  19
ATOM     19  O   UNL     1      -9.673  16.374  68.278  0.00  0.00    -0.451 OA
BRANCH  19  20
ATOM     20  C   UNL     1      -9.770  17.747  68.294  0.00  0.00    +0.145 A 
ATOM     21  C   UNL     1      -8.596  18.451  68.534  0.00  0.00    +0.037 A 
ATOM     22  C   UNL     1      -8.340  19.669  67.915  0.00  0.00    +0.003 A 
ATOM     23  C   UNL     1      -9.202  20.156  66.942  0.00  0.00    +0.000 A 
ATOM     24  C   UNL     1     -10.480  19.608  66.928  0.00  0.00    +0.003 A 
ATOM     25  C   UNL     1     -10.769  18.462  67.658  0.00  0.00    +0.037 A 
ENDBRANCH  19  20
ENDBRANCH   2  19
TORSDOF 8
ENDMDL
MODEL 3
REMARK VINA RESULT:      -6.4      2.561      5.429
REMARK  Name = 
REMARK  8 active torsions:
REMARK  status: ('A' for Active; 'I' for Inactive)
REMARK    1  A    between atoms: C_2  and  C_3
REMARK    2  A    between atoms: C_3  and  C_4
REMARK    3  A    between atoms: C_4  and  N_5
REMARK    4  A    between atoms: N_5  and  C_6
REMARK    5  A    between atoms: C_8  and  C_9
REMARK    6  A    between atoms: C_13  and  S_14
REMARK    7  A    between atoms: C_18  and  O_19
REMARK    8  A    between atoms: O_19  and  C_20
REMARK                            x       y       z     vdW  Elec       q    Type
REMARK                         _______ _______ _______ _____ _____    ______ ____
ROOT
ATOM      1  C   UNL     1     -10.743  15.272  68.857  0.00  0.00    +0.101 A 
ATOM      2  C   UNL     1     -10.765  14.053  68.198  0.00  0.00    +0.178 A 
ATOM      3  C   UNL     1     -10.506  14.110  66.834  0.00  0.00    +0.161 A 
ATOM      4  C   UNL     1     -10.236  15.308  66.186  0.00  0.00    +0.030 A 
ATOM      5  C   UNL     1     -10.345  16.503  66.864  0.00  0.00    +0.083 A 
ATOM      6  C   UNL     1     -10.468  16.465  68.228  0.00  0.00    +0.026 A 
ENDROOT
BRANCH   3   7
ATOM      7  S   UNL     1     -10.867  12.716  65.828  0.00  0.00    +0.096 S 
ATOM      8  O   UNL     1     -10.639  13.024  64.366  0.00  0.00    -0.150 OA
ATOM      9  O   UNL     1     -12.291  12.287  65.961  0.00  0.00    -0.150 OA
ATOM     10  N   UNL     1      -9.793  11.407  66.214  0.00  0.00    +0.039 NA
ENDBRANCH   3   7
BRANCH   5  11
ATOM     11  C   UNL     1     -10.400  17.751  66.092  0.00  0.00    +0.388 C 
ATOM     12  O   UNL     1     -11.003  17.647  64.835  0.00  0.00    -0.241 OA
ATOM     13  O   UNL     1     -10.711  18.786  66.752  0.00  0.00    -0.241 OA
ENDBRANCH   5  11
BRANCH   1  14
ATOM     14  N   UNL     1     -11.001  15.288  70.263  0.00  0.00    -0.234 NA
BRANCH  14  15
ATOM     15  C   UNL     1     -12.217  15.872  70.806  0.00  0.00    +0.112 C 
BRANCH  15  16
ATOM     16  C   UNL     1     -12.172  15.933  72.327  0.00  0.00    +0.023 C 
BRANCH  16  18
ATOM     17  C   UNL     1     -14.393  15.128  71.650  0.00  0.00    +0.000 C 
ATOM     18  C   UNL     1     -13.607  15.745  72.793  0.00  0.00    +0.002 C 
ENDBRANCH  16  18
ENDBRANCH  15  16
ENDBRANCH  14  15
ENDBRANCH   1  14
BRANCH   2  19
ATOM     19  O   UNL     1     -11.716  13.128  68.617  0.00  0.00    -0.451 OA
BRANCH  19  20
ATOM     20  C   UNL     1     -11.509  12.200  69.613  0.00  0.00    +0.145 A 
ATOM     21  C   UNL     1     -12.405  12.217  70.675  0.00  0.00    +0.037 A 
ATOM     22  C   UNL     1     -12.800  11.046  71.311  0.00  0.00    +0.003 A 
ATOM     23  C   UNL     1     -12.400   9.811  70.818  0.00  0.00    +0.000 A 
ATOM     24  C   UNL     1     -11.301   9.819  69.966  0.00  0.00    +0.003 A 
ATOM     25  C   UNL     1     -10.822  11.012  69.437  0.00  0.00    +0.037 A 
ENDBRANCH  19  20
ENDBRANCH   2  19
TORSDOF 8
ENDMDL
MODEL 4
REMARK VINA RESULT:      -6.3      2.903      5.608
REMARK  Name = 
REMARK  8 active torsions:
REMARK  status: ('A' for Active; 'I' for Inactive)
REMARK    1  A    between atoms: C_2  and  C_3
REMARK    2  A    between atoms: C_3  and  C_4
REMARK    3  A    between atoms: C_4  and  N_5
REMARK    4  A    between atoms: N_5  and  C_6
REMARK    5  A    between atoms: C_8  and  C_9
REMARK    6  A    between atoms: C_13  and  S_14
REMARK    7  A    between atoms: C_18  and  O_19
REMARK    8  A    between atoms: O_19  and  C_20
REMARK                            x       y       z     vdW  Elec       q    Type
REMARK                         _______ _______ _______ _____ _____    ______ ____
ROOT
ATOM      1  C   UNL     1     -12.492  11.853  70.635  0.00  0.00    +0.101 A 
ATOM      2  C   UNL     1     -11.835  12.400  69.544  0.00  0.00    +0.178 A 
ATOM      3  C   UNL     1     -11.728  13.786  69.549  0.00  0.00    +0.161 A 
ATOM      4  C   UNL     1     -12.238  14.560  70.583  0.00  0.00    +0.030 A 
ATOM      5  C   UNL     1     -12.986  13.975  71.582  0.00  0.00    +0.083 A 
ATOM      6  C   UNL     1     -12.993  12.609  71.670  0.00  0.00    +0.026 A 
ENDROOT
BRANCH   3   7
ATOM      7  S   UNL     1     -11.263  14.620  68.074  0.00  0.00    +0.096 S 
ATOM      8  O   UNL     1     -11.261  16.119  68.273  0.00  0.00    -0.150 OA
ATOM      9  O   UNL     1     -12.206  14.336  66.951  0.00  0.00    -0.150 OA
ATOM     10  N   UNL     1      -9.638  14.195  67.635  0.00  0.00    +0.039 NA
ENDBRANCH   3   7
BRANCH   5  11
ATOM     11  C   UNL     1     -13.796  14.837  72.454  0.00  0.00    +0.388 C 
ATOM     12  O   UNL     1     -13.121  15.372  73.555  0.00  0.00    -0.241 OA
ATOM     13  O   UNL     1     -14.570  15.641  71.856  0.00  0.00    -0.241 OA
ENDBRANCH   5  11
BRANCH   1  14
ATOM     14  N   UNL     1     -12.638  10.433  70.695  0.00  0.00    -0.234 NA
BRANCH  14  15
ATOM     15  C   UNL     1     -11.684   9.600  71.410  0.00  0.00    +0.112 C 
BRANCH  15  16
ATOM     16  C   UNL     1     -12.385   8.491  72.184  0.00  0.00    +0.023 C 
BRANCH  16  18
ATOM     17  C   UNL     1     -14.591   7.549  71.647  0.00  0.00    +0.000 C 
ATOM     18  C   UNL     1     -13.870   8.804  72.105  0.00  0.00    +0.002 C 
ENDBRANCH  16  18
ENDBRANCH  15  16
ENDBRANCH  14  15
ENDBRANCH   1  14
BRANCH   2  19
ATOM     19  O   UNL     1     -12.049  11.793  68.310  0.00  0.00    -0.451 OA
BRANCH  19  20
ATOM     20  C   UNL     1     -11.117  11.020  67.656  0.00  0.00    +0.145 A 
ATOM     21  C   UNL     1     -11.074  11.136  66.271  0.00  0.00    +0.037 A 
ATOM     22  C   UNL     1      -9.875  11.056  65.572  0.00  0.00    +0.003 A 
ATOM     23  C   UNL     1      -8.669  10.979  66.255  0.00  0.00    +0.000 A 
ATOM     24  C   UNL     1      -8.743  10.577  67.584  0.00  0.00    +0.003 A 
ATOM     25  C   UNL     1      -9.965  10.528  68.244  0.00  0.00    +0.037 A 
ENDBRANCH  19  20
ENDBRANCH   2  19
TORSDOF 8
ENDMDL
MODEL 5
REMARK VINA RESULT:      -6.2      3.129      5.727
REMARK  Name = 
REMARK  8 active torsions:
REMARK  status: ('A' for Active; 'I' for Inactive)
REMARK    1  A    between atoms: C_2  and  C_3
REMARK    2  A    between atoms: C_3  and  C_4
REMARK    3  A    between atoms: C_4  and  N_5
REMARK    4  A    between atoms: N_5  and  C_6
REMARK    5  A    between atoms: C_8  and  C_9
REMARK    6  A    between atoms: C_13  and  S_14
REMARK    7  A    between atoms: C_18  and  O_19
REMARK    8  A    between atoms: O_19  and  C_20
REMARK                            x       y       z     vdW  Elec       q    Type
REMARK                         _______ _______ _______ _____ _____    ______ ____
ROOT
ATOM      1  C   UNL     1     -12.427  12.252  70.650  0.00  0.00    +0.101 A 
ATOM      2  C   UNL     1     -11.693  12.823  69.622  0.00  0.00    +0.178 A 
ATOM      3  C   UNL     1     -11.742  14.210  69.556  0.00  0.00    +0.161 A 
ATOM      4  C   UNL     1     -12.472  14.964  70.466  0.00  0.00    +0.030 A 
ATOM      5  C   UNL     1     -13.279  14.342  71.394  0.00  0.00    +0.083 A 
ATOM      6  C   UNL     1     -13.146  12.989  71.563  0.00  0.00    +0.026 A 
ENDROOT
BRANCH   3   7
ATOM      7  S   UNL     1     -11.176  15.025  68.107  0.00  0.00    +0.096 S 
ATOM      8  O   UNL     1     -12.026  14.663  66.910  0.00  0.00    -0.150 OA
ATOM      9  O   UNL     1      -9.772  14.650  67.768  0.00  0.00    -0.150 OA
ATOM     10  N   UNL     1     -11.324  16.745  68.294  0.00  0.00    +0.039 NA
ENDBRANCH   3   7
BRANCH   5  11
ATOM     11  C   UNL     1     -14.291  15.140  72.098  0.00  0.00    +0.388 C 
ATOM     12  O   UNL     1     -13.784  16.120  72.956  0.00  0.00    -0.241 OA
ATOM     13  O   UNL     1     -15.283  15.499  71.399  0.00  0.00    -0.241 OA
ENDBRANCH   5  11
BRANCH   1  14
ATOM     14  N   UNL     1     -12.422  10.828  70.777  0.00  0.00    -0.234 NA
BRANCH  14  15
ATOM     15  C   UNL     1     -13.178  10.156  71.821  0.00  0.00    +0.112 C 
BRANCH  15  16
ATOM     16  C   UNL     1     -12.594   8.784  72.134  0.00  0.00    +0.023 C 
BRANCH  16  18
ATOM     17  C   UNL     1     -10.332   8.007  72.702  0.00  0.00    +0.000 C 
ATOM     18  C   UNL     1     -11.131   8.853  71.727  0.00  0.00    +0.002 C 
ENDBRANCH  16  18
ENDBRANCH  15  16
ENDBRANCH  14  15
ENDBRANCH   1  14
BRANCH   2  19
ATOM     19  O   UNL     1     -11.668  12.139  68.411  0.00  0.00    -0.451 OA
BRANCH  19  20
ATOM     20  C   UNL     1     -10.679  11.255  68.041  0.00  0.00    +0.145 A 
ATOM     21  C   UNL     1      -9.460  11.375  68.699  0.00  0.00    +0.037 A 
ATOM     22  C   UNL     1      -8.686  10.261  69.002  0.00  0.00    +0.003 A 
ATOM     23  C   UNL     1      -9.172   8.982  68.763  0.00  0.00    +0.000 A 
ATOM     24  C   UNL     1     -10.228   8.888  67.864  0.00  0.00    +0.003 A 
ATOM     25  C   UNL     1     -10.917  10.024  67.455  0.00  0.00    +0.037 A 
ENDBRANCH  19  20
ENDBRANCH   2  19
TORSDOF 8
ENDMDL
MODEL 6
REMARK VINA RESULT:      -6.1      2.719      7.188
REMARK  Name = 
REMARK  8 active torsions:
REMARK  status: ('A' for Active; 'I' for Inactive)
REMARK    1  A    between atoms: C_2  and  C_3
REMARK    2  A    between atoms: C_3  and  C_4
REMARK    3  A    between atoms: C_4  and  N_5
REMARK    4  A    between atoms: N_5  and  C_6
REMARK    5  A    between atoms: C_8  and  C_9
REMARK    6  A    between atoms: C_13  and  S_14
REMARK    7  A    between atoms: C_18  and  O_19
REMARK    8  A    between atoms: O_19  and  C_20
REMARK                            x       y       z     vdW  Elec       q    Type
REMARK                         _______ _______ _______ _____ _____    ______ ____
ROOT
ATOM      1  C   UNL     1     -11.637  12.328  68.234  0.00  0.00    +0.101 A 
ATOM      2  C   UNL     1     -11.563  13.700  68.423  0.00  0.00    +0.178 A 
ATOM      3  C   UNL     1     -11.120  14.427  67.326  0.00  0.00    +0.161 A 
ATOM      4  C   UNL     1     -10.785  13.816  66.124  0.00  0.00    +0.030 A 
ATOM      5  C   UNL     1     -10.763  12.442  66.028  0.00  0.00    +0.083 A 
ATOM      6  C   UNL     1     -11.318  11.712  67.046  0.00  0.00    +0.026 A 
ENDROOT
BRANCH   3   7
ATOM      7  S   UNL     1     -10.627  16.100  67.541  0.00  0.00    +0.096 S 
ATOM      8  O   UNL     1      -9.388  16.197  68.401  0.00  0.00    -0.150 OA
ATOM      9  O   UNL     1     -11.685  16.911  68.214  0.00  0.00    -0.150 OA
ATOM     10  N   UNL     1     -10.200  16.798  66.009  0.00  0.00    +0.039 NA
ENDBRANCH   3   7
BRANCH   5  11
ATOM     11  C   UNL     1     -10.081  11.825  64.882  0.00  0.00    +0.388 C 
ATOM     12  O   UNL     1     -10.179  10.432  64.811  0.00  0.00    -0.241 OA
ATOM     13  O   UNL     1     -10.218  12.429  63.778  0.00  0.00    -0.241 OA
ENDBRANCH   5  11
BRANCH   1  14
ATOM     14  N   UNL     1     -12.085  11.518  69.323  0.00  0.00    -0.234 NA
BRANCH  14  15
ATOM     15  C   UNL     1     -11.417  10.274  69.669  0.00  0.00    +0.112 C 
BRANCH  15  16
ATOM     16  C   UNL     1     -11.642   9.910  71.132  0.00  0.00    +0.023 C 
BRANCH  16  18
ATOM     17  C   UNL     1     -13.673   9.134  72.277  0.00  0.00    +0.000 C 
ATOM     18  C   UNL     1     -13.095  10.249  71.425  0.00  0.00    +0.002 C 
ENDBRANCH  16  18
ENDBRANCH  15  16
ENDBRANCH  14  15
ENDBRANCH   1  14
BRANCH   2  19
ATOM     19  O   UNL     1     -11.148  14.142  69.676  0.00  0.00    -0.451 OA
BRANCH  19  20
ATOM     20  C   UNL     1     -11.980  14.725  70.605  0.00  0.00    +0.145 A 
ATOM     21  C   UNL     1     -12.989  13.924  71.126  0.00  0.00    +0.037 A 
ATOM     22  C   UNL     1     -13.398  14.039  72.450  0.00  0.00    +0.003 A 
ATOM     23  C   UNL     1     -12.720  14.879  73.323  0.00  0.00    +0.000 A 
ATOM     24  C   UNL     1     -11.931  15.862  72.736  0.00  0.00    +0.003 A 
ATOM     25  C   UNL     1     -11.634  15.818  71.379  0.00  0.00    +0.037 A 
ENDBRANCH  19  20
ENDBRANCH   2  19
TORSDOF 8
ENDMDL
MODEL 7
REMARK VINA RESULT:      -6.1      2.794      5.282
REMARK  Name = 
REMARK  8 active torsions:
REMARK  status: ('A' for Active; 'I' for Inactive)
REMARK    1  A    between atoms: C_2  and  C_3
REMARK    2  A    between atoms: C_3  and  C_4
REMARK    3  A    between atoms: C_4  and  N_5
REMARK    4  A    between atoms: N_5  and  C_6
REMARK    5  A    between atoms: C_8  and  C_9
REMARK    6  A    between atoms: C_13  and  S_14
REMARK    7  A    between atoms: C_18  and  O_19
REMARK    8  A    between atoms: O_19  and  C_20
REMARK                            x       y       z     vdW  Elec       q    Type
REMARK                         _______ _______ _______ _____ _____    ______ ____
ROOT
ATOM      1  C   UNL     1     -10.477  15.487  68.640  0.00  0.00    +0.101 A 
ATOM      2  C   UNL     1     -10.861  14.738  67.539  0.00  0.00    +0.178 A 
ATOM      3  C   UNL     1     -10.843  15.414  66.325  0.00  0.00    +0.161 A 
ATOM      4  C   UNL     1     -10.459  16.745  66.229  0.00  0.00    +0.030 A 
ATOM      5  C   UNL     1     -10.202  17.476  67.369  0.00  0.00    +0.083 A 
ATOM      6  C   UNL     1     -10.085  16.804  68.557  0.00  0.00    +0.026 A 
ENDROOT
BRANCH   3   7
ATOM      7  S   UNL     1     -11.651  14.709  64.933  0.00  0.00    +0.096 S 
ATOM      8  O   UNL     1     -12.993  14.129  65.318  0.00  0.00    -0.150 OA
ATOM      9  O   UNL     1     -10.857  13.597  64.331  0.00  0.00    -0.150 OA
ATOM     10  N   UNL     1     -11.983  15.937  63.751  0.00  0.00    +0.039 NA
ENDBRANCH   3   7
BRANCH   5  11
ATOM     11  C   UNL     1     -10.143  18.940  67.270  0.00  0.00    +0.388 C 
ATOM     12  O   UNL     1      -9.376  19.435  66.212  0.00  0.00    -0.241 OA
ATOM     13  O   UNL     1     -11.238  19.543  67.468  0.00  0.00    -0.241 OA
ENDBRANCH   5  11
BRANCH   1  14
ATOM     14  N   UNL     1     -10.472  14.855  69.922  0.00  0.00    -0.234 NA
BRANCH  14  15
ATOM     15  C   UNL     1     -11.269  15.366  71.025  0.00  0.00    +0.112 C 
BRANCH  15  16
ATOM     16  C   UNL     1     -12.491  14.492  71.280  0.00  0.00    +0.023 C 
BRANCH  16  18
ATOM     17  C   UNL     1     -13.063  15.799  73.280  0.00  0.00    +0.000 C 
ATOM     18  C   UNL     1     -13.537  15.408  71.892  0.00  0.00    +0.002 C 
ENDBRANCH  16  18
ENDBRANCH  15  16
ENDBRANCH  14  15
ENDBRANCH   1  14
BRANCH   2  19
ATOM     19  O   UNL     1     -11.889  13.819  67.729  0.00  0.00    -0.451 OA
BRANCH  19  20
ATOM     20  C   UNL     1     -11.694  12.474  67.946  0.00  0.00    +0.145 A 
ATOM     21  C   UNL     1     -10.634  11.881  67.269  0.00  0.00    +0.037 A 
ATOM     22  C   UNL     1      -9.880  10.867  67.846  0.00  0.00    +0.003 A 
ATOM     23  C   UNL     1     -10.090  10.501  69.169  0.00  0.00    +0.000 A 
ATOM     24  C   UNL     1     -11.308  10.881  69.722  0.00  0.00    +0.003 A 
ATOM     25  C   UNL     1     -12.127  11.798  69.073  0.00  0.00    +0.037 A 
ENDBRANCH  19  20
ENDBRANCH   2  19
TORSDOF 8
ENDMDL
MODEL 8
REMARK VINA RESULT:      -6.1      3.031      5.351
REMARK  Name = 
REMARK  8 active torsions:
REMARK  status: ('A' for Active; 'I' for Inactive)
REMARK    1  A    between atoms: C_2  and  C_3
REMARK    2  A    between atoms: C_3  and  C_4
REMARK    3  A    between atoms: C_4  and  N_5
REMARK    4  A    between atoms: N_5  and  C_6
REMARK    5  A    between atoms: C_8  and  C_9
REMARK    6  A    between atoms: C_13  and  S_14
REMARK    7  A    between atoms: C_18  and  O_19
REMARK    8  A    between atoms: O_19  and  C_20
REMARK                            x       y       z     vdW  Elec       q    Type
REMARK                         _______ _______ _______ _____ _____    ______ ____
ROOT
ATOM      1  C   UNL     1     -10.511  14.806  68.017  0.00  0.00    +0.101 A 
ATOM      2  C   UNL     1     -10.932  13.916  67.041  0.00  0.00    +0.178 A 
ATOM      3  C   UNL     1     -11.047  14.447  65.763  0.00  0.00    +0.161 A 
ATOM      4  C   UNL     1     -10.752  15.776  65.488  0.00  0.00    +0.030 A 
ATOM      5  C   UNL     1     -10.454  16.646  66.515  0.00  0.00    +0.083 A 
ATOM      6  C   UNL     1     -10.206  16.123  67.756  0.00  0.00    +0.026 A 
ENDROOT
BRANCH   3   7
ATOM      7  S   UNL     1     -11.914  13.545  64.529  0.00  0.00    +0.096 S 
ATOM      8  O   UNL     1     -12.460  14.467  63.462  0.00  0.00    -0.150 OA
ATOM      9  O   UNL     1     -13.081  12.805  65.096  0.00  0.00    -0.150 OA
ATOM     10  N   UNL     1     -10.833  12.458  63.713  0.00  0.00    +0.039 NA
ENDBRANCH   3   7
BRANCH   5  11
ATOM     11  C   UNL     1     -10.491  18.090  66.249  0.00  0.00    +0.388 C 
ATOM     12  O   UNL     1     -10.949  18.451  64.979  0.00  0.00    -0.241 OA
ATOM     13  O   UNL     1     -10.923  18.807  67.200  0.00  0.00    -0.241 OA
ENDBRANCH   5  11
BRANCH   1  14
ATOM     14  N   UNL     1     -10.370  14.327  69.356  0.00  0.00    -0.234 NA
BRANCH  14  15
ATOM     15  C   UNL     1     -11.092  14.938  70.461  0.00  0.00    +0.112 C 
BRANCH  15  16
ATOM     16  C   UNL     1     -12.597  14.760  70.307  0.00  0.00    +0.023 C 
BRANCH  16  18
ATOM     17  C   UNL     1     -14.304  15.184  72.025  0.00  0.00    +0.000 C 
ATOM     18  C   UNL     1     -13.105  14.322  71.671  0.00  0.00    +0.002 C 
ENDBRANCH  16  18
ENDBRANCH  15  16
ENDBRANCH  14  15
ENDBRANCH   1  14
BRANCH   2  19
ATOM     19  O   UNL     1     -11.884  12.974  67.416  0.00  0.00    -0.451 OA
BRANCH  19  20
ATOM     20  C   UNL     1     -11.586  11.708  67.869  0.00  0.00    +0.145 A 
ATOM     21  C   UNL     1     -10.459  11.102  67.324  0.00  0.00    +0.037 A 
ATOM     22  C   UNL     1      -9.642  10.273  68.082  0.00  0.00    +0.003 A 
ATOM     23  C   UNL     1      -9.863  10.125  69.445  0.00  0.00    +0.000 A 
ATOM     24  C   UNL     1     -11.125  10.488  69.902  0.00  0.00    +0.003 A 
ATOM     25  C   UNL     1     -11.997  11.203  69.090  0.00  0.00    +0.037 A 
ENDBRANCH  19  20
ENDBRANCH   2  19
TORSDOF 8
ENDMDL
MODEL 9
REMARK VINA RESULT:      -6.0      2.753      5.077
REMARK  Name = 
REMARK  8 active torsions:
REMARK  status: ('A' for Active; 'I' for Inactive)
REMARK    1  A    between atoms: C_2  and  C_3
REMARK    2  A    between atoms: C_3  and  C_4
REMARK    3  A    between atoms: C_4  and  N_5
REMARK    4  A    between atoms: N_5  and  C_6
REMARK    5  A    between atoms: C_8  and  C_9
REMARK    6  A    between atoms: C_13  and  S_14
REMARK    7  A    between atoms: C_18  and  O_19
REMARK    8  A    between atoms: O_19  and  C_20
REMARK                            x       y       z     vdW  Elec       q    Type
REMARK                         _______ _______ _______ _____ _____    ______ ____
ROOT
ATOM      1  C   UNL     1     -11.759  14.169  68.294  0.00  0.00    +0.101 A 
ATOM      2  C   UNL     1     -12.021  14.343  66.944  0.00  0.00    +0.178 A 
ATOM      3  C   UNL     1     -12.013  13.181  66.183  0.00  0.00    +0.161 A 
ATOM      4  C   UNL     1     -11.769  11.935  66.745  0.00  0.00    +0.030 A 
ATOM      5  C   UNL     1     -11.397  11.832  68.069  0.00  0.00    +0.083 A 
ATOM      6  C   UNL     1     -11.525  12.939  68.865  0.00  0.00    +0.026 A 
ENDROOT
BRANCH   3   7
ATOM      7  S   UNL     1     -11.956  13.297  64.431  0.00  0.00    +0.096 S 
ATOM      8  O   UNL     1     -10.540  13.160  63.921  0.00  0.00    -0.150 OA
ATOM      9  O   UNL     1     -12.465  14.613  63.942  0.00  0.00    -0.150 OA
ATOM     10  N   UNL     1     -12.849  11.989  63.717  0.00  0.00    +0.039 NA
ENDBRANCH   3   7
BRANCH   5  11
ATOM     11  C   UNL     1     -10.812  10.570  68.542  0.00  0.00    +0.388 C 
ATOM     12  O   UNL     1     -10.986  10.308  69.904  0.00  0.00    -0.241 OA
ATOM     13  O   UNL     1     -10.977   9.574  67.778  0.00  0.00    -0.241 OA
ENDBRANCH   5  11
BRANCH   1  14
ATOM     14  N   UNL     1     -11.751  15.324  69.137  0.00  0.00    -0.234 NA
BRANCH  14  15
ATOM     15  C   UNL     1     -11.024  15.340  70.397  0.00  0.00    +0.112 C 
BRANCH  15  16
ATOM     16  C   UNL     1     -11.823  16.037  71.490  0.00  0.00    +0.023 C 
BRANCH  16  18
ATOM     17  C   UNL     1     -13.311  14.379  72.527  0.00  0.00    +0.000 C 
ATOM     18  C   UNL     1     -13.216  15.431  71.437  0.00  0.00    +0.002 C 
ENDBRANCH  16  18
ENDBRANCH  15  16
ENDBRANCH  14  15
ENDBRANCH   1  14
BRANCH   2  19
ATOM     19  O   UNL     1     -11.503  15.487  66.345  0.00  0.00    -0.451 OA
BRANCH  19  20
ATOM     20  C   UNL     1     -10.189  15.885  66.442  0.00  0.00    +0.145 A 
ATOM     21  C   UNL     1      -9.959  17.151  66.969  0.00  0.00    +0.037 A 
ATOM     22  C   UNL     1      -8.853  17.416  67.767  0.00  0.00    +0.003 A 
ATOM     23  C   UNL     1      -8.009  16.386  68.161  0.00  0.00    +0.000 A 
ATOM     24  C   UNL     1      -8.078  15.218  67.409  0.00  0.00    +0.003 A 
ATOM     25  C   UNL     1      -9.116  15.014  66.508  0.00  0.00    +0.037 A 
ENDBRANCH  19  20
ENDBRANCH   2  19
TORSDOF 8
ENDMDL
