MODEL 1
REMARK VINA RESULT:      -6.7      0.000      0.000
REMARK  Name = 
REMARK  5 active torsions:
REMARK  status: ('A' for Active; 'I' for Inactive)
REMARK    1  A    between atoms: C_6  and  O_7
REMARK    2  A    between atoms: O_7  and  C_8
REMARK    3  A    between atoms: C_8  and  C_10
REMARK    4  A    between atoms: C_10  and  C_11
REMARK    5  A    between atoms: C_10  and  C_13
REMARK                            x       y       z     vdW  Elec       q    Type
REMARK                         _______ _______ _______ _____ _____    ______ ____
ROOT
ATOM      1  O   UNL     1      -9.624  17.010  65.700  0.00  0.00    -0.452 OA
ENDROOT
BRANCH   1   9
ATOM      2  C   UNL     1      -8.366  19.279  68.706  0.00  0.00    +0.170 C 
ATOM      3  N   UNL     1      -8.295  19.153  68.411  0.00  0.00    +0.302 N 
ATOM      4  C   UNL     1      -8.917  17.795  67.742  0.00  0.00    +0.093 C 
ATOM      5  C   UNL     1      -9.022  18.939  66.559  0.00  0.00    +0.197 C 
ATOM      6  C   UNL     1     -10.114  19.781  67.670  0.00  0.00    +0.197 C 
ATOM      7  O   UNL     1     -10.603  19.418  66.057  0.00  0.00    -0.342 OA
ATOM      8  C   UNL     1     -10.478  17.991  67.790  0.00  0.00    +0.101 C 
ATOM      9  C   UNL     1      -9.826  18.108  66.411  0.00  0.00    +0.180 C 
ATOM     10  C   UNL     1      -8.653  19.149  66.152  0.00  0.00    +0.101 C 
ATOM     11  C   UNL     1      -8.585  20.308  67.282  0.00  0.00    +0.093 C 
ATOM     12  C   UNL     1      -6.931  18.871  67.884  0.00  0.00    +0.170 C 
ENDBRANCH   1   9
BRANCH   1  13
ATOM     13  C   UNL     1     -10.798  16.325  65.344  0.00  0.00    +0.323 C 
ATOM     14  O   UNL     1     -11.259  16.749  64.274  0.00  0.00    -0.250 OA
BRANCH  13  15
ATOM     15  C   UNL     1      -9.980  14.931  65.369  0.00  0.00    +0.154 C 
BRANCH  15  16
ATOM     16  C   UNL     1     -10.628  14.448  66.743  0.00  0.00    -0.009 A 
ATOM     17  C   UNL     1      -9.556  14.209  67.565  0.00  0.00    -0.004 A 
ATOM     18  C   UNL     1      -9.707  14.458  68.916  0.00  0.00    -0.000 A 
ATOM     19  C   UNL     1     -10.991  14.328  69.410  0.00  0.00    -0.000 A 
ATOM     20  C   UNL     1     -12.043  14.202  68.496  0.00  0.00    -0.000 A 
ATOM     21  C   UNL     1     -11.855  14.527  67.150  0.00  0.00    -0.004 A 
ENDBRANCH  15  16
BRANCH  15  22
ATOM     22  C   UNL     1     -11.091  14.125  64.464  0.00  0.00    +0.198 C 
ATOM     23  O   UNL     1     -10.360  13.022  64.145  0.00  0.00    -0.219 OA
ENDBRANCH  15  22
ENDBRANCH  13  15
ENDBRANCH   1  13
TORSDOF 5
ENDMDL
MODEL 2
REMARK VINA RESULT:      -6.4      3.601      6.121
REMARK  Name = 
REMARK  5 active torsions:
REMARK  status: ('A' for Active; 'I' for Inactive)
REMARK    1  A    between atoms: C_6  and  O_7
REMARK    2  A    between atoms: O_7  and  C_8
REMARK    3  A    between atoms: C_8  and  C_10
REMARK    4  A    between atoms: C_10  and  C_11
REMARK    5  A    between atoms: C_10  and  C_13
REMARK                            x       y       z     vdW  Elec       q    Type
REMARK                         _______ _______ _______ _____ _____    ______ ____
ROOT
ATOM      1  O   UNL     1     -10.874  14.361  67.168  0.00  0.00    -0.452 OA
ENDROOT
BRANCH   1   9
ATOM      2  C   UNL     1     -12.153  12.029  64.218  0.00  0.00    +0.170 C 
ATOM      3  N   UNL     1     -12.037  12.326  64.302  0.00  0.00    +0.302 N 
ATOM      4  C   UNL     1     -12.140  13.050  65.766  0.00  0.00    +0.093 C 
ATOM      5  C   UNL     1     -10.564  13.228  65.312  0.00  0.00    +0.197 C 
ATOM      6  C   UNL     1     -10.498  11.460  65.367  0.00  0.00    +0.197 C 
ATOM      7  O   UNL     1      -9.370  12.414  66.256  0.00  0.00    -0.342 OA
ATOM      8  C   UNL     1     -11.521  12.018  66.780  0.00  0.00    +0.101 C 
ATOM      9  C   UNL     1     -10.672  13.253  66.473  0.00  0.00    +0.180 C 
ATOM     10  C   UNL     1     -10.271  13.613  64.977  0.00  0.00    +0.101 C 
ATOM     11  C   UNL     1     -10.431  12.356  63.967  0.00  0.00    +0.093 C 
ATOM     12  C   UNL     1     -12.290  13.601  63.575  0.00  0.00    +0.170 C 
ENDBRANCH   1   9
BRANCH   1  13
ATOM     13  C   UNL     1     -10.647  14.230  68.548  0.00  0.00    +0.323 C 
ATOM     14  O   UNL     1      -9.486  14.542  68.845  0.00  0.00    -0.250 OA
BRANCH  13  15
ATOM     15  C   UNL     1     -11.856  15.264  68.835  0.00  0.00    +0.154 C 
BRANCH  15  16
ATOM     16  C   UNL     1     -12.286  14.557  70.198  0.00  0.00    -0.009 A 
ATOM     17  C   UNL     1     -12.906  15.545  70.918  0.00  0.00    -0.004 A 
ATOM     18  C   UNL     1     -13.952  15.184  71.747  0.00  0.00    -0.000 A 
ATOM     19  C   UNL     1     -13.902  13.898  72.250  0.00  0.00    -0.000 A 
ATOM     20  C   UNL     1     -12.966  13.010  71.708  0.00  0.00    -0.000 A 
ATOM     21  C   UNL     1     -12.338  13.297  70.493  0.00  0.00    -0.004 A 
ENDBRANCH  15  16
BRANCH  15  22
ATOM     22  C   UNL     1     -10.898  16.356  69.605  0.00  0.00    +0.198 C 
ATOM     23  O   UNL     1     -10.952  17.374  68.703  0.00  0.00    -0.219 OA
ENDBRANCH  15  22
ENDBRANCH  13  15
ENDBRANCH   1  13
TORSDOF 5
ENDMDL
MODEL 3
REMARK VINA RESULT:      -6.2      2.737      6.018
REMARK  Name = 
REMARK  5 active torsions:
REMARK  status: ('A' for Active; 'I' for Inactive)
REMARK    1  A    between atoms: C_6  and  O_7
REMARK    2  A    between atoms: O_7  and  C_8
REMARK    3  A    between atoms: C_8  and  C_10
REMARK    4  A    between atoms: C_10  and  C_11
REMARK    5  A    between atoms: C_10  and  C_13
REMARK                            x       y       z     vdW  Elec       q    Type
REMARK                         _______ _______ _______ _____ _____    ______ ____
ROOT
ATOM      1  O   UNL     1     -10.861  14.330  66.989  0.00  0.00    -0.452 OA
ENDROOT
BRANCH   1   9
ATOM      2  C   UNL     1     -10.837  12.351  63.546  0.00  0.00    +0.170 C 
ATOM      3  N   UNL     1     -10.841  12.329  63.874  0.00  0.00    +0.302 N 
ATOM      4  C   UNL     1     -10.295  13.437  64.948  0.00  0.00    +0.093 C 
ATOM      5  C   UNL     1     -11.788  13.008  65.502  0.00  0.00    +0.197 C 
ATOM      6  C   UNL     1     -12.389  13.687  63.981  0.00  0.00    +0.197 C 
ATOM      7  O   UNL     1     -13.016  14.222  65.496  0.00  0.00    -0.342 OA
ATOM      8  C   UNL     1     -11.039  14.773  64.575  0.00  0.00    +0.101 C 
ATOM      9  C   UNL     1     -11.500  14.080  65.859  0.00  0.00    +0.180 C 
ATOM     10  C   UNL     1     -11.995  12.569  65.834  0.00  0.00    +0.101 C 
ATOM     11  C   UNL     1     -12.390  12.064  64.346  0.00  0.00    +0.093 C 
ATOM     12  C   UNL     1     -10.320  11.189  64.680  0.00  0.00    +0.170 C 
ENDBRANCH   1   9
BRANCH   1  13
ATOM     13  C   UNL     1     -11.088  15.614  67.512  0.00  0.00    +0.323 C 
ATOM     14  O   UNL     1     -11.820  15.570  68.511  0.00  0.00    -0.250 OA
BRANCH  13  15
ATOM     15  C   UNL     1      -9.494  15.811  67.693  0.00  0.00    +0.154 C 
BRANCH  15  16
ATOM     16  C   UNL     1      -9.576  17.403  67.674  0.00  0.00    -0.009 A 
ATOM     17  C   UNL     1      -9.704  17.726  66.347  0.00  0.00    -0.004 A 
ATOM     18  C   UNL     1     -10.462  18.835  66.020  0.00  0.00    -0.000 A 
ATOM     19  C   UNL     1     -10.507  19.832  66.975  0.00  0.00    -0.000 A 
ATOM     20  C   UNL     1     -10.008  19.552  68.252  0.00  0.00    -0.000 A 
ATOM     21  C   UNL     1      -9.781  18.231  68.649  0.00  0.00    -0.004 A 
ENDBRANCH  15  16
BRANCH  15  22
ATOM     22  C   UNL     1      -9.551  15.744  69.335  0.00  0.00    +0.198 C 
ATOM     23  O   UNL     1      -8.386  15.081  69.571  0.00  0.00    -0.219 OA
ENDBRANCH  15  22
ENDBRANCH  13  15
ENDBRANCH   1  13
TORSDOF 5
ENDMDL
MODEL 4
REMARK VINA RESULT:      -5.9      4.518      6.639
REMARK  Name = 
REMARK  5 active torsions:
REMARK  status: ('A' for Active; 'I' for Inactive)
REMARK    1  A    between atoms: C_6  and  O_7
REMARK    2  A    between atoms: O_7  and  C_8
REMARK    3  A    between atoms: C_8  and  C_10
REMARK    4  A    between atoms: C_10  and  C_11
REMARK    5  A    between atoms: C_10  and  C_13
REMARK                            x       y       z     vdW  Elec       q    Type
REMARK                         _______ _______ _______ _____ _____    ______ ____
ROOT
ATOM      1  O   UNL     1     -12.062  12.069  67.403  0.00  0.00    -0.452 OA
ENDROOT
BRANCH   1   9
ATOM      2  C   UNL     1     -10.970  12.563  63.617  0.00  0.00    +0.170 C 
ATOM      3  N   UNL     1     -11.220  12.509  63.825  0.00  0.00    +0.302 N 
ATOM      4  C   UNL     1     -11.139  11.830  65.312  0.00  0.00    +0.093 C 
ATOM      5  C   UNL     1     -12.054  13.187  65.514  0.00  0.00    +0.197 C 
ATOM      6  C   UNL     1     -10.597  14.067  65.024  0.00  0.00    +0.197 C 
ATOM      7  O   UNL     1     -11.401  14.443  66.503  0.00  0.00    -0.342 OA
ATOM      8  C   UNL     1     -10.069  12.678  66.094  0.00  0.00    +0.101 C 
ATOM      9  C   UNL     1     -11.527  12.884  66.509  0.00  0.00    +0.180 C 
ATOM     10  C   UNL     1     -12.622  13.316  65.441  0.00  0.00    +0.101 C 
ATOM     11  C   UNL     1     -11.972  13.942  64.096  0.00  0.00    +0.093 C 
ATOM     12  C   UNL     1     -12.496  11.813  63.500  0.00  0.00    +0.170 C 
ENDBRANCH   1   9
BRANCH   1  13
ATOM     13  C   UNL     1     -11.466  12.130  68.674  0.00  0.00    +0.323 C 
ATOM     14  O   UNL     1     -11.966  13.031  69.363  0.00  0.00    -0.250 OA
BRANCH  13  15
ATOM     15  C   UNL     1     -11.888  10.592  68.935  0.00  0.00    +0.154 C 
BRANCH  15  16
ATOM     16  C   UNL     1     -10.413  10.031  68.705  0.00  0.00    -0.009 A 
ATOM     17  C   UNL     1     -10.563   9.044  67.765  0.00  0.00    -0.004 A 
ATOM     18  C   UNL     1      -9.534   8.848  66.862  0.00  0.00    -0.000 A 
ATOM     19  C   UNL     1      -8.271   9.181  67.311  0.00  0.00    -0.000 A 
ATOM     20  C   UNL     1      -8.160   9.897  68.508  0.00  0.00    -0.000 A 
ATOM     21  C   UNL     1      -9.274  10.537  69.057  0.00  0.00    -0.004 A 
ENDBRANCH  15  16
BRANCH  15  22
ATOM     22  C   UNL     1     -11.688  10.688  70.564  0.00  0.00    +0.198 C 
ATOM     23  O   UNL     1     -12.904  10.226  70.966  0.00  0.00    -0.219 OA
ENDBRANCH  15  22
ENDBRANCH  13  15
ENDBRANCH   1  13
TORSDOF 5
ENDMDL
MODEL 5
REMARK VINA RESULT:      -5.8      2.028      5.425
REMARK  Name = 
REMARK  5 active torsions:
REMARK  status: ('A' for Active; 'I' for Inactive)
REMARK    1  A    between atoms: C_6  and  O_7
REMARK    2  A    between atoms: O_7  and  C_8
REMARK    3  A    between atoms: C_8  and  C_10
REMARK    4  A    between atoms: C_10  and  C_11
REMARK    5  A    between atoms: C_10  and  C_13
REMARK                            x       y       z     vdW  Elec       q    Type
REMARK                         _______ _______ _______ _____ _____    ______ ____
ROOT
ATOM      1  O   UNL     1     -10.964  16.108  66.585  0.00  0.00    -0.452 OA
ENDROOT
BRANCH   1   9
ATOM      2  C   UNL     1     -10.417  12.431  67.982  0.00  0.00    +0.170 C 
ATOM      3  N   UNL     1     -10.626  12.682  67.948  0.00  0.00    +0.302 N 
ATOM      4  C   UNL     1     -10.252  14.264  67.759  0.00  0.00    +0.093 C 
ATOM      5  C   UNL     1     -11.379  13.952  66.597  0.00  0.00    +0.197 C 
ATOM      6  C   UNL     1     -10.180  12.826  65.940  0.00  0.00    +0.197 C 
ATOM      7  O   UNL     1     -10.871  14.058  64.950  0.00  0.00    -0.342 OA
ATOM      8  C   UNL     1      -9.282  14.313  66.521  0.00  0.00    +0.101 C 
ATOM      9  C   UNL     1     -10.697  14.846  66.290  0.00  0.00    +0.180 C 
ATOM     10  C   UNL     1     -11.967  13.937  66.584  0.00  0.00    +0.101 C 
ATOM     11  C   UNL     1     -11.601  12.360  66.668  0.00  0.00    +0.093 C 
ATOM     12  C   UNL     1     -11.776  12.989  68.844  0.00  0.00    +0.170 C 
ENDBRANCH   1   9
BRANCH   1  13
ATOM     13  C   UNL     1     -10.330  17.045  65.753  0.00  0.00    +0.323 C 
ATOM     14  O   UNL     1     -11.052  17.360  64.796  0.00  0.00    -0.250 OA
BRANCH  13  15
ATOM     15  C   UNL     1     -10.182  18.049  67.012  0.00  0.00    +0.154 C 
BRANCH  15  16
ATOM     16  C   UNL     1      -8.604  17.856  67.123  0.00  0.00    -0.009 A 
ATOM     17  C   UNL     1      -8.385  17.558  68.444  0.00  0.00    -0.004 A 
ATOM     18  C   UNL     1      -7.349  16.695  68.750  0.00  0.00    -0.000 A 
ATOM     19  C   UNL     1      -6.291  16.689  67.862  0.00  0.00    -0.000 A 
ATOM     20  C   UNL     1      -6.450  17.346  66.637  0.00  0.00    -0.000 A 
ATOM     21  C   UNL     1      -7.722  17.706  66.185  0.00  0.00    -0.004 A 
ENDBRANCH  15  16
BRANCH  15  22
ATOM     22  C   UNL     1     -10.038  19.393  66.077  0.00  0.00    +0.198 C 
ATOM     23  O   UNL     1     -10.099  20.346  67.047  0.00  0.00    -0.219 OA
ENDBRANCH  15  22
ENDBRANCH  13  15
ENDBRANCH   1  13
TORSDOF 5
ENDMDL
MODEL 6
REMARK VINA RESULT:      -5.8      2.066      3.321
REMARK  Name = 
REMARK  5 active torsions:
REMARK  status: ('A' for Active; 'I' for Inactive)
REMARK    1  A    between atoms: C_6  and  O_7
REMARK    2  A    between atoms: O_7  and  C_8
REMARK    3  A    between atoms: C_8  and  C_10
REMARK    4  A    between atoms: C_10  and  C_11
REMARK    5  A    between atoms: C_10  and  C_13
REMARK                            x       y       z     vdW  Elec       q    Type
REMARK                         _______ _______ _______ _____ _____    ______ ____
ROOT
ATOM      1  O   UNL     1     -10.718  16.002  66.317  0.00  0.00    -0.452 OA
ENDROOT
BRANCH   1   9
ATOM      2  C   UNL     1      -8.665  19.292  67.173  0.00  0.00    +0.170 C 
ATOM      3  N   UNL     1      -8.963  19.158  67.137  0.00  0.00    +0.302 N 
ATOM      4  C   UNL     1      -9.353  17.851  66.232  0.00  0.00    +0.093 C 
ATOM      5  C   UNL     1     -10.076  17.589  67.691  0.00  0.00    +0.197 C 
ATOM      6  C   UNL     1      -8.429  17.571  68.342  0.00  0.00    +0.197 C 
ATOM      7  O   UNL     1      -9.507  16.257  68.631  0.00  0.00    -0.342 OA
ATOM      8  C   UNL     1      -8.395  16.705  66.729  0.00  0.00    +0.101 C 
ATOM      9  C   UNL     1      -9.863  16.583  67.143  0.00  0.00    +0.180 C 
ATOM     10  C   UNL     1     -10.583  17.756  67.937  0.00  0.00    +0.101 C 
ATOM     11  C   UNL     1      -9.535  18.780  68.628  0.00  0.00    +0.093 C 
ATOM     12  C   UNL     1     -10.209  19.880  66.757  0.00  0.00    +0.170 C 
ENDBRANCH   1   9
BRANCH   1  13
ATOM     13  C   UNL     1     -10.897  14.627  66.541  0.00  0.00    +0.323 C 
ATOM     14  O   UNL     1     -11.967  14.402  67.124  0.00  0.00    -0.250 OA
BRANCH  13  15
ATOM     15  C   UNL     1     -10.778  14.362  64.950  0.00  0.00    +0.154 C 
BRANCH  15  16
ATOM     16  C   UNL     1     -10.516  12.799  65.117  0.00  0.00    -0.009 A 
ATOM     17  C   UNL     1     -11.063  12.236  63.993  0.00  0.00    -0.004 A 
ATOM     18  C   UNL     1     -10.455  11.109  63.471  0.00  0.00    -0.000 A 
ATOM     19  C   UNL     1      -9.788  10.312  64.381  0.00  0.00    -0.000 A 
ATOM     20  C   UNL     1      -9.574  10.813  65.670  0.00  0.00    -0.000 A 
ATOM     21  C   UNL     1      -9.726  12.177  65.934  0.00  0.00    -0.004 A 
ENDBRANCH  15  16
BRANCH  15  22
ATOM     22  C   UNL     1     -12.395  14.155  64.742  0.00  0.00    +0.198 C 
ATOM     23  O   UNL     1     -12.642  15.179  63.880  0.00  0.00    -0.219 OA
ENDBRANCH  15  22
ENDBRANCH  13  15
ENDBRANCH   1  13
TORSDOF 5
ENDMDL
MODEL 7
REMARK VINA RESULT:      -5.8      2.442      5.599
REMARK  Name = 
REMARK  5 active torsions:
REMARK  status: ('A' for Active; 'I' for Inactive)
REMARK    1  A    between atoms: C_6  and  O_7
REMARK    2  A    between atoms: O_7  and  C_8
REMARK    3  A    between atoms: C_8  and  C_10
REMARK    4  A    between atoms: C_10  and  C_11
REMARK    5  A    between atoms: C_10  and  C_13
REMARK                            x       y       z     vdW  Elec       q    Type
REMARK                         _______ _______ _______ _____ _____    ______ ____
ROOT
ATOM      1  O   UNL     1      -8.831  15.227  66.298  0.00  0.00    -0.452 OA
ENDROOT
BRANCH   1   9
ATOM      2  C   UNL     1     -12.548  13.985  65.661  0.00  0.00    +0.170 C 
ATOM      3  N   UNL     1     -12.232  13.953  65.579  0.00  0.00    +0.302 N 
ATOM      4  C   UNL     1     -11.053  15.078  65.727  0.00  0.00    +0.093 C 
ATOM      5  C   UNL     1     -10.406  13.698  66.358  0.00  0.00    +0.197 C 
ATOM      6  C   UNL     1     -11.695  13.817  67.566  0.00  0.00    +0.197 C 
ATOM      7  O   UNL     1     -10.044  13.691  68.046  0.00  0.00    -0.342 OA
ATOM      8  C   UNL     1     -11.087  15.513  67.239  0.00  0.00    +0.101 C 
ATOM      9  C   UNL     1      -9.901  14.645  66.814  0.00  0.00    +0.180 C 
ATOM     10  C   UNL     1     -10.134  13.228  66.132  0.00  0.00    +0.101 C 
ATOM     11  C   UNL     1     -11.629  12.653  66.379  0.00  0.00    +0.093 C 
ATOM     12  C   UNL     1     -11.713  13.481  64.265  0.00  0.00    +0.170 C 
ENDBRANCH   1   9
BRANCH   1  13
ATOM     13  C   UNL     1      -7.923  15.721  67.250  0.00  0.00    +0.323 C 
ATOM     14  O   UNL     1      -7.067  14.873  67.538  0.00  0.00    -0.250 OA
BRANCH  13  15
ATOM     15  C   UNL     1      -7.548  16.933  66.248  0.00  0.00    +0.154 C 
BRANCH  15  16
ATOM     16  C   UNL     1      -8.311  18.033  67.114  0.00  0.00    -0.009 A 
ATOM     17  C   UNL     1      -8.837  18.897  66.188  0.00  0.00    -0.004 A 
ATOM     18  C   UNL     1     -10.048  19.498  66.477  0.00  0.00    -0.000 A 
ATOM     19  C   UNL     1     -10.321  19.682  67.818  0.00  0.00    -0.000 A 
ATOM     20  C   UNL     1      -9.498  19.048  68.756  0.00  0.00    -0.000 A 
ATOM     21  C   UNL     1      -8.647  18.011  68.365  0.00  0.00    -0.004 A 
ENDBRANCH  15  16
BRANCH  15  22
ATOM     22  C   UNL     1      -6.105  17.243  66.971  0.00  0.00    +0.198 C 
ATOM     23  O   UNL     1      -5.284  17.120  65.891  0.00  0.00    -0.219 OA
ENDBRANCH  15  22
ENDBRANCH  13  15
ENDBRANCH   1  13
TORSDOF 5
ENDMDL
MODEL 8
REMARK VINA RESULT:      -5.8      2.400      4.033
REMARK  Name = 
REMARK  5 active torsions:
REMARK  status: ('A' for Active; 'I' for Inactive)
REMARK    1  A    between atoms: C_6  and  O_7
REMARK    2  A    between atoms: O_7  and  C_8
REMARK    3  A    between atoms: C_8  and  C_10
REMARK    4  A    between atoms: C_10  and  C_11
REMARK    5  A    between atoms: C_10  and  C_13
REMARK                            x       y       z     vdW  Elec       q    Type
REMARK                         _______ _______ _______ _____ _____    ______ ____
ROOT
ATOM      1  O   UNL     1     -10.040  14.459  67.844  0.00  0.00    -0.452 OA
ENDROOT
BRANCH   1   9
ATOM      2  C   UNL     1      -9.571  18.167  66.503  0.00  0.00    +0.170 C 
ATOM      3  N   UNL     1      -9.620  17.976  66.766  0.00  0.00    +0.302 N 
ATOM      4  C   UNL     1     -10.298  16.486  66.791  0.00  0.00    +0.093 C 
ATOM      5  C   UNL     1      -8.926  16.345  67.696  0.00  0.00    +0.197 C 
ATOM      6  C   UNL     1      -8.069  16.741  66.197  0.00  0.00    +0.197 C 
ATOM      7  O   UNL     1      -7.678  15.318  67.089  0.00  0.00    -0.342 OA
ATOM      8  C   UNL     1      -9.464  15.637  65.761  0.00  0.00    +0.101 C 
ATOM      9  C   UNL     1      -9.235  15.318  67.240  0.00  0.00    +0.180 C 
ATOM     10  C   UNL     1      -8.787  16.455  68.257  0.00  0.00    +0.101 C 
ATOM     11  C   UNL     1      -8.175  17.756  67.511  0.00  0.00    +0.093 C 
ATOM     12  C   UNL     1     -10.296  18.382  68.029  0.00  0.00    +0.170 C 
ENDBRANCH   1   9
BRANCH   1  13
ATOM     13  C   UNL     1      -9.782  13.111  67.541  0.00  0.00    +0.323 C 
ATOM     14  O   UNL     1      -8.992  12.610  68.353  0.00  0.00    -0.250 OA
BRANCH  13  15
ATOM     15  C   UNL     1     -11.363  12.794  67.658  0.00  0.00    +0.154 C 
BRANCH  15  16
ATOM     16  C   UNL     1     -11.495  12.326  66.139  0.00  0.00    -0.009 A 
ATOM     17  C   UNL     1     -12.369  13.220  65.577  0.00  0.00    -0.004 A 
ATOM     18  C   UNL     1     -12.187  13.557  64.249  0.00  0.00    -0.000 A 
ATOM     19  C   UNL     1     -11.596  12.589  63.460  0.00  0.00    -0.000 A 
ATOM     20  C   UNL     1     -11.022  11.480  64.091  0.00  0.00    -0.000 A 
ATOM     21  C   UNL     1     -10.759  11.502  65.463  0.00  0.00    -0.004 A 
ENDBRANCH  15  16
BRANCH  15  22
ATOM     22  C   UNL     1     -11.137  11.259  68.200  0.00  0.00    +0.198 C 
ATOM     23  O   UNL     1     -12.354  11.042  68.770  0.00  0.00    -0.219 OA
ENDBRANCH  15  22
ENDBRANCH  13  15
ENDBRANCH   1  13
TORSDOF 5
ENDMDL
MODEL 9
REMARK VINA RESULT:      -5.8      3.723      5.897
REMARK  Name = 
REMARK  5 active torsions:
REMARK  status: ('A' for Active; 'I' for Inactive)
REMARK    1  A    between atoms: C_6  and  O_7
REMARK    2  A    between atoms: O_7  and  C_8
REMARK    3  A    between atoms: C_8  and  C_10
REMARK    4  A    between atoms: C_10  and  C_11
REMARK    5  A    between atoms: C_10  and  C_13
REMARK                            x       y       z     vdW  Elec       q    Type
REMARK                         _______ _______ _______ _____ _____    ______ ____
ROOT
ATOM      1  O   UNL     1     -11.055  14.182  67.751  0.00  0.00    -0.452 OA
ENDROOT
BRANCH   1   9
ATOM      2  C   UNL     1     -10.440  12.868  64.054  0.00  0.00    +0.170 C 
ATOM      3  N   UNL     1     -10.478  12.787  64.371  0.00  0.00    +0.302 N 
ATOM      4  C   UNL     1     -10.174  13.724  65.678  0.00  0.00    +0.093 C 
ATOM      5  C   UNL     1     -11.667  13.079  65.954  0.00  0.00    +0.197 C 
ATOM      6  C   UNL     1     -12.162  13.970  64.506  0.00  0.00    +0.197 C 
ATOM      7  O   UNL     1     -13.006  14.169  65.996  0.00  0.00    -0.342 OA
ATOM      8  C   UNL     1     -11.007  15.039  65.444  0.00  0.00    +0.101 C 
ATOM      9  C   UNL     1     -11.534  14.089  66.522  0.00  0.00    +0.180 C 
ATOM     10  C   UNL     1     -11.863  12.573  66.178  0.00  0.00    +0.101 C 
ATOM     11  C   UNL     1     -12.034  12.314  64.588  0.00  0.00    +0.093 C 
ATOM     12  C   UNL     1      -9.935  11.567  65.032  0.00  0.00    +0.170 C 
ENDBRANCH   1   9
BRANCH   1  13
ATOM     13  C   UNL     1     -12.009  13.984  68.762  0.00  0.00    +0.323 C 
ATOM     14  O   UNL     1     -11.673  13.068  69.526  0.00  0.00    -0.250 OA
BRANCH  13  15
ATOM     15  C   UNL     1     -11.826  15.522  69.224  0.00  0.00    +0.154 C 
BRANCH  15  16
ATOM     16  C   UNL     1     -12.542  15.302  70.631  0.00  0.00    -0.009 A 
ATOM     17  C   UNL     1     -11.604  15.679  71.558  0.00  0.00    -0.004 A 
ATOM     18  C   UNL     1     -12.048  16.267  72.727  0.00  0.00    -0.000 A 
ATOM     19  C   UNL     1     -13.311  15.894  73.144  0.00  0.00    -0.000 A 
ATOM     20  C   UNL     1     -14.115  15.169  72.257  0.00  0.00    -0.000 A 
ATOM     21  C   UNL     1     -13.794  15.108  70.899  0.00  0.00    -0.004 A 
ENDBRANCH  15  16
BRANCH  15  22
ATOM     22  C   UNL     1     -10.327  15.280  69.853  0.00  0.00    +0.198 C 
ATOM     23  O   UNL     1      -9.656  16.285  69.226  0.00  0.00    -0.219 OA
ENDBRANCH  15  22
ENDBRANCH  13  15
ENDBRANCH   1  13
TORSDOF 5
ENDMDL
