MODEL 1
REMARK VINA RESULT:      -6.7      0.000      0.000
REMARK  Name = 
REMARK  2 active torsions:
REMARK  status: ('A' for Active; 'I' for Inactive)
REMARK    1  A    between atoms: C_2  and  C_4
REMARK    2  A    between atoms: C_4  and  C_6
REMARK                            x       y       z     vdW  Elec       q    Type
REMARK                         _______ _______ _______ _____ _____    ______ ____
ROOT
ATOM      1  C   UNL     1     -10.409  15.062  64.873  0.00  0.00    +0.147 C 
ATOM      2  N   UNL     1     -10.963  16.507  65.191  0.00  0.00    -0.228 NA
ATOM      3  C   UNL     1     -10.286  17.304  66.116  0.00  0.00    +0.157 A 
ATOM      4  C   UNL     1     -10.431  16.811  67.419  0.00  0.00    +0.170 A 
ATOM      5  N   UNL     1     -10.067  17.501  68.500  0.00  0.00    -0.193 NA
ATOM      6  C   UNL     1      -9.668  18.794  68.342  0.00  0.00    +0.260 A 
ATOM      7  N   UNL     1      -9.833  19.343  67.115  0.00  0.00    -0.171 NA
ATOM      8  N   UNL     1      -8.650  19.319  69.203  0.00  0.00    -0.086 NA
ATOM      9  N   UNL     1     -10.587  15.383  67.339  0.00  0.00    -0.217 NA
ATOM     10  C   UNL     1     -10.395  18.691  66.072  0.00  0.00    +0.299 A 
ATOM     11  O   UNL     1     -10.893  19.282  65.073  0.00  0.00    -0.264 OA
ATOM     12  C   UNL     1      -9.723  14.784  66.359  0.00  0.00    +0.138 C 
ENDROOT
BRANCH   1  13
ATOM     13  C   UNL     1     -11.905  14.368  65.398  0.00  0.00    +0.203 C 
ATOM     14  O   UNL     1     -12.585  14.848  64.131  0.00  0.00    -0.219 OA
BRANCH  13  16
ATOM     15  C   UNL     1     -11.416  11.942  66.062  0.00  0.00    +0.038 C 
ATOM     16  C   UNL     1     -11.656  12.808  64.661  0.00  0.00    +0.184 C 
ATOM     17  O   UNL     1     -13.170  12.515  64.716  0.00  0.00    -0.220 OA
ENDBRANCH  13  16
ENDBRANCH   1  13
TORSDOF 2
ENDMDL
MODEL 2
REMARK VINA RESULT:      -6.6      2.956      5.478
REMARK  Name = 
REMARK  2 active torsions:
REMARK  status: ('A' for Active; 'I' for Inactive)
REMARK    1  A    between atoms: C_2  and  C_4
REMARK    2  A    between atoms: C_4  and  C_6
REMARK                            x       y       z     vdW  Elec       q    Type
REMARK                         _______ _______ _______ _____ _____    ______ ____
ROOT
ATOM      1  C   UNL     1      -9.270  16.428  67.306  0.00  0.00    +0.147 C 
ATOM      2  N   UNL     1      -9.811  16.359  65.824  0.00  0.00    -0.228 NA
ATOM      3  C   UNL     1     -10.778  15.407  65.498  0.00  0.00    +0.157 A 
ATOM      4  C   UNL     1     -10.245  14.112  65.511  0.00  0.00    +0.170 A 
ATOM      5  N   UNL     1     -10.899  13.055  65.030  0.00  0.00    -0.193 NA
ATOM      6  C   UNL     1     -12.074  13.261  64.372  0.00  0.00    +0.260 A 
ATOM      7  N   UNL     1     -12.410  14.544  64.101  0.00  0.00    -0.171 NA
ATOM      8  N   UNL     1     -13.115  12.281  64.480  0.00  0.00    -0.086 NA
ATOM      9  N   UNL     1      -9.176  14.080  66.474  0.00  0.00    -0.217 NA
ATOM     10  C   UNL     1     -11.634  15.604  64.418  0.00  0.00    +0.299 A 
ATOM     11  O   UNL     1     -11.736  16.731  63.856  0.00  0.00    -0.264 OA
ATOM     12  C   UNL     1      -9.481  14.822  67.667  0.00  0.00    +0.138 C 
ENDROOT
BRANCH   1  13
ATOM     13  C   UNL     1      -7.663  16.124  66.740  0.00  0.00    +0.203 C 
ATOM     14  O   UNL     1      -7.741  17.337  65.834  0.00  0.00    -0.219 OA
BRANCH  13  16
ATOM     15  C   UNL     1      -6.471  15.853  68.993  0.00  0.00    +0.038 C 
ATOM     16  C   UNL     1      -6.854  17.089  67.945  0.00  0.00    +0.184 C 
ATOM     17  O   UNL     1      -5.506  16.913  67.214  0.00  0.00    -0.220 OA
ENDBRANCH  13  16
ENDBRANCH   1  13
TORSDOF 2
ENDMDL
MODEL 3
REMARK VINA RESULT:      -6.5      2.437      5.955
REMARK  Name = 
REMARK  2 active torsions:
REMARK  status: ('A' for Active; 'I' for Inactive)
REMARK    1  A    between atoms: C_2  and  C_4
REMARK    2  A    between atoms: C_4  and  C_6
REMARK                            x       y       z     vdW  Elec       q    Type
REMARK                         _______ _______ _______ _____ _____    ______ ____
ROOT
ATOM      1  C   UNL     1      -9.489  16.136  67.421  0.00  0.00    +0.147 C 
ATOM      2  N   UNL     1     -10.769  15.221  67.563  0.00  0.00    -0.228 NA
ATOM      3  C   UNL     1     -11.009  14.235  66.605  0.00  0.00    +0.157 A 
ATOM      4  C   UNL     1     -11.375  14.796  65.375  0.00  0.00    +0.170 A 
ATOM      5  N   UNL     1     -11.862  14.073  64.366  0.00  0.00    -0.193 NA
ATOM      6  C   UNL     1     -12.146  12.759  64.584  0.00  0.00    +0.260 A 
ATOM      7  N   UNL     1     -12.076  12.319  65.863  0.00  0.00    -0.171 NA
ATOM      8  N   UNL     1     -11.960  11.819  63.518  0.00  0.00    -0.086 NA
ATOM      9  N   UNL     1     -10.743  16.083  65.266  0.00  0.00    -0.217 NA
ATOM     10  C   UNL     1     -11.776  13.116  66.913  0.00  0.00    +0.299 A 
ATOM     11  O   UNL     1     -12.071  12.828  68.107  0.00  0.00    -0.264 OA
ATOM     12  C   UNL     1      -9.394  16.084  65.764  0.00  0.00    +0.138 C 
ENDROOT
BRANCH   1  13
ATOM     13  C   UNL     1     -10.495  17.542  67.352  0.00  0.00    +0.203 C 
ATOM     14  O   UNL     1     -10.980  17.278  68.764  0.00  0.00    -0.219 OA
BRANCH  13  16
ATOM     15  C   UNL     1      -8.953  19.424  66.546  0.00  0.00    +0.038 C 
ATOM     16  C   UNL     1      -9.307  18.653  67.979  0.00  0.00    +0.184 C 
ATOM     17  O   UNL     1     -10.407  19.690  68.288  0.00  0.00    -0.220 OA
ENDBRANCH  13  16
ENDBRANCH   1  13
TORSDOF 2
ENDMDL
MODEL 4
REMARK VINA RESULT:      -6.4      1.772      2.182
REMARK  Name = 
REMARK  2 active torsions:
REMARK  status: ('A' for Active; 'I' for Inactive)
REMARK    1  A    between atoms: C_2  and  C_4
REMARK    2  A    between atoms: C_4  and  C_6
REMARK                            x       y       z     vdW  Elec       q    Type
REMARK                         _______ _______ _______ _____ _____    ______ ____
ROOT
ATOM      1  C   UNL     1      -9.837  13.682  66.588  0.00  0.00    +0.147 C 
ATOM      2  N   UNL     1     -10.727  14.831  65.969  0.00  0.00    -0.228 NA
ATOM      3  C   UNL     1     -10.406  16.161  66.246  0.00  0.00    +0.157 A 
ATOM      4  C   UNL     1     -10.673  16.485  67.582  0.00  0.00    +0.170 A 
ATOM      5  N   UNL     1     -10.658  17.736  68.042  0.00  0.00    -0.193 NA
ATOM      6  C   UNL     1     -10.516  18.755  67.149  0.00  0.00    +0.260 A 
ATOM      7  N   UNL     1     -10.573  18.434  65.835  0.00  0.00    -0.171 NA
ATOM      8  N   UNL     1      -9.799  19.932  67.543  0.00  0.00    -0.086 NA
ATOM      9  N   UNL     1     -10.510  15.292  68.370  0.00  0.00    -0.217 NA
ATOM     10  C   UNL     1     -10.792  17.180  65.379  0.00  0.00    +0.299 A 
ATOM     11  O   UNL     1     -11.218  16.930  64.217  0.00  0.00    -0.264 OA
ATOM     12  C   UNL     1      -9.381  14.503  67.957  0.00  0.00    +0.138 C 
ENDROOT
BRANCH   1  13
ATOM     13  C   UNL     1     -11.223  13.037  67.398  0.00  0.00    +0.203 C 
ATOM     14  O   UNL     1     -11.947  12.899  66.072  0.00  0.00    -0.219 OA
BRANCH  13  16
ATOM     15  C   UNL     1     -10.063  11.241  68.811  0.00  0.00    +0.038 C 
ATOM     16  C   UNL     1     -10.739  11.365  67.294  0.00  0.00    +0.184 C 
ATOM     17  O   UNL     1     -12.107  10.911  67.845  0.00  0.00    -0.220 OA
ENDBRANCH  13  16
ENDBRANCH   1  13
TORSDOF 2
ENDMDL
MODEL 5
REMARK VINA RESULT:      -6.4      2.434      3.119
REMARK  Name = 
REMARK  2 active torsions:
REMARK  status: ('A' for Active; 'I' for Inactive)
REMARK    1  A    between atoms: C_2  and  C_4
REMARK    2  A    between atoms: C_4  and  C_6
REMARK                            x       y       z     vdW  Elec       q    Type
REMARK                         _______ _______ _______ _____ _____    ______ ____
ROOT
ATOM      1  C   UNL     1     -10.378  13.832  65.995  0.00  0.00    +0.147 C 
ATOM      2  N   UNL     1     -11.082  15.078  66.665  0.00  0.00    -0.228 NA
ATOM      3  C   UNL     1     -11.080  15.191  68.057  0.00  0.00    +0.157 A 
ATOM      4  C   UNL     1     -11.907  14.229  68.649  0.00  0.00    +0.170 A 
ATOM      5  N   UNL     1     -12.246  14.259  69.938  0.00  0.00    -0.193 NA
ATOM      6  C   UNL     1     -11.889  15.345  70.679  0.00  0.00    +0.260 A 
ATOM      7  N   UNL     1     -11.363  16.399  70.011  0.00  0.00    -0.171 NA
ATOM      8  N   UNL     1     -11.556  15.166  72.062  0.00  0.00    -0.086 NA
ATOM      9  N   UNL     1     -11.924  13.070  67.797  0.00  0.00    -0.217 NA
ATOM     10  C   UNL     1     -11.211  16.434  68.668  0.00  0.00    +0.299 A 
ATOM     11  O   UNL     1     -11.089  17.507  68.013  0.00  0.00    -0.264 OA
ATOM     12  C   UNL     1     -10.631  12.768  67.244  0.00  0.00    +0.138 C 
ENDROOT
BRANCH   1  13
ATOM     13  C   UNL     1     -11.876  13.375  65.259  0.00  0.00    +0.203 C 
ATOM     14  O   UNL     1     -11.979  14.736  64.598  0.00  0.00    -0.219 OA
BRANCH  13  16
ATOM     15  C   UNL     1     -10.945  11.173  64.335  0.00  0.00    +0.038 C 
ATOM     16  C   UNL     1     -11.176  12.731  63.797  0.00  0.00    +0.184 C 
ATOM     17  O   UNL     1     -12.576  12.360  63.264  0.00  0.00    -0.220 OA
ENDBRANCH  13  16
ENDBRANCH   1  13
TORSDOF 2
ENDMDL
MODEL 6
REMARK VINA RESULT:      -6.4      2.294      5.700
REMARK  Name = 
REMARK  2 active torsions:
REMARK  status: ('A' for Active; 'I' for Inactive)
REMARK    1  A    between atoms: C_2  and  C_4
REMARK    2  A    between atoms: C_4  and  C_6
REMARK                            x       y       z     vdW  Elec       q    Type
REMARK                         _______ _______ _______ _____ _____    ______ ____
ROOT
ATOM      1  C   UNL     1      -9.691  18.358  67.227  0.00  0.00    +0.147 C 
ATOM      2  N   UNL     1      -9.966  17.643  65.846  0.00  0.00    -0.228 NA
ATOM      3  C   UNL     1     -10.440  16.330  65.844  0.00  0.00    +0.157 A 
ATOM      4  C   UNL     1      -9.456  15.430  66.272  0.00  0.00    +0.170 A 
ATOM      5  N   UNL     1      -9.584  14.108  66.156  0.00  0.00    -0.193 NA
ATOM      6  C   UNL     1     -10.651  13.616  65.469  0.00  0.00    +0.260 A 
ATOM      7  N   UNL     1     -11.419  14.509  64.801  0.00  0.00    -0.171 NA
ATOM      8  N   UNL     1     -11.238  12.377  65.887  0.00  0.00    -0.086 NA
ATOM      9  N   UNL     1      -8.592  16.120  67.191  0.00  0.00    -0.217 NA
ATOM     10  C   UNL     1     -11.159  15.836  64.760  0.00  0.00    +0.299 A 
ATOM     11  O   UNL     1     -11.615  16.603  63.866  0.00  0.00    -0.264 OA
ATOM     12  C   UNL     1      -9.310  16.989  68.085  0.00  0.00    +0.138 C 
ENDROOT
BRANCH   1  13
ATOM     13  C   UNL     1      -8.032  18.582  66.786  0.00  0.00    +0.203 C 
ATOM     14  O   UNL     1      -8.442  19.552  65.695  0.00  0.00    -0.219 OA
BRANCH  13  16
ATOM     15  C   UNL     1      -6.807  19.112  68.973  0.00  0.00    +0.038 C 
ATOM     16  C   UNL     1      -7.734  19.926  67.855  0.00  0.00    +0.184 C 
ATOM     17  O   UNL     1      -6.469  20.309  67.058  0.00  0.00    -0.220 OA
ENDBRANCH  13  16
ENDBRANCH   1  13
TORSDOF 2
ENDMDL
MODEL 7
REMARK VINA RESULT:      -6.2      4.626      5.799
REMARK  Name = 
REMARK  2 active torsions:
REMARK  status: ('A' for Active; 'I' for Inactive)
REMARK    1  A    between atoms: C_2  and  C_4
REMARK    2  A    between atoms: C_4  and  C_6
REMARK                            x       y       z     vdW  Elec       q    Type
REMARK                         _______ _______ _______ _____ _____    ______ ____
ROOT
ATOM      1  C   UNL     1     -11.960  13.915  68.359  0.00  0.00    +0.147 C 
ATOM      2  N   UNL     1     -12.048  13.254  69.791  0.00  0.00    -0.228 NA
ATOM      3  C   UNL     1     -12.492  14.024  70.868  0.00  0.00    +0.157 A 
ATOM      4  C   UNL     1     -11.551  14.998  71.223  0.00  0.00    +0.170 A 
ATOM      5  N   UNL     1     -11.636  15.713  72.345  0.00  0.00    -0.193 NA
ATOM      6  C   UNL     1     -12.601  15.389  73.250  0.00  0.00    +0.260 A 
ATOM      7  N   UNL     1     -13.297  14.249  73.026  0.00  0.00    -0.171 NA
ATOM      8  N   UNL     1     -13.210  16.432  74.022  0.00  0.00    -0.086 NA
ATOM      9  N   UNL     1     -10.821  15.364  70.039  0.00  0.00    -0.217 NA
ATOM     10  C   UNL     1     -13.061  13.420  71.985  0.00  0.00    +0.299 A 
ATOM     11  O   UNL     1     -13.418  12.209  71.970  0.00  0.00    -0.264 OA
ATOM     12  C   UNL     1     -11.661  15.465  68.877  0.00  0.00    +0.138 C 
ENDROOT
BRANCH   1  13
ATOM     13  C   UNL     1     -10.265  13.574  68.300  0.00  0.00    +0.203 C 
ATOM     14  O   UNL     1     -10.552  12.086  68.342  0.00  0.00    -0.219 OA
BRANCH  13  16
ATOM     15  C   UNL     1      -9.370  14.944  66.328  0.00  0.00    +0.038 C 
ATOM     16  C   UNL     1     -10.150  13.492  66.562  0.00  0.00    +0.184 C 
ATOM     17  O   UNL     1      -8.796  12.759  66.663  0.00  0.00    -0.220 OA
ENDBRANCH  13  16
ENDBRANCH   1  13
TORSDOF 2
ENDMDL
MODEL 8
REMARK VINA RESULT:      -6.1      2.291      2.879
REMARK  Name = 
REMARK  2 active torsions:
REMARK  status: ('A' for Active; 'I' for Inactive)
REMARK    1  A    between atoms: C_2  and  C_4
REMARK    2  A    between atoms: C_4  and  C_6
REMARK                            x       y       z     vdW  Elec       q    Type
REMARK                         _______ _______ _______ _____ _____    ______ ____
ROOT
ATOM      1  C   UNL     1     -11.622  13.777  66.216  0.00  0.00    +0.147 C 
ATOM      2  N   UNL     1     -10.862  14.657  67.284  0.00  0.00    -0.228 NA
ATOM      3  C   UNL     1     -10.897  16.048  67.167  0.00  0.00    +0.157 A 
ATOM      4  C   UNL     1     -10.150  16.489  66.068  0.00  0.00    +0.170 A 
ATOM      5  N   UNL     1      -9.848  17.771  65.864  0.00  0.00    -0.193 NA
ATOM      6  C   UNL     1     -10.159  18.674  66.834  0.00  0.00    +0.260 A 
ATOM      7  N   UNL     1     -10.598  18.181  68.016  0.00  0.00    -0.171 NA
ATOM      8  N   UNL     1     -10.543  20.002  66.453  0.00  0.00    -0.086 NA
ATOM      9  N   UNL     1     -10.180  15.456  65.066  0.00  0.00    -0.217 NA
ATOM     10  C   UNL     1     -10.708  16.860  68.282  0.00  0.00    +0.299 A 
ATOM     11  O   UNL     1     -10.743  16.389  69.453  0.00  0.00    -0.264 OA
ATOM     12  C   UNL     1     -11.472  14.837  64.946  0.00  0.00    +0.138 C 
ENDROOT
BRANCH   1  13
ATOM     13  C   UNL     1     -10.134  13.004  65.787  0.00  0.00    +0.203 C 
ATOM     14  O   UNL     1     -10.087  12.321  67.140  0.00  0.00    -0.219 OA
BRANCH  13  16
ATOM     15  C   UNL     1     -10.628  11.959  63.500  0.00  0.00    +0.038 C 
ATOM     16  C   UNL     1     -10.858  11.572  65.103  0.00  0.00    +0.184 C 
ATOM     17  O   UNL     1      -9.500  10.840  65.140  0.00  0.00    -0.220 OA
ENDBRANCH  13  16
ENDBRANCH   1  13
TORSDOF 2
ENDMDL
MODEL 9
REMARK VINA RESULT:      -6.1      3.331      5.165
REMARK  Name = 
REMARK  2 active torsions:
REMARK  status: ('A' for Active; 'I' for Inactive)
REMARK    1  A    between atoms: C_2  and  C_4
REMARK    2  A    between atoms: C_4  and  C_6
REMARK                            x       y       z     vdW  Elec       q    Type
REMARK                         _______ _______ _______ _____ _____    ______ ____
ROOT
ATOM      1  C   UNL     1     -10.208  11.043  67.044  0.00  0.00    +0.147 C 
ATOM      2  N   UNL     1     -11.543  11.719  66.540  0.00  0.00    -0.228 NA
ATOM      3  C   UNL     1     -11.468  12.893  65.788  0.00  0.00    +0.157 A 
ATOM      4  C   UNL     1     -11.050  13.977  66.571  0.00  0.00    +0.170 A 
ATOM      5  N   UNL     1     -11.105  15.239  66.148  0.00  0.00    -0.193 NA
ATOM      6  C   UNL     1     -11.719  15.502  64.962  0.00  0.00    +0.260 A 
ATOM      7  N   UNL     1     -12.386  14.480  64.375  0.00  0.00    -0.171 NA
ATOM      8  N   UNL     1     -11.222  16.566  64.139  0.00  0.00    -0.086 NA
ATOM      9  N   UNL     1     -10.202  13.469  67.617  0.00  0.00    -0.217 NA
ATOM     10  C   UNL     1     -12.495  13.247  64.919  0.00  0.00    +0.299 A 
ATOM     11  O   UNL     1     -13.397  12.425  64.595  0.00  0.00    -0.264 OA
ATOM     12  C   UNL     1      -9.313  12.436  67.159  0.00  0.00    +0.138 C 
ENDROOT
BRANCH   1  13
ATOM     13  C   UNL     1     -10.736  11.208  68.683  0.00  0.00    +0.203 C 
ATOM     14  O   UNL     1     -12.086  10.621  68.319  0.00  0.00    -0.219 OA
BRANCH  13  16
ATOM     15  C   UNL     1      -8.653  10.060  69.638  0.00  0.00    +0.038 C 
ATOM     16  C   UNL     1     -10.205   9.633  69.211  0.00  0.00    +0.184 C 
ATOM     17  O   UNL     1     -10.699   9.921  70.644  0.00  0.00    -0.220 OA
ENDBRANCH  13  16
ENDBRANCH   1  13
TORSDOF 2
ENDMDL
