MODEL 1
REMARK VINA RESULT:      -4.4      0.000      0.000
REMARK  Name = 
REMARK  4 active torsions:
REMARK  status: ('A' for Active; 'I' for Inactive)
REMARK    1  A    between atoms: O_2  and  C_3
REMARK    2  A    between atoms: C_3  and  C_5
REMARK    3  A    between atoms: C_6  and  C_7
REMARK    4  A    between atoms: C_7  and  O_9
REMARK                            x       y       z     vdW  Elec       q    Type
REMARK                         _______ _______ _______ _____ _____    ______ ____
ROOT
ATOM      1  C   UNL     1     -11.101  13.902  65.438  0.00  0.00    +0.089 C 
ATOM      2  C   UNL     1     -11.030  15.105  65.945  0.00  0.00    +0.089 C 
ENDROOT
BRANCH   1   3
ATOM      3  C   UNL     1     -12.138  12.930  65.688  0.00  0.00    +0.342 C 
ATOM      4  O   UNL     1     -12.139  12.301  66.782  0.00  0.00    -0.245 OA
BRANCH   3   6
ATOM      5  C   UNL     1     -12.541  12.042  63.426  0.00  0.00    +0.256 C 
ATOM      6  O   UNL     1     -13.010  12.447  64.711  0.00  0.00    -0.441 OA
ENDBRANCH   3   6
ENDBRANCH   1   3
BRANCH   2   7
ATOM      7  C   UNL     1     -10.734  16.305  65.156  0.00  0.00    +0.342 C 
ATOM      8  O   UNL     1     -11.398  16.640  64.143  0.00  0.00    -0.245 OA
BRANCH   7   9
ATOM      9  O   UNL     1      -9.872  17.263  65.652  0.00  0.00    -0.441 OA
ATOM     10  C   UNL     1     -10.288  18.350  66.448  0.00  0.00    +0.256 C 
ENDBRANCH   7   9
ENDBRANCH   2   7
TORSDOF 4
ENDMDL
MODEL 2
REMARK VINA RESULT:      -4.4      1.082      4.866
REMARK  Name = 
REMARK  4 active torsions:
REMARK  status: ('A' for Active; 'I' for Inactive)
REMARK    1  A    between atoms: O_2  and  C_3
REMARK    2  A    between atoms: C_3  and  C_5
REMARK    3  A    between atoms: C_6  and  C_7
REMARK    4  A    between atoms: C_7  and  O_9
REMARK                            x       y       z     vdW  Elec       q    Type
REMARK                         _______ _______ _______ _____ _____    ______ ____
ROOT
ATOM      1  C   UNL     1     -10.982  14.785  65.349  0.00  0.00    +0.089 C 
ATOM      2  C   UNL     1     -11.460  13.810  64.621  0.00  0.00    +0.089 C 
ENDROOT
BRANCH   1   3
ATOM      3  C   UNL     1     -10.905  16.175  64.970  0.00  0.00    +0.342 C 
ATOM      4  O   UNL     1     -11.544  16.572  63.957  0.00  0.00    -0.245 OA
BRANCH   3   6
ATOM      5  C   UNL     1      -8.842  16.639  66.235  0.00  0.00    +0.256 C 
ATOM      6  O   UNL     1      -9.978  17.079  65.493  0.00  0.00    -0.441 OA
ENDBRANCH   3   6
ENDBRANCH   1   3
BRANCH   2   7
ATOM      7  C   UNL     1     -12.392  12.798  65.127  0.00  0.00    +0.342 C 
ATOM      8  O   UNL     1     -13.301  12.290  64.422  0.00  0.00    -0.245 OA
BRANCH   7   9
ATOM      9  O   UNL     1     -12.141  12.164  66.327  0.00  0.00    -0.441 OA
ATOM     10  C   UNL     1     -11.035  11.317  66.546  0.00  0.00    +0.256 C 
ENDBRANCH   7   9
ENDBRANCH   2   7
TORSDOF 4
ENDMDL
MODEL 3
REMARK VINA RESULT:      -4.3      0.825      1.619
REMARK  Name = 
REMARK  4 active torsions:
REMARK  status: ('A' for Active; 'I' for Inactive)
REMARK    1  A    between atoms: O_2  and  C_3
REMARK    2  A    between atoms: C_3  and  C_5
REMARK    3  A    between atoms: C_6  and  C_7
REMARK    4  A    between atoms: C_7  and  O_9
REMARK                            x       y       z     vdW  Elec       q    Type
REMARK                         _______ _______ _______ _____ _____    ______ ____
ROOT
ATOM      1  C   UNL     1     -11.299  13.786  64.719  0.00  0.00    +0.089 C 
ATOM      2  C   UNL     1     -10.711  14.731  65.404  0.00  0.00    +0.089 C 
ENDROOT
BRANCH   1   3
ATOM      3  C   UNL     1     -12.196  12.784  65.243  0.00  0.00    +0.342 C 
ATOM      4  O   UNL     1     -13.255  12.517  64.611  0.00  0.00    -0.245 OA
BRANCH   3   6
ATOM      5  C   UNL     1     -11.113  11.295  66.880  0.00  0.00    +0.256 C 
ATOM      6  O   UNL     1     -12.110  12.254  66.531  0.00  0.00    -0.441 OA
ENDBRANCH   3   6
ENDBRANCH   1   3
BRANCH   2   7
ATOM      7  C   UNL     1     -10.663  16.134  64.981  0.00  0.00    +0.342 C 
ATOM      8  O   UNL     1     -11.483  16.634  64.170  0.00  0.00    -0.245 OA
BRANCH   7   9
ATOM      9  O   UNL     1      -9.871  17.035  65.664  0.00  0.00    -0.441 OA
ATOM     10  C   UNL     1     -10.356  18.237  66.220  0.00  0.00    +0.256 C 
ENDBRANCH   7   9
ENDBRANCH   2   7
TORSDOF 4
ENDMDL
MODEL 4
REMARK VINA RESULT:      -4.3      0.317      5.131
REMARK  Name = 
REMARK  4 active torsions:
REMARK  status: ('A' for Active; 'I' for Inactive)
REMARK    1  A    between atoms: O_2  and  C_3
REMARK    2  A    between atoms: C_3  and  C_5
REMARK    3  A    between atoms: C_6  and  C_7
REMARK    4  A    between atoms: C_7  and  O_9
REMARK                            x       y       z     vdW  Elec       q    Type
REMARK                         _______ _______ _______ _____ _____    ______ ____
ROOT
ATOM      1  C   UNL     1     -10.762  15.042  65.657  0.00  0.00    +0.089 C 
ATOM      2  C   UNL     1     -11.168  14.019  64.953  0.00  0.00    +0.089 C 
ENDROOT
BRANCH   1   3
ATOM      3  C   UNL     1     -10.748  16.421  65.230  0.00  0.00    +0.342 C 
ATOM      4  O   UNL     1     -11.368  16.745  64.179  0.00  0.00    -0.245 OA
BRANCH   3   6
ATOM      5  C   UNL     1     -10.377  18.679  66.144  0.00  0.00    +0.256 C 
ATOM      6  O   UNL     1      -9.895  17.394  65.754  0.00  0.00    -0.441 OA
ENDBRANCH   3   6
ENDBRANCH   1   3
BRANCH   2   7
ATOM      7  C   UNL     1     -12.059  12.977  65.470  0.00  0.00    +0.342 C 
ATOM      8  O   UNL     1     -12.209  12.749  66.697  0.00  0.00    -0.245 OA
BRANCH   7   9
ATOM      9  O   UNL     1     -12.977  12.374  64.633  0.00  0.00    -0.441 OA
ATOM     10  C   UNL     1     -12.664  11.896  63.344  0.00  0.00    +0.256 C 
ENDBRANCH   7   9
ENDBRANCH   2   7
TORSDOF 4
ENDMDL
MODEL 5
REMARK VINA RESULT:      -4.2      5.620      6.754
REMARK  Name = 
REMARK  4 active torsions:
REMARK  status: ('A' for Active; 'I' for Inactive)
REMARK    1  A    between atoms: O_2  and  C_3
REMARK    2  A    between atoms: C_3  and  C_5
REMARK    3  A    between atoms: C_6  and  C_7
REMARK    4  A    between atoms: C_7  and  O_9
REMARK                            x       y       z     vdW  Elec       q    Type
REMARK                         _______ _______ _______ _____ _____    ______ ____
ROOT
ATOM      1  C   UNL     1     -12.737  15.169  71.291  0.00  0.00    +0.089 C 
ATOM      2  C   UNL     1     -11.908  15.965  70.669  0.00  0.00    +0.089 C 
ENDROOT
BRANCH   1   3
ATOM      3  C   UNL     1     -13.770  15.567  72.217  0.00  0.00    +0.342 C 
ATOM      4  O   UNL     1     -14.959  15.666  71.805  0.00  0.00    -0.245 OA
BRANCH   3   6
ATOM      5  C   UNL     1     -12.465  15.603  74.306  0.00  0.00    +0.256 C 
ATOM      6  O   UNL     1     -13.524  16.094  73.486  0.00  0.00    -0.441 OA
ENDBRANCH   3   6
ENDBRANCH   1   3
BRANCH   2   7
ATOM      7  C   UNL     1     -11.611  15.872  69.236  0.00  0.00    +0.342 C 
ATOM      8  O   UNL     1     -11.320  16.871  68.530  0.00  0.00    -0.245 OA
BRANCH   7   9
ATOM      9  O   UNL     1     -11.378  14.640  68.657  0.00  0.00    -0.441 OA
ATOM     10  C   UNL     1     -11.904  14.254  67.407  0.00  0.00    +0.256 C 
ENDBRANCH   7   9
ENDBRANCH   2   7
TORSDOF 4
ENDMDL
MODEL 6
REMARK VINA RESULT:      -4.1      5.400      6.829
REMARK  Name = 
REMARK  4 active torsions:
REMARK  status: ('A' for Active; 'I' for Inactive)
REMARK    1  A    between atoms: O_2  and  C_3
REMARK    2  A    between atoms: C_3  and  C_5
REMARK    3  A    between atoms: C_6  and  C_7
REMARK    4  A    between atoms: C_7  and  O_9
REMARK                            x       y       z     vdW  Elec       q    Type
REMARK                         _______ _______ _______ _____ _____    ______ ____
ROOT
ATOM      1  C   UNL     1     -11.909  15.704  70.351  0.00  0.00    +0.089 C 
ATOM      2  C   UNL     1     -12.776  14.890  70.893  0.00  0.00    +0.089 C 
ENDROOT
BRANCH   1   3
ATOM      3  C   UNL     1     -11.734  15.949  68.940  0.00  0.00    +0.342 C 
ATOM      4  O   UNL     1     -11.822  14.983  68.133  0.00  0.00    -0.245 OA
BRANCH   3   6
ATOM      5  C   UNL     1      -9.868  17.521  68.598  0.00  0.00    +0.256 C 
ATOM      6  O   UNL     1     -11.228  17.137  68.408  0.00  0.00    -0.441 OA
ENDBRANCH   3   6
ENDBRANCH   1   3
BRANCH   2   7
ATOM      7  C   UNL     1     -13.626  15.246  72.033  0.00  0.00    +0.342 C 
ATOM      8  O   UNL     1     -14.756  15.782  71.905  0.00  0.00    -0.245 OA
BRANCH   7   9
ATOM      9  O   UNL     1     -13.331  14.764  73.293  0.00  0.00    -0.441 OA
ATOM     10  C   UNL     1     -12.469  15.417  74.198  0.00  0.00    +0.256 C 
ENDBRANCH   7   9
ENDBRANCH   2   7
TORSDOF 4
ENDMDL
MODEL 7
REMARK VINA RESULT:      -4.1      5.760      7.122
REMARK  Name = 
REMARK  4 active torsions:
REMARK  status: ('A' for Active; 'I' for Inactive)
REMARK    1  A    between atoms: O_2  and  C_3
REMARK    2  A    between atoms: C_3  and  C_5
REMARK    3  A    between atoms: C_6  and  C_7
REMARK    4  A    between atoms: C_7  and  O_9
REMARK                            x       y       z     vdW  Elec       q    Type
REMARK                         _______ _______ _______ _____ _____    ______ ____
ROOT
ATOM      1  C   UNL     1     -11.778  16.138  71.120  0.00  0.00    +0.089 C 
ATOM      2  C   UNL     1     -11.719  15.367  72.174  0.00  0.00    +0.089 C 
ENDROOT
BRANCH   1   3
ATOM      3  C   UNL     1     -11.383  15.782  69.778  0.00  0.00    +0.342 C 
ATOM      4  O   UNL     1     -11.617  16.587  68.835  0.00  0.00    -0.245 OA
BRANCH   3   6
ATOM      5  C   UNL     1     -11.894  13.567  68.830  0.00  0.00    +0.256 C 
ATOM      6  O   UNL     1     -10.978  14.503  69.395  0.00  0.00    -0.441 OA
ENDBRANCH   3   6
ENDBRANCH   1   3
BRANCH   2   7
ATOM      7  C   UNL     1     -12.815  15.217  73.135  0.00  0.00    +0.342 C 
ATOM      8  O   UNL     1     -13.050  16.054  74.043  0.00  0.00    -0.245 OA
BRANCH   7   9
ATOM      9  O   UNL     1     -13.803  14.277  72.917  0.00  0.00    -0.441 OA
ATOM     10  C   UNL     1     -13.592  13.069  72.222  0.00  0.00    +0.256 C 
ENDBRANCH   7   9
ENDBRANCH   2   7
TORSDOF 4
ENDMDL
MODEL 8
REMARK VINA RESULT:      -4.0      5.689      6.673
REMARK  Name = 
REMARK  4 active torsions:
REMARK  status: ('A' for Active; 'I' for Inactive)
REMARK    1  A    between atoms: O_2  and  C_3
REMARK    2  A    between atoms: C_3  and  C_5
REMARK    3  A    between atoms: C_6  and  C_7
REMARK    4  A    between atoms: C_7  and  O_9
REMARK                            x       y       z     vdW  Elec       q    Type
REMARK                         _______ _______ _______ _____ _____    ______ ____
ROOT
ATOM      1  C   UNL     1     -11.675  15.303  72.080  0.00  0.00    +0.089 C 
ATOM      2  C   UNL     1     -11.915  16.105  71.076  0.00  0.00    +0.089 C 
ENDROOT
BRANCH   1   3
ATOM      3  C   UNL     1     -12.598  14.955  73.134  0.00  0.00    +0.342 C 
ATOM      4  O   UNL     1     -12.313  15.259  74.325  0.00  0.00    -0.245 OA
BRANCH   3   6
ATOM      5  C   UNL     1     -13.580  12.913  72.166  0.00  0.00    +0.256 C 
ATOM      6  O   UNL     1     -13.678  14.085  72.973  0.00  0.00    -0.441 OA
ENDBRANCH   3   6
ENDBRANCH   1   3
BRANCH   2   7
ATOM      7  C   UNL     1     -11.576  15.792  69.685  0.00  0.00    +0.342 C 
ATOM      8  O   UNL     1     -11.487  16.667  68.787  0.00  0.00    -0.245 OA
BRANCH   7   9
ATOM      9  O   UNL     1     -11.079  14.546  69.358  0.00  0.00    -0.441 OA
ATOM     10  C   UNL     1     -11.815  13.571  68.654  0.00  0.00    +0.256 C 
ENDBRANCH   7   9
ENDBRANCH   2   7
TORSDOF 4
ENDMDL
MODEL 9
REMARK VINA RESULT:      -4.0      1.926      3.320
REMARK  Name = 
REMARK  4 active torsions:
REMARK  status: ('A' for Active; 'I' for Inactive)
REMARK    1  A    between atoms: O_2  and  C_3
REMARK    2  A    between atoms: C_3  and  C_5
REMARK    3  A    between atoms: C_6  and  C_7
REMARK    4  A    between atoms: C_7  and  O_9
REMARK                            x       y       z     vdW  Elec       q    Type
REMARK                         _______ _______ _______ _____ _____    ______ ____
ROOT
ATOM      1  C   UNL     1     -10.144  16.339  66.017  0.00  0.00    +0.089 C 
ATOM      2  C   UNL     1     -10.608  16.558  67.219  0.00  0.00    +0.089 C 
ENDROOT
BRANCH   1   3
ATOM      3  C   UNL     1     -10.890  15.821  64.896  0.00  0.00    +0.342 C 
ATOM      4  O   UNL     1     -11.454  16.629  64.107  0.00  0.00    -0.245 OA
BRANCH   3   6
ATOM      5  C   UNL     1     -12.494  13.981  65.227  0.00  0.00    +0.256 C 
ATOM      6  O   UNL     1     -11.248  14.480  64.746  0.00  0.00    -0.441 OA
ENDBRANCH   3   6
ENDBRANCH   1   3
BRANCH   2   7
ATOM      7  C   UNL     1     -10.361  17.790  67.975  0.00  0.00    +0.342 C 
ATOM      8  O   UNL     1      -9.462  17.890  68.848  0.00  0.00    -0.245 OA
BRANCH   7   9
ATOM      9  O   UNL     1     -10.937  18.977  67.570  0.00  0.00    -0.441 OA
ATOM     10  C   UNL     1     -10.304  19.898  66.710  0.00  0.00    +0.256 C 
ENDBRANCH   7   9
ENDBRANCH   2   7
TORSDOF 4
ENDMDL
