MODEL 1
REMARK VINA RESULT:      -7.3      0.000      0.000
REMARK  Name = 
REMARK  3 active torsions:
REMARK  status: ('A' for Active; 'I' for Inactive)
REMARK    1  A    between atoms: N_2  and  C_4
REMARK    2  A    between atoms: C_4  and  C_5
REMARK    3  A    between atoms: C_5  and  C_6
REMARK                            x       y       z     vdW  Elec       q    Type
REMARK                         _______ _______ _______ _____ _____    ______ ____
ROOT
ATOM      1  C   UNL     1     -11.660  16.079  68.911  0.00  0.00    -0.025 C 
ATOM      2  C   UNL     1     -11.730  14.759  69.080  0.00  0.00    -0.001 C 
ATOM      3  C   UNL     1     -11.406  13.972  67.882  0.00  0.00    +0.034 A 
ATOM      4  C   UNL     1     -11.746  12.640  67.679  0.00  0.00    +0.139 A 
ATOM      5  C   UNL     1     -11.737  12.117  66.408  0.00  0.00    +0.037 A 
ATOM      6  C   UNL     1     -11.448  12.969  65.356  0.00  0.00    +0.003 A 
ATOM      7  C   UNL     1     -10.769  14.148  65.627  0.00  0.00    +0.000 A 
ATOM      8  O   UNL     1     -12.236  11.765  68.654  0.00  0.00    -0.471 OA
ATOM      9  C   UNL     1     -11.869  11.754  70.030  0.00  0.00    +0.232 C 
ATOM     10  C   UNL     1     -12.354  12.980  70.734  0.00  0.00    +0.021 A 
ATOM     11  C   UNL     1     -13.118  12.699  71.858  0.00  0.00    -0.001 A 
ATOM     12  C   UNL     1     -14.153  13.558  72.190  0.00  0.00    -0.000 A 
ATOM     13  C   UNL     1     -13.984  14.905  71.888  0.00  0.00    -0.000 A 
ATOM     14  C   UNL     1     -12.980  15.295  71.010  0.00  0.00    -0.000 A 
ATOM     15  C   UNL     1     -11.077  14.792  66.813  0.00  0.00    +0.003 A 
ATOM     16  C   UNL     1     -12.191  14.322  70.405  0.00  0.00    -0.001 A 
ENDROOT
BRANCH   1  17
ATOM     17  C   UNL     1     -10.648  16.558  67.919  0.00  0.00    +0.043 C 
BRANCH  17  18
ATOM     18  C   UNL     1     -10.220  17.934  68.419  0.00  0.00    +0.077 C 
BRANCH  18  20
ATOM     19  C   UNL     1      -9.968  20.146  67.756  0.00  0.00    +0.090 C 
ATOM     20  N   UNL     1     -10.735  18.930  67.488  0.00  0.00    -0.270 NA
ATOM     21  C   UNL     1     -10.467  18.555  66.105  0.00  0.00    +0.090 C 
ENDBRANCH  18  20
ENDBRANCH  17  18
ENDBRANCH   1  17
TORSDOF 3
ENDMDL
MODEL 2
REMARK VINA RESULT:      -7.1      2.825      4.817
REMARK  Name = 
REMARK  3 active torsions:
REMARK  status: ('A' for Active; 'I' for Inactive)
REMARK    1  A    between atoms: N_2  and  C_4
REMARK    2  A    between atoms: C_4  and  C_5
REMARK    3  A    between atoms: C_5  and  C_6
REMARK                            x       y       z     vdW  Elec       q    Type
REMARK                         _______ _______ _______ _____ _____    ______ ____
ROOT
ATOM      1  C   UNL     1     -13.076  12.192  71.523  0.00  0.00    -0.025 C 
ATOM      2  C   UNL     1     -12.327  11.384  70.776  0.00  0.00    -0.001 C 
ATOM      3  C   UNL     1     -11.814  11.996  69.541  0.00  0.00    +0.034 A 
ATOM      4  C   UNL     1     -11.334  11.300  68.438  0.00  0.00    +0.139 A 
ATOM      5  C   UNL     1     -11.238  11.928  67.220  0.00  0.00    +0.037 A 
ATOM      6  C   UNL     1     -11.692  13.233  67.124  0.00  0.00    +0.003 A 
ATOM      7  C   UNL     1     -11.801  13.982  68.287  0.00  0.00    +0.000 A 
ATOM      8  O   UNL     1     -11.040   9.933  68.401  0.00  0.00    -0.471 OA
ATOM      9  C   UNL     1     -10.506   9.161  69.473  0.00  0.00    +0.232 C 
ATOM     10  C   UNL     1     -11.490   9.027  70.591  0.00  0.00    +0.021 A 
ATOM     11  C   UNL     1     -11.735   7.710  70.948  0.00  0.00    -0.001 A 
ATOM     12  C   UNL     1     -13.002   7.366  71.393  0.00  0.00    -0.000 A 
ATOM     13  C   UNL     1     -13.711   8.331  72.098  0.00  0.00    -0.000 A 
ATOM     14  C   UNL     1     -13.298   9.657  72.060  0.00  0.00    -0.000 A 
ATOM     15  C   UNL     1     -12.220  13.318  69.426  0.00  0.00    +0.003 A 
ATOM     16  C   UNL     1     -12.207  10.006  71.271  0.00  0.00    -0.001 A 
ENDROOT
BRANCH   1  17
ATOM     17  C   UNL     1     -12.729  13.646  71.465  0.00  0.00    +0.043 C 
BRANCH  17  18
ATOM     18  C   UNL     1     -13.646  14.317  72.483  0.00  0.00    +0.077 C 
BRANCH  18  20
ATOM     19  C   UNL     1     -12.469  15.452  74.133  0.00  0.00    +0.090 C 
ATOM     20  N   UNL     1     -13.075  15.618  72.812  0.00  0.00    -0.270 NA
ATOM     21  C   UNL     1     -12.001  15.975  71.894  0.00  0.00    +0.090 C 
ENDBRANCH  18  20
ENDBRANCH  17  18
ENDBRANCH   1  17
TORSDOF 3
ENDMDL
MODEL 3
REMARK VINA RESULT:      -7.1      2.967      6.818
REMARK  Name = 
REMARK  3 active torsions:
REMARK  status: ('A' for Active; 'I' for Inactive)
REMARK    1  A    between atoms: N_2  and  C_4
REMARK    2  A    between atoms: C_4  and  C_5
REMARK    3  A    between atoms: C_5  and  C_6
REMARK                            x       y       z     vdW  Elec       q    Type
REMARK                         _______ _______ _______ _____ _____    ______ ____
ROOT
ATOM      1  C   UNL     1     -12.082  11.629  69.284  0.00  0.00    -0.025 C 
ATOM      2  C   UNL     1     -11.890  12.945  69.205  0.00  0.00    -0.001 C 
ATOM      3  C   UNL     1     -12.335  13.699  70.387  0.00  0.00    +0.034 A 
ATOM      4  C   UNL     1     -12.586  15.065  70.421  0.00  0.00    +0.139 A 
ATOM      5  C   UNL     1     -13.344  15.597  71.437  0.00  0.00    +0.037 A 
ATOM      6  C   UNL     1     -13.890  14.727  72.365  0.00  0.00    +0.003 A 
ATOM      7  C   UNL     1     -13.321  13.469  72.507  0.00  0.00    +0.000 A 
ATOM      8  O   UNL     1     -12.240  15.983  69.425  0.00  0.00    -0.471 OA
ATOM      9  C   UNL     1     -11.074  15.933  68.607  0.00  0.00    +0.232 C 
ATOM     10  C   UNL     1     -11.115  14.770  67.669  0.00  0.00    +0.021 A 
ATOM     11  C   UNL     1     -10.942  15.132  66.342  0.00  0.00    -0.001 A 
ATOM     12  C   UNL     1     -11.602  14.406  65.363  0.00  0.00    -0.000 A 
ATOM     13  C   UNL     1     -11.806  13.053  65.604  0.00  0.00    -0.000 A 
ATOM     14  C   UNL     1     -11.651  12.549  66.890  0.00  0.00    -0.000 A 
ATOM     15  C   UNL     1     -12.858  12.855  71.356  0.00  0.00    +0.003 A 
ATOM     16  C   UNL     1     -11.342  13.422  67.928  0.00  0.00    -0.001 A 
ENDROOT
BRANCH   1  17
ATOM     17  C   UNL     1     -12.003  11.038  70.656  0.00  0.00    +0.043 C 
BRANCH  17  18
ATOM     18  C   UNL     1     -11.237   9.730  70.484  0.00  0.00    +0.077 C 
BRANCH  18  20
ATOM     19  C   UNL     1     -10.955   8.292  72.286  0.00  0.00    +0.090 C 
ATOM     20  N   UNL     1     -11.918   8.705  71.265  0.00  0.00    -0.270 NA
ATOM     21  C   UNL     1     -13.073   9.251  71.967  0.00  0.00    +0.090 C 
ENDBRANCH  18  20
ENDBRANCH  17  18
ENDBRANCH   1  17
TORSDOF 3
ENDMDL
MODEL 4
REMARK VINA RESULT:      -6.9      2.641      4.936
REMARK  Name = 
REMARK  3 active torsions:
REMARK  status: ('A' for Active; 'I' for Inactive)
REMARK    1  A    between atoms: N_2  and  C_4
REMARK    2  A    between atoms: C_4  and  C_5
REMARK    3  A    between atoms: C_5  and  C_6
REMARK                            x       y       z     vdW  Elec       q    Type
REMARK                         _______ _______ _______ _____ _____    ______ ____
ROOT
ATOM      1  C   UNL     1     -10.914  11.887  68.310  0.00  0.00    -0.025 C 
ATOM      2  C   UNL     1     -11.658  11.921  69.414  0.00  0.00    -0.001 C 
ATOM      3  C   UNL     1     -12.087  13.268  69.820  0.00  0.00    +0.034 A 
ATOM      4  C   UNL     1     -12.541  13.620  71.086  0.00  0.00    +0.139 A 
ATOM      5  C   UNL     1     -12.555  14.940  71.465  0.00  0.00    +0.037 A 
ATOM      6  C   UNL     1     -12.047  15.877  70.581  0.00  0.00    +0.003 A 
ATOM      7  C   UNL     1     -11.965  15.540  69.237  0.00  0.00    +0.000 A 
ATOM      8  O   UNL     1     -12.886  12.727  72.105  0.00  0.00    -0.471 OA
ATOM      9  C   UNL     1     -13.499  11.453  71.933  0.00  0.00    +0.232 C 
ATOM     10  C   UNL     1     -12.575  10.490  71.259  0.00  0.00    +0.021 A 
ATOM     11  C   UNL     1     -12.398   9.313  71.970  0.00  0.00    -0.001 A 
ATOM     12  C   UNL     1     -11.168   8.677  71.908  0.00  0.00    -0.000 A 
ATOM     13  C   UNL     1     -10.456   8.785  70.719  0.00  0.00    -0.000 A 
ATOM     14  C   UNL     1     -10.816   9.747  69.783  0.00  0.00    -0.000 A 
ATOM     15  C   UNL     1     -11.626  14.233  68.936  0.00  0.00    +0.003 A 
ATOM     16  C   UNL     1     -11.854  10.625  70.076  0.00  0.00    -0.001 A 
ENDROOT
BRANCH   1  17
ATOM     17  C   UNL     1     -11.202  12.948  67.295  0.00  0.00    +0.043 C 
BRANCH  17  18
ATOM     18  C   UNL     1     -11.188  12.228  65.950  0.00  0.00    +0.077 C 
BRANCH  18  20
ATOM     19  C   UNL     1     -12.657  13.949  65.424  0.00  0.00    +0.090 C 
ATOM     20  N   UNL     1     -12.451  12.508  65.278  0.00  0.00    -0.270 NA
ATOM     21  C   UNL     1     -12.365  12.236  63.848  0.00  0.00    +0.090 C 
ENDBRANCH  18  20
ENDBRANCH  17  18
ENDBRANCH   1  17
TORSDOF 3
ENDMDL
MODEL 5
REMARK VINA RESULT:      -6.6      2.226      5.549
REMARK  Name = 
REMARK  3 active torsions:
REMARK  status: ('A' for Active; 'I' for Inactive)
REMARK    1  A    between atoms: N_2  and  C_4
REMARK    2  A    between atoms: C_4  and  C_5
REMARK    3  A    between atoms: C_5  and  C_6
REMARK                            x       y       z     vdW  Elec       q    Type
REMARK                         _______ _______ _______ _____ _____    ______ ____
ROOT
ATOM      1  C   UNL     1     -10.972  16.055  69.458  0.00  0.00    -0.025 C 
ATOM      2  C   UNL     1     -10.898  16.336  68.158  0.00  0.00    -0.001 C 
ATOM      3  C   UNL     1     -11.122  15.185  67.271  0.00  0.00    +0.034 A 
ATOM      4  C   UNL     1     -10.751  15.117  65.933  0.00  0.00    +0.139 A 
ATOM      5  C   UNL     1     -10.660  13.896  65.309  0.00  0.00    +0.037 A 
ATOM      6  C   UNL     1     -10.882  12.760  66.068  0.00  0.00    +0.003 A 
ATOM      7  C   UNL     1     -11.595  12.884  67.252  0.00  0.00    +0.000 A 
ATOM      8  O   UNL     1     -10.323  16.194  65.150  0.00  0.00    -0.471 OA
ATOM      9  C   UNL     1     -10.790  17.536  65.243  0.00  0.00    +0.232 C 
ATOM     10  C   UNL     1     -10.373  18.171  66.531  0.00  0.00    +0.021 A 
ATOM     11  C   UNL     1      -9.691  19.365  66.356  0.00  0.00    -0.001 A 
ATOM     12  C   UNL     1      -8.694  19.699  67.259  0.00  0.00    -0.000 A 
ATOM     13  C   UNL     1      -8.858  19.277  68.573  0.00  0.00    -0.000 A 
ATOM     14  C   UNL     1      -9.800  18.300  68.872  0.00  0.00    -0.000 A 
ATOM     15  C   UNL     1     -11.383  14.032  67.996  0.00  0.00    +0.003 A 
ATOM     16  C   UNL     1     -10.529  17.721  67.839  0.00  0.00    -0.001 A 
ENDROOT
BRANCH   1  17
ATOM     17  C   UNL     1     -11.915  14.956  69.837  0.00  0.00    +0.043 C 
BRANCH  17  18
ATOM     18  C   UNL     1     -12.784  15.540  70.946  0.00  0.00    +0.077 C 
BRANCH  18  20
ATOM     19  C   UNL     1     -12.453  15.846  73.224  0.00  0.00    +0.090 C 
ATOM     20  N   UNL     1     -12.479  14.824  72.178  0.00  0.00    -0.270 NA
ATOM     21  C   UNL     1     -13.541  13.888  72.527  0.00  0.00    +0.090 C 
ENDBRANCH  18  20
ENDBRANCH  17  18
ENDBRANCH   1  17
TORSDOF 3
ENDMDL
MODEL 6
REMARK VINA RESULT:      -6.6      2.250      5.232
REMARK  Name = 
REMARK  3 active torsions:
REMARK  status: ('A' for Active; 'I' for Inactive)
REMARK    1  A    between atoms: N_2  and  C_4
REMARK    2  A    between atoms: C_4  and  C_5
REMARK    3  A    between atoms: C_5  and  C_6
REMARK                            x       y       z     vdW  Elec       q    Type
REMARK                         _______ _______ _______ _____ _____    ______ ____
ROOT
ATOM      1  C   UNL     1     -11.717  14.274  69.555  0.00  0.00    -0.025 C 
ATOM      2  C   UNL     1     -11.736  13.575  68.421  0.00  0.00    -0.001 C 
ATOM      3  C   UNL     1     -11.715  12.116  68.603  0.00  0.00    +0.034 A 
ATOM      4  C   UNL     1     -11.366  11.190  67.628  0.00  0.00    +0.139 A 
ATOM      5  C   UNL     1     -11.016   9.912  67.991  0.00  0.00    +0.037 A 
ATOM      6  C   UNL     1     -10.960   9.612  69.342  0.00  0.00    +0.003 A 
ATOM      7  C   UNL     1     -11.658  10.421  70.228  0.00  0.00    +0.000 A 
ATOM      8  O   UNL     1     -11.208  11.460  66.265  0.00  0.00    -0.471 OA
ATOM      9  C   UNL     1     -11.963  12.398  65.503  0.00  0.00    +0.232 C 
ATOM     10  C   UNL     1     -11.673  13.803  65.924  0.00  0.00    +0.021 A 
ATOM     11  C   UNL     1     -11.281  14.618  64.874  0.00  0.00    -0.001 A 
ATOM     12  C   UNL     1     -10.365  15.629  65.122  0.00  0.00    -0.000 A 
ATOM     13  C   UNL     1     -10.402  16.226  66.377  0.00  0.00    -0.000 A 
ATOM     14  C   UNL     1     -11.093  15.611  67.414  0.00  0.00    -0.000 A 
ATOM     15  C   UNL     1     -11.694  11.775  69.948  0.00  0.00    +0.003 A 
ATOM     16  C   UNL     1     -11.696  14.378  67.192  0.00  0.00    -0.001 A 
ENDROOT
BRANCH   1  17
ATOM     17  C   UNL     1     -12.380  13.630  70.732  0.00  0.00    +0.043 C 
BRANCH  17  18
ATOM     18  C   UNL     1     -12.139  14.583  71.898  0.00  0.00    +0.077 C 
BRANCH  18  20
ATOM     19  C   UNL     1     -13.352  15.963  73.319  0.00  0.00    +0.090 C 
ATOM     20  N   UNL     1     -13.362  14.643  72.688  0.00  0.00    -0.270 NA
ATOM     21  C   UNL     1     -14.547  14.587  71.841  0.00  0.00    +0.090 C 
ENDBRANCH  18  20
ENDBRANCH  17  18
ENDBRANCH   1  17
TORSDOF 3
ENDMDL
MODEL 7
REMARK VINA RESULT:      -6.4      3.656      6.451
REMARK  Name = 
REMARK  3 active torsions:
REMARK  status: ('A' for Active; 'I' for Inactive)
REMARK    1  A    between atoms: N_2  and  C_4
REMARK    2  A    between atoms: C_4  and  C_5
REMARK    3  A    between atoms: C_5  and  C_6
REMARK                            x       y       z     vdW  Elec       q    Type
REMARK                         _______ _______ _______ _____ _____    ______ ____
ROOT
ATOM      1  C   UNL     1     -12.909  11.301  71.529  0.00  0.00    -0.025 C 
ATOM      2  C   UNL     1     -12.471  12.284  70.743  0.00  0.00    -0.001 C 
ATOM      3  C   UNL     1     -11.664  11.838  69.598  0.00  0.00    +0.034 A 
ATOM      4  C   UNL     1     -10.805  12.641  68.858  0.00  0.00    +0.139 A 
ATOM      5  C   UNL     1      -9.834  12.066  68.074  0.00  0.00    +0.037 A 
ATOM      6  C   UNL     1      -9.707  10.687  68.104  0.00  0.00    +0.003 A 
ATOM      7  C   UNL     1     -10.786   9.933  68.540  0.00  0.00    +0.000 A 
ATOM      8  O   UNL     1     -10.738  14.036  68.919  0.00  0.00    -0.471 OA
ATOM      9  C   UNL     1     -11.835  14.920  69.131  0.00  0.00    +0.232 C 
ATOM     10  C   UNL     1     -12.390  14.780  70.513  0.00  0.00    +0.021 A 
ATOM     11  C   UNL     1     -12.446  15.981  71.203  0.00  0.00    -0.001 A 
ATOM     12  C   UNL     1     -12.252  15.968  72.576  0.00  0.00    -0.000 A 
ATOM     13  C   UNL     1     -12.687  14.845  73.269  0.00  0.00    -0.000 A 
ATOM     14  C   UNL     1     -12.990  13.680  72.575  0.00  0.00    -0.000 A 
ATOM     15  C   UNL     1     -11.542  10.456  69.574  0.00  0.00    +0.003 A 
ATOM     16  C   UNL     1     -12.802  13.641  71.198  0.00  0.00    -0.001 A 
ENDROOT
BRANCH   1  17
ATOM     17  C   UNL     1     -13.180   9.995  70.851  0.00  0.00    +0.043 C 
BRANCH  17  18
ATOM     18  C   UNL     1     -13.622   9.051  71.965  0.00  0.00    +0.077 C 
BRANCH  18  20
ATOM     19  C   UNL     1     -12.687   6.949  71.643  0.00  0.00    +0.090 C 
ATOM     20  N   UNL     1     -13.883   7.746  71.370  0.00  0.00    -0.270 NA
ATOM     21  C   UNL     1     -14.998   7.076  72.028  0.00  0.00    +0.090 C 
ENDBRANCH  18  20
ENDBRANCH  17  18
ENDBRANCH   1  17
TORSDOF 3
ENDMDL
MODEL 8
REMARK VINA RESULT:      -6.2      2.656      6.299
REMARK  Name = 
REMARK  3 active torsions:
REMARK  status: ('A' for Active; 'I' for Inactive)
REMARK    1  A    between atoms: N_2  and  C_4
REMARK    2  A    between atoms: C_4  and  C_5
REMARK    3  A    between atoms: C_5  and  C_6
REMARK                            x       y       z     vdW  Elec       q    Type
REMARK                         _______ _______ _______ _____ _____    ______ ____
ROOT
ATOM      1  C   UNL     1     -11.560  12.132  68.274  0.00  0.00    -0.025 C 
ATOM      2  C   UNL     1     -11.393  13.439  68.470  0.00  0.00    -0.001 C 
ATOM      3  C   UNL     1     -11.917  13.937  69.751  0.00  0.00    +0.034 A 
ATOM      4  C   UNL     1     -12.199  15.266  70.042  0.00  0.00    +0.139 A 
ATOM      5  C   UNL     1     -13.021  15.576  71.099  0.00  0.00    +0.037 A 
ATOM      6  C   UNL     1     -13.597  14.532  71.803  0.00  0.00    +0.003 A 
ATOM      7  C   UNL     1     -13.010  13.277  71.723  0.00  0.00    +0.000 A 
ATOM      8  O   UNL     1     -11.819  16.368  69.270  0.00  0.00    -0.471 OA
ATOM      9  C   UNL     1     -10.610  16.495  68.527  0.00  0.00    +0.232 C 
ATOM     10  C   UNL     1     -10.576  15.542  67.375  0.00  0.00    +0.021 A 
ATOM     11  C   UNL     1     -10.339  16.165  66.159  0.00  0.00    -0.001 A 
ATOM     12  C   UNL     1     -10.930  15.642  65.019  0.00  0.00    -0.000 A 
ATOM     13  C   UNL     1     -11.118  14.266  64.974  0.00  0.00    -0.000 A 
ATOM     14  C   UNL     1     -11.021  13.517  66.140  0.00  0.00    -0.000 A 
ATOM     15  C   UNL     1     -12.473  12.911  70.502  0.00  0.00    +0.003 A 
ATOM     16  C   UNL     1     -10.787  14.167  67.347  0.00  0.00    -0.001 A 
ENDROOT
BRANCH   1  17
ATOM     17  C   UNL     1     -11.542  11.279  69.503  0.00  0.00    +0.043 C 
BRANCH  17  18
ATOM     18  C   UNL     1     -10.284  10.425  69.378  0.00  0.00    +0.077 C 
BRANCH  18  20
ATOM     19  C   UNL     1      -8.673  10.252  67.713  0.00  0.00    +0.090 C 
ATOM     20  N   UNL     1     -10.105  10.094  67.970  0.00  0.00    -0.270 NA
ATOM     21  C   UNL     1     -10.432   8.699  67.705  0.00  0.00    +0.090 C 
ENDBRANCH  18  20
ENDBRANCH  17  18
ENDBRANCH   1  17
TORSDOF 3
ENDMDL
MODEL 9
REMARK VINA RESULT:      -6.2      3.870      7.418
REMARK  Name = 
REMARK  3 active torsions:
REMARK  status: ('A' for Active; 'I' for Inactive)
REMARK    1  A    between atoms: N_2  and  C_4
REMARK    2  A    between atoms: C_4  and  C_5
REMARK    3  A    between atoms: C_5  and  C_6
REMARK                            x       y       z     vdW  Elec       q    Type
REMARK                         _______ _______ _______ _____ _____    ______ ____
ROOT
ATOM      1  C   UNL     1     -10.951   9.825  67.556  0.00  0.00    -0.025 C 
ATOM      2  C   UNL     1     -11.235  10.959  68.194  0.00  0.00    -0.001 C 
ATOM      3  C   UNL     1     -11.578  10.791  69.614  0.00  0.00    +0.034 A 
ATOM      4  C   UNL     1     -12.250  11.724  70.394  0.00  0.00    +0.139 A 
ATOM      5  C   UNL     1     -12.846  11.333  71.569  0.00  0.00    +0.037 A 
ATOM      6  C   UNL     1     -12.808   9.989  71.902  0.00  0.00    +0.003 A 
ATOM      7  C   UNL     1     -11.837   9.190  71.314  0.00  0.00    +0.000 A 
ATOM      8  O   UNL     1     -12.503  13.053  70.039  0.00  0.00    -0.471 OA
ATOM      9  C   UNL     1     -11.646  13.895  69.274  0.00  0.00    +0.232 C 
ATOM     10  C   UNL     1     -11.543  13.425  67.858  0.00  0.00    +0.021 A 
ATOM     11  C   UNL     1     -11.855  14.409  66.932  0.00  0.00    -0.001 A 
ATOM     12  C   UNL     1     -12.469  14.035  65.747  0.00  0.00    -0.000 A 
ATOM     13  C   UNL     1     -12.141  12.790  65.226  0.00  0.00    -0.000 A 
ATOM     14  C   UNL     1     -11.495  11.855  66.026  0.00  0.00    -0.000 A 
ATOM     15  C   UNL     1     -11.516   9.458  69.995  0.00  0.00    +0.003 A 
ATOM     16  C   UNL     1     -11.232  12.165  67.356  0.00  0.00    -0.001 A 
ENDROOT
BRANCH   1  17
ATOM     17  C   UNL     1     -10.322   8.748  68.384  0.00  0.00    +0.043 C 
BRANCH  17  18
ATOM     18  C   UNL     1      -9.983   7.634  67.400  0.00  0.00    +0.077 C 
BRANCH  18  20
ATOM     19  C   UNL     1     -10.527   5.488  66.697  0.00  0.00    +0.090 C 
ATOM     20  N   UNL     1     -10.992   6.591  67.538  0.00  0.00    -0.270 NA
ATOM     21  C   UNL     1     -11.052   6.087  68.904  0.00  0.00    +0.090 C 
ENDBRANCH  18  20
ENDBRANCH  17  18
ENDBRANCH   1  17
TORSDOF 3
ENDMDL
