MODEL 1
REMARK VINA RESULT:      -7.4      0.000      0.000
REMARK  Name = 
REMARK  12 active torsions:
REMARK  status: ('A' for Active; 'I' for Inactive)
REMARK    1  A    between atoms: C_2  and  C_3
REMARK    2  A    between atoms: C_3  and  C_4
REMARK    3  A    between atoms: C_3  and  N_7
REMARK    4  A    between atoms: N_10  and  C_11
REMARK    5  A    between atoms: C_14  and  N_15
REMARK    6  A    between atoms: N_18  and  C_19
REMARK    7  A    between atoms: C_22  and  O_23
REMARK    8  A    between atoms: O_23  and  C_24
REMARK    9  A    between atoms: C_24  and  C_25
REMARK   10  A    between atoms: C_28  and  C_29
REMARK   11  A    between atoms: C_28  and  C_35
REMARK   12  A    between atoms: C_29  and  N_30
REMARK                            x       y       z     vdW  Elec       q    Type
REMARK                         _______ _______ _______ _____ _____    ______ ____
ROOT
ATOM      1  C   UNL     1      -7.165  10.452  68.501  0.00  0.00    +0.048 A 
ATOM      2  C   UNL     1      -6.067   9.818  67.928  0.00  0.00    +0.018 A 
ATOM      3  C   UNL     1      -5.452   8.806  68.656  0.00  0.00    +0.038 A 
ATOM      4  C   UNL     1      -5.829   8.547  69.964  0.00  0.00    +0.139 A 
ATOM      5  C   UNL     1      -6.565   9.541  70.597  0.00  0.00    +0.038 A 
ATOM      6  C   UNL     1      -7.080  10.614  69.880  0.00  0.00    +0.018 A 
ENDROOT
BRANCH   1  10
ATOM      7  N   UNL     1     -10.081   9.978  66.506  0.00  0.00    -0.304 N 
ATOM      8  C   UNL     1     -10.168  10.087  67.965  0.00  0.00    +0.112 C 
ATOM      9  C   UNL     1      -9.409  11.378  68.263  0.00  0.00    +0.112 C 
ATOM     10  N   UNL     1      -8.059  11.253  67.719  0.00  0.00    -0.304 N 
ATOM     11  C   UNL     1      -7.978  11.024  66.279  0.00  0.00    +0.112 C 
ATOM     12  C   UNL     1      -8.719   9.712  66.041  0.00  0.00    +0.112 C 
BRANCH   7  16
ATOM     13  C   UNL     1     -11.088  13.709  65.064  0.00  0.00    +0.070 A 
ATOM     14  C   UNL     1     -11.912  13.171  66.039  0.00  0.00    +0.019 A 
ATOM     15  C   UNL     1     -11.686  11.862  66.449  0.00  0.00    +0.016 A 
ATOM     16  C   UNL     1     -10.737  11.070  65.846  0.00  0.00    +0.048 A 
ATOM     17  C   UNL     1     -10.344  11.453  64.569  0.00  0.00    +0.016 A 
ATOM     18  C   UNL     1     -10.459  12.791  64.233  0.00  0.00    +0.019 A 
BRANCH  13  22
ATOM     19  N   UNL     1     -10.074  16.800  66.299  0.00  0.00    -0.200 N 
ATOM     20  C   UNL     1      -9.793  15.482  66.158  0.00  0.00    +0.352 A 
ATOM     21  O   UNL     1      -9.083  14.726  66.849  0.00  0.00    -0.244 OA
ATOM     22  N   UNL     1     -10.576  15.044  65.142  0.00  0.00    -0.240 N 
ATOM     23  C   UNL     1     -11.245  16.122  64.703  0.00  0.00    +0.207 A 
ATOM     24  N   UNL     1     -10.518  17.175  65.153  0.00  0.00    -0.144 NA
BRANCH  19  25
ATOM     25  C   UNL     1      -9.050  17.563  67.219  0.00  0.00    +0.140 C 
BRANCH  25  26
ATOM     26  C   UNL     1     -10.261  18.592  67.975  0.00  0.00    +0.174 C 
ATOM     27  O   UNL     1     -10.754  17.502  68.932  0.00  0.00    -0.221 OA
ATOM     28  C   UNL     1      -9.186  19.192  69.100  0.00  0.00    +0.038 C 
ENDBRANCH  25  26
BRANCH  25  30
ATOM     29  C   UNL     1      -7.356  18.579  66.012  0.00  0.00    +0.002 C 
ATOM     30  C   UNL     1      -8.651  18.729  66.115  0.00  0.00    +0.027 C 
ENDBRANCH  25  30
ENDBRANCH  19  25
ENDBRANCH  13  22
ENDBRANCH   7  16
ENDBRANCH   1  10
BRANCH   4  31
ATOM     31  O   UNL     1      -5.805   7.254  70.497  0.00  0.00    -0.475 OA
BRANCH  31  32
ATOM     32  C   UNL     1      -6.493   7.091  71.734  0.00  0.00    +0.208 C 
BRANCH  32  33
ATOM     33  C   UNL     1      -7.242   5.634  71.487  0.00  0.00    +0.076 C 
ATOM     34  C   UNL     1      -8.352   6.310  70.462  0.00  0.00    +0.040 C 
ATOM     35  C   UNL     1      -9.623   5.818  71.088  0.00  0.00    +0.136 C 
ATOM     36  O   UNL     1      -9.256   5.061  72.213  0.00  0.00    -0.352 OA
ATOM     37  C   UNL     1      -8.257   5.878  72.771  0.00  0.00    +0.146 C 
BRANCH  35  38
ATOM     38  C   UNL     1     -10.486   6.914  71.604  0.00  0.00    +0.032 A 
ATOM     39  C   UNL     1     -11.809   6.612  71.907  0.00  0.00    +0.141 A 
ATOM     40  F   UNL     1     -12.012   5.501  72.643  0.00  0.00    -0.204 F 
ATOM     41  C   UNL     1     -12.771   7.607  71.772  0.00  0.00    +0.059 A 
ATOM     42  C   UNL     1     -12.391   8.906  71.463  0.00  0.00    +0.142 A 
ATOM     43  F   UNL     1     -13.236   9.787  70.855  0.00  0.00    -0.204 F 
ATOM     44  C   UNL     1     -11.042   9.232  71.448  0.00  0.00    +0.030 A 
ATOM     45  C   UNL     1     -10.089   8.223  71.392  0.00  0.00    +0.003 A 
ENDBRANCH  35  38
BRANCH  35  46
ATOM     46  C   UNL     1     -10.359   4.938  70.091  0.00  0.00    +0.160 C 
BRANCH  46  47
ATOM     47  N   UNL     1     -10.256   5.495  68.758  0.00  0.00    -0.227 N 
ATOM     48  N   UNL     1      -9.613   4.948  67.731  0.00  0.00    -0.145 NA
ATOM     49  C   UNL     1     -10.143   5.388  66.571  0.00  0.00    +0.221 A 
ATOM     50  N   UNL     1     -11.000   6.375  66.922  0.00  0.00    -0.201 NA
ATOM     51  C   UNL     1     -11.011   6.491  68.260  0.00  0.00    +0.197 A 
ENDBRANCH  46  47
ENDBRANCH  35  46
ENDBRANCH  32  33
ENDBRANCH  31  32
ENDBRANCH   4  31
TORSDOF 12
ENDMDL
MODEL 2
REMARK VINA RESULT:      -7.3      2.657      4.292
REMARK  Name = 
REMARK  12 active torsions:
REMARK  status: ('A' for Active; 'I' for Inactive)
REMARK    1  A    between atoms: C_2  and  C_3
REMARK    2  A    between atoms: C_3  and  C_4
REMARK    3  A    between atoms: C_3  and  N_7
REMARK    4  A    between atoms: N_10  and  C_11
REMARK    5  A    between atoms: C_14  and  N_15
REMARK    6  A    between atoms: N_18  and  C_19
REMARK    7  A    between atoms: C_22  and  O_23
REMARK    8  A    between atoms: O_23  and  C_24
REMARK    9  A    between atoms: C_24  and  C_25
REMARK   10  A    between atoms: C_28  and  C_29
REMARK   11  A    between atoms: C_28  and  C_35
REMARK   12  A    between atoms: C_29  and  N_30
REMARK                            x       y       z     vdW  Elec       q    Type
REMARK                         _______ _______ _______ _____ _____    ______ ____
ROOT
ATOM      1  C   UNL     1      -8.956  10.493  66.796  0.00  0.00    +0.048 A 
ATOM      2  C   UNL     1      -9.506   9.820  65.709  0.00  0.00    +0.018 A 
ATOM      3  C   UNL     1      -9.420   8.432  65.697  0.00  0.00    +0.038 A 
ATOM      4  C   UNL     1      -8.681   7.762  66.659  0.00  0.00    +0.139 A 
ATOM      5  C   UNL     1      -7.779   8.531  67.384  0.00  0.00    +0.038 A 
ATOM      6  C   UNL     1      -7.795   9.918  67.300  0.00  0.00    +0.018 A 
ENDROOT
BRANCH   1  10
ATOM      7  N   UNL     1     -11.881  12.507  67.107  0.00  0.00    -0.304 N 
ATOM      8  C   UNL     1     -11.403  11.683  68.222  0.00  0.00    +0.112 C 
ATOM      9  C   UNL     1      -9.938  12.093  68.353  0.00  0.00    +0.112 C 
ATOM     10  N   UNL     1      -9.279  11.861  67.070  0.00  0.00    -0.304 N 
ATOM     11  C   UNL     1      -9.835  12.594  65.935  0.00  0.00    +0.112 C 
ATOM     12  C   UNL     1     -11.283  12.125  65.827  0.00  0.00    +0.112 C 
BRANCH   7  16
ATOM     13  C   UNL     1     -10.580  16.270  68.184  0.00  0.00    +0.070 A 
ATOM     14  C   UNL     1     -11.448  15.634  69.056  0.00  0.00    +0.019 A 
ATOM     15  C   UNL     1     -12.016  14.428  68.664  0.00  0.00    +0.016 A 
ATOM     16  C   UNL     1     -11.812  13.908  67.406  0.00  0.00    +0.048 A 
ATOM     17  C   UNL     1     -11.410  14.813  66.430  0.00  0.00    +0.016 A 
ATOM     18  C   UNL     1     -10.730  15.945  66.842  0.00  0.00    +0.019 A 
BRANCH  13  22
ATOM     19  N   UNL     1      -7.733  18.267  68.301  0.00  0.00    -0.200 N 
ATOM     20  C   UNL     1      -9.080  18.193  68.438  0.00  0.00    +0.352 A 
ATOM     21  O   UNL     1      -9.957  19.068  68.308  0.00  0.00    -0.244 OA
ATOM     22  N   UNL     1      -9.361  16.880  68.622  0.00  0.00    -0.240 N 
ATOM     23  C   UNL     1      -8.176  16.249  68.629  0.00  0.00    +0.207 A 
ATOM     24  N   UNL     1      -7.276  17.227  68.899  0.00  0.00    -0.144 NA
BRANCH  19  25
ATOM     25  C   UNL     1      -7.175  19.737  68.386  0.00  0.00    +0.140 C 
BRANCH  25  26
ATOM     26  C   UNL     1      -6.236  19.629  66.902  0.00  0.00    +0.174 C 
ATOM     27  O   UNL     1      -7.452  19.796  65.986  0.00  0.00    -0.221 OA
ATOM     28  C   UNL     1      -5.907  21.264  66.881  0.00  0.00    +0.038 C 
ENDBRANCH  25  26
BRANCH  25  30
ATOM     29  C   UNL     1      -6.074  20.105  70.389  0.00  0.00    +0.002 C 
ATOM     30  C   UNL     1      -5.862  19.375  69.324  0.00  0.00    +0.027 C 
ENDBRANCH  25  30
ENDBRANCH  19  25
ENDBRANCH  13  22
ENDBRANCH   7  16
ENDBRANCH   1  10
BRANCH   4  31
ATOM     31  O   UNL     1      -9.057   6.501  67.133  0.00  0.00    -0.475 OA
BRANCH  31  32
ATOM     32  C   UNL     1      -8.828   6.277  68.521  0.00  0.00    +0.208 C 
BRANCH  32  33
ATOM     33  C   UNL     1     -10.058   7.161  69.190  0.00  0.00    +0.076 C 
ATOM     34  C   UNL     1      -9.310   7.197  70.666  0.00  0.00    +0.040 C 
ATOM     35  C   UNL     1     -10.424   6.698  71.539  0.00  0.00    +0.136 C 
ATOM     36  O   UNL     1     -11.516   6.438  70.695  0.00  0.00    -0.352 OA
ATOM     37  C   UNL     1     -10.879   5.790  69.623  0.00  0.00    +0.146 C 
BRANCH  35  38
ATOM     38  C   UNL     1     -10.112   5.406  72.206  0.00  0.00    +0.032 A 
ATOM     39  C   UNL     1     -10.977   4.963  73.201  0.00  0.00    +0.141 A 
ATOM     40  F   UNL     1     -12.292   5.010  72.911  0.00  0.00    -0.204 F 
ATOM     41  C   UNL     1     -10.466   4.189  74.236  0.00  0.00    +0.059 A 
ATOM     42  C   UNL     1      -9.144   3.764  74.201  0.00  0.00    +0.142 A 
ATOM     43  F   UNL     1      -8.452   3.446  75.332  0.00  0.00    -0.204 F 
ATOM     44  C   UNL     1      -8.391   3.984  73.057  0.00  0.00    +0.030 A 
ATOM     45  C   UNL     1      -8.825   4.908  72.113  0.00  0.00    +0.003 A 
ENDBRANCH  35  38
BRANCH  35  46
ATOM     46  C   UNL     1     -10.790   7.780  72.541  0.00  0.00    +0.160 C 
BRANCH  46  47
ATOM     47  N   UNL     1     -11.846   8.618  72.012  0.00  0.00    -0.227 N 
ATOM     48  N   UNL     1     -13.134   8.550  72.336  0.00  0.00    -0.145 NA
ATOM     49  C   UNL     1     -13.724   9.744  72.125  0.00  0.00    +0.221 A 
ATOM     50  N   UNL     1     -12.801  10.489  71.473  0.00  0.00    -0.201 NA
ATOM     51  C   UNL     1     -11.675   9.769  71.336  0.00  0.00    +0.197 A 
ENDBRANCH  46  47
ENDBRANCH  35  46
ENDBRANCH  32  33
ENDBRANCH  31  32
ENDBRANCH   4  31
TORSDOF 12
ENDMDL
MODEL 3
REMARK VINA RESULT:      -7.1      2.504      4.074
REMARK  Name = 
REMARK  12 active torsions:
REMARK  status: ('A' for Active; 'I' for Inactive)
REMARK    1  A    between atoms: C_2  and  C_3
REMARK    2  A    between atoms: C_3  and  C_4
REMARK    3  A    between atoms: C_3  and  N_7
REMARK    4  A    between atoms: N_10  and  C_11
REMARK    5  A    between atoms: C_14  and  N_15
REMARK    6  A    between atoms: N_18  and  C_19
REMARK    7  A    between atoms: C_22  and  O_23
REMARK    8  A    between atoms: O_23  and  C_24
REMARK    9  A    between atoms: C_24  and  C_25
REMARK   10  A    between atoms: C_28  and  C_29
REMARK   11  A    between atoms: C_28  and  C_35
REMARK   12  A    between atoms: C_29  and  N_30
REMARK                            x       y       z     vdW  Elec       q    Type
REMARK                         _______ _______ _______ _____ _____    ______ ____
ROOT
ATOM      1  C   UNL     1      -9.094   6.876  66.700  0.00  0.00    +0.048 A 
ATOM      2  C   UNL     1     -10.177   6.003  66.744  0.00  0.00    +0.018 A 
ATOM      3  C   UNL     1     -10.033   4.831  67.478  0.00  0.00    +0.038 A 
ATOM      4  C   UNL     1      -8.805   4.481  68.016  0.00  0.00    +0.139 A 
ATOM      5  C   UNL     1      -7.699   5.146  67.502  0.00  0.00    +0.038 A 
ATOM      6  C   UNL     1      -7.853   6.250  66.672  0.00  0.00    +0.018 A 
ENDROOT
BRANCH   1  10
ATOM      7  N   UNL     1      -9.395  10.104  68.182  0.00  0.00    -0.304 N 
ATOM      8  C   UNL     1      -8.086   9.471  67.997  0.00  0.00    +0.112 C 
ATOM      9  C   UNL     1      -8.089   9.091  66.518  0.00  0.00    +0.112 C 
ATOM     10  N   UNL     1      -9.245   8.233  66.267  0.00  0.00    -0.304 N 
ATOM     11  C   UNL     1     -10.546   8.826  66.566  0.00  0.00    +0.112 C 
ATOM     12  C   UNL     1     -10.502   9.156  68.055  0.00  0.00    +0.112 C 
BRANCH   7  16
ATOM     13  C   UNL     1      -9.743  14.025  66.948  0.00  0.00    +0.070 A 
ATOM     14  C   UNL     1     -10.865  13.223  66.811  0.00  0.00    +0.019 A 
ATOM     15  C   UNL     1     -10.746  11.866  67.085  0.00  0.00    +0.016 A 
ATOM     16  C   UNL     1      -9.533  11.294  67.392  0.00  0.00    +0.048 A 
ATOM     17  C   UNL     1      -8.406  12.001  66.988  0.00  0.00    +0.016 A 
ATOM     18  C   UNL     1      -8.521  13.373  66.850  0.00  0.00    +0.019 A 
BRANCH  13  22
ATOM     19  N   UNL     1      -8.884  17.238  67.970  0.00  0.00    -0.200 N 
ATOM     20  C   UNL     1      -9.306  16.438  66.961  0.00  0.00    +0.352 A 
ATOM     21  O   UNL     1      -9.192  16.563  65.727  0.00  0.00    -0.244 OA
ATOM     22  N   UNL     1      -9.794  15.322  67.554  0.00  0.00    -0.240 N 
ATOM     23  C   UNL     1      -9.681  15.528  68.875  0.00  0.00    +0.207 A 
ATOM     24  N   UNL     1      -9.566  16.874  68.996  0.00  0.00    -0.144 NA
BRANCH  19  25
ATOM     25  C   UNL     1      -8.567  18.710  67.511  0.00  0.00    +0.140 C 
BRANCH  25  26
ATOM     26  C   UNL     1      -7.348  18.996  68.748  0.00  0.00    +0.174 C 
ATOM     27  O   UNL     1      -6.319  18.056  68.112  0.00  0.00    -0.221 OA
ATOM     28  C   UNL     1      -6.724  20.327  67.959  0.00  0.00    +0.038 C 
ENDBRANCH  25  26
BRANCH  25  30
ATOM     29  C   UNL     1     -10.513  19.964  67.490  0.00  0.00    +0.002 C 
ATOM     30  C   UNL     1      -9.749  19.437  68.412  0.00  0.00    +0.027 C 
ENDBRANCH  25  30
ENDBRANCH  19  25
ENDBRANCH  13  22
ENDBRANCH   7  16
ENDBRANCH   1  10
BRANCH   4  31
ATOM     31  O   UNL     1      -8.700   3.793  69.229  0.00  0.00    -0.475 OA
BRANCH  31  32
ATOM     32  C   UNL     1      -9.708   4.092  70.189  0.00  0.00    +0.208 C 
BRANCH  32  33
ATOM     33  C   UNL     1      -8.842   4.976  71.290  0.00  0.00    +0.076 C 
ATOM     34  C   UNL     1     -10.165   5.169  72.266  0.00  0.00    +0.040 C 
ATOM     35  C   UNL     1     -10.154   6.659  72.435  0.00  0.00    +0.136 C 
ATOM     36  O   UNL     1      -9.067   7.144  71.689  0.00  0.00    -0.352 OA
ATOM     37  C   UNL     1      -9.194   6.392  70.509  0.00  0.00    +0.146 C 
BRANCH  35  38
ATOM     38  C   UNL     1     -11.359   7.323  71.869  0.00  0.00    +0.032 A 
ATOM     39  C   UNL     1     -11.474   8.701  72.021  0.00  0.00    +0.141 A 
ATOM     40  F   UNL     1     -10.380   9.426  71.716  0.00  0.00    -0.204 F 
ATOM     41  C   UNL     1     -12.743   9.261  72.111  0.00  0.00    +0.059 A 
ATOM     42  C   UNL     1     -13.869   8.469  71.923  0.00  0.00    +0.142 A 
ATOM     43  F   UNL     1     -15.083   8.794  72.451  0.00  0.00    -0.204 F 
ATOM     44  C   UNL     1     -13.712   7.160  71.492  0.00  0.00    +0.030 A 
ATOM     45  C   UNL     1     -12.468   6.546  71.585  0.00  0.00    +0.003 A 
ENDBRANCH  35  38
BRANCH  35  46
ATOM     46  C   UNL     1      -9.962   6.990  73.905  0.00  0.00    +0.160 C 
BRANCH  46  47
ATOM     47  N   UNL     1      -8.575   7.312  74.171  0.00  0.00    -0.227 N 
ATOM     48  N   UNL     1      -8.045   8.531  74.186  0.00  0.00    -0.145 NA
ATOM     49  C   UNL     1      -6.947   8.545  74.968  0.00  0.00    +0.221 A 
ATOM     50  N   UNL     1      -6.707   7.248  75.271  0.00  0.00    -0.201 NA
ATOM     51  C   UNL     1      -7.665   6.485  74.717  0.00  0.00    +0.197 A 
ENDBRANCH  46  47
ENDBRANCH  35  46
ENDBRANCH  32  33
ENDBRANCH  31  32
ENDBRANCH   4  31
TORSDOF 12
ENDMDL
MODEL 4
REMARK VINA RESULT:      -7.1      4.578     11.303
REMARK  Name = 
REMARK  12 active torsions:
REMARK  status: ('A' for Active; 'I' for Inactive)
REMARK    1  A    between atoms: C_2  and  C_3
REMARK    2  A    between atoms: C_3  and  C_4
REMARK    3  A    between atoms: C_3  and  N_7
REMARK    4  A    between atoms: N_10  and  C_11
REMARK    5  A    between atoms: C_14  and  N_15
REMARK    6  A    between atoms: N_18  and  C_19
REMARK    7  A    between atoms: C_22  and  O_23
REMARK    8  A    between atoms: O_23  and  C_24
REMARK    9  A    between atoms: C_24  and  C_25
REMARK   10  A    between atoms: C_28  and  C_29
REMARK   11  A    between atoms: C_28  and  C_35
REMARK   12  A    between atoms: C_29  and  N_30
REMARK                            x       y       z     vdW  Elec       q    Type
REMARK                         _______ _______ _______ _____ _____    ______ ____
ROOT
ATOM      1  C   UNL     1     -10.361  17.929  67.708  0.00  0.00    +0.048 A 
ATOM      2  C   UNL     1     -10.663  18.684  66.579  0.00  0.00    +0.018 A 
ATOM      3  C   UNL     1      -9.681  19.541  66.093  0.00  0.00    +0.038 A 
ATOM      4  C   UNL     1      -8.507  19.742  66.800  0.00  0.00    +0.139 A 
ATOM      5  C   UNL     1      -8.517  19.344  68.131  0.00  0.00    +0.038 A 
ATOM      6  C   UNL     1      -9.563  18.583  68.640  0.00  0.00    +0.018 A 
ENDROOT
BRANCH   1  10
ATOM      7  N   UNL     1      -9.842  14.501  68.538  0.00  0.00    -0.304 N 
ATOM      8  C   UNL     1      -9.656  15.561  69.533  0.00  0.00    +0.112 C 
ATOM      9  C   UNL     1     -10.965  16.342  69.459  0.00  0.00    +0.112 C 
ATOM     10  N   UNL     1     -11.153  16.796  68.083  0.00  0.00    -0.304 N 
ATOM     11  C   UNL     1     -11.219  15.740  67.076  0.00  0.00    +0.112 C 
ATOM     12  C   UNL     1      -9.880  15.015  67.168  0.00  0.00    +0.112 C 
BRANCH   7  16
ATOM     13  C   UNL     1     -12.150  11.496  70.167  0.00  0.00    +0.070 A 
ATOM     14  C   UNL     1     -11.866  11.404  68.815  0.00  0.00    +0.019 A 
ATOM     15  C   UNL     1     -11.211  12.465  68.202  0.00  0.00    +0.016 A 
ATOM     16  C   UNL     1     -10.929  13.629  68.880  0.00  0.00    +0.048 A 
ATOM     17  C   UNL     1     -11.692  13.873  70.016  0.00  0.00    +0.016 A 
ATOM     18  C   UNL     1     -12.225  12.783  70.681  0.00  0.00    +0.019 A 
BRANCH  13  22
ATOM     19  N   UNL     1     -11.426   8.334  71.430  0.00  0.00    -0.200 N 
ATOM     20  C   UNL     1     -10.945   9.514  70.966  0.00  0.00    +0.352 A 
ATOM     21  O   UNL     1      -9.857   9.788  70.425  0.00  0.00    -0.244 OA
ATOM     22  N   UNL     1     -11.969  10.396  71.067  0.00  0.00    -0.240 N 
ATOM     23  C   UNL     1     -12.985   9.717  71.622  0.00  0.00    +0.207 A 
ATOM     24  N   UNL     1     -12.393   8.650  72.214  0.00  0.00    -0.144 NA
BRANCH  19  25
ATOM     25  C   UNL     1     -10.306   7.258  71.684  0.00  0.00    +0.140 C 
BRANCH  25  26
ATOM     26  C   UNL     1     -11.349   5.876  71.370  0.00  0.00    +0.174 C 
ATOM     27  O   UNL     1     -11.421   6.129  69.861  0.00  0.00    -0.221 OA
ATOM     28  C   UNL     1     -10.064   4.825  71.203  0.00  0.00    +0.038 C 
ENDBRANCH  25  26
BRANCH  25  30
ATOM     29  C   UNL     1      -9.365   7.500  73.785  0.00  0.00    +0.002 C 
ATOM     30  C   UNL     1     -10.534   7.145  73.318  0.00  0.00    +0.027 C 
ENDBRANCH  25  30
ENDBRANCH  19  25
ENDBRANCH  13  22
ENDBRANCH   7  16
ENDBRANCH   1  10
BRANCH   4  31
ATOM     31  O   UNL     1      -7.288  19.979  66.155  0.00  0.00    -0.475 OA
BRANCH  31  32
ATOM     32  C   UNL     1      -6.322  20.695  66.919  0.00  0.00    +0.208 C 
BRANCH  32  33
ATOM     33  C   UNL     1      -4.926  19.940  66.447  0.00  0.00    +0.076 C 
ATOM     34  C   UNL     1      -5.130  18.733  67.562  0.00  0.00    +0.040 C 
ATOM     35  C   UNL     1      -3.794  18.774  68.243  0.00  0.00    +0.136 C 
ATOM     36  O   UNL     1      -3.055  19.797  67.627  0.00  0.00    -0.352 OA
ATOM     37  C   UNL     1      -4.026  20.809  67.531  0.00  0.00    +0.146 C 
BRANCH  35  38
ATOM     38  C   UNL     1      -3.879  19.146  69.681  0.00  0.00    +0.032 A 
ATOM     39  C   UNL     1      -5.142  19.219  70.259  0.00  0.00    +0.141 A 
ATOM     40  F   UNL     1      -5.968  18.183  70.018  0.00  0.00    -0.204 F 
ATOM     41  C   UNL     1      -5.348  20.114  71.303  0.00  0.00    +0.059 A 
ATOM     42  C   UNL     1      -4.279  20.824  71.834  0.00  0.00    +0.142 A 
ATOM     43  F   UNL     1      -4.444  22.015  72.477  0.00  0.00    -0.204 F 
ATOM     44  C   UNL     1      -2.990  20.516  71.424  0.00  0.00    +0.030 A 
ATOM     45  C   UNL     1      -2.793  19.774  70.265  0.00  0.00    +0.003 A 
ENDBRANCH  35  38
BRANCH  35  46
ATOM     46  C   UNL     1      -3.096  17.439  68.043  0.00  0.00    +0.160 C 
BRANCH  46  47
ATOM     47  N   UNL     1      -3.993  16.349  68.365  0.00  0.00    -0.227 N 
ATOM     48  N   UNL     1      -4.706  15.641  67.495  0.00  0.00    -0.145 NA
ATOM     49  C   UNL     1      -4.977  14.423  68.006  0.00  0.00    +0.221 A 
ATOM     50  N   UNL     1      -4.576  14.480  69.297  0.00  0.00    -0.201 NA
ATOM     51  C   UNL     1      -4.042  15.689  69.537  0.00  0.00    +0.197 A 
ENDBRANCH  46  47
ENDBRANCH  35  46
ENDBRANCH  32  33
ENDBRANCH  31  32
ENDBRANCH   4  31
TORSDOF 12
ENDMDL
MODEL 5
REMARK VINA RESULT:      -7.1      2.663      4.054
REMARK  Name = 
REMARK  12 active torsions:
REMARK  status: ('A' for Active; 'I' for Inactive)
REMARK    1  A    between atoms: C_2  and  C_3
REMARK    2  A    between atoms: C_3  and  C_4
REMARK    3  A    between atoms: C_3  and  N_7
REMARK    4  A    between atoms: N_10  and  C_11
REMARK    5  A    between atoms: C_14  and  N_15
REMARK    6  A    between atoms: N_18  and  C_19
REMARK    7  A    between atoms: C_22  and  O_23
REMARK    8  A    between atoms: O_23  and  C_24
REMARK    9  A    between atoms: C_24  and  C_25
REMARK   10  A    between atoms: C_28  and  C_29
REMARK   11  A    between atoms: C_28  and  C_35
REMARK   12  A    between atoms: C_29  and  N_30
REMARK                            x       y       z     vdW  Elec       q    Type
REMARK                         _______ _______ _______ _____ _____    ______ ____
ROOT
ATOM      1  C   UNL     1      -9.205  10.469  67.229  0.00  0.00    +0.048 A 
ATOM      2  C   UNL     1      -9.540   9.790  66.062  0.00  0.00    +0.018 A 
ATOM      3  C   UNL     1      -9.594   8.402  66.116  0.00  0.00    +0.038 A 
ATOM      4  C   UNL     1      -9.182   7.722  67.251  0.00  0.00    +0.139 A 
ATOM      5  C   UNL     1      -8.410   8.445  68.151  0.00  0.00    +0.038 A 
ATOM      6  C   UNL     1      -8.265   9.821  68.023  0.00  0.00    +0.018 A 
ENDROOT
BRANCH   1  10
ATOM      7  N   UNL     1     -11.974  12.709  67.061  0.00  0.00    -0.304 N 
ATOM      8  C   UNL     1     -11.691  11.939  68.277  0.00  0.00    +0.112 C 
ATOM      9  C   UNL     1     -10.221  12.250  68.550  0.00  0.00    +0.112 C 
ATOM     10  N   UNL     1      -9.445  11.875  67.371  0.00  0.00    -0.304 N 
ATOM     11  C   UNL     1      -9.810  12.558  66.133  0.00  0.00    +0.112 C 
ATOM     12  C   UNL     1     -11.270  12.189  65.889  0.00  0.00    +0.112 C 
BRANCH   7  16
ATOM     13  C   UNL     1     -10.482  16.444  67.976  0.00  0.00    +0.070 A 
ATOM     14  C   UNL     1     -11.446  15.929  68.827  0.00  0.00    +0.019 A 
ATOM     15  C   UNL     1     -12.072  14.739  68.476  0.00  0.00    +0.016 A 
ATOM     16  C   UNL     1     -11.825  14.120  67.272  0.00  0.00    +0.048 A 
ATOM     17  C   UNL     1     -11.300  14.926  66.268  0.00  0.00    +0.016 A 
ATOM     18  C   UNL     1     -10.568  16.037  66.651  0.00  0.00    +0.019 A 
BRANCH  13  22
ATOM     19  N   UNL     1      -7.607  18.386  68.236  0.00  0.00    -0.200 N 
ATOM     20  C   UNL     1      -8.954  18.321  68.372  0.00  0.00    +0.352 A 
ATOM     21  O   UNL     1      -9.818  19.215  68.312  0.00  0.00    -0.244 OA
ATOM     22  N   UNL     1      -9.253  17.002  68.455  0.00  0.00    -0.240 N 
ATOM     23  C   UNL     1      -8.078  16.355  68.409  0.00  0.00    +0.207 A 
ATOM     24  N   UNL     1      -7.163  17.296  68.751  0.00  0.00    -0.144 NA
BRANCH  19  25
ATOM     25  C   UNL     1      -7.028  19.837  68.432  0.00  0.00    +0.140 C 
BRANCH  25  26
ATOM     26  C   UNL     1      -5.996  19.782  67.007  0.00  0.00    +0.174 C 
ATOM     27  O   UNL     1      -7.155  19.964  66.022  0.00  0.00    -0.221 OA
ATOM     28  C   UNL     1      -5.687  21.421  67.053  0.00  0.00    +0.038 C 
ENDBRANCH  25  26
BRANCH  25  30
ATOM     29  C   UNL     1      -6.057  20.072  70.520  0.00  0.00    +0.002 C 
ATOM     30  C   UNL     1      -5.785  19.400  69.432  0.00  0.00    +0.027 C 
ENDBRANCH  25  30
ENDBRANCH  19  25
ENDBRANCH  13  22
ENDBRANCH   7  16
ENDBRANCH   1  10
BRANCH   4  31
ATOM     31  O   UNL     1      -9.787   6.528  67.657  0.00  0.00    -0.475 OA
BRANCH  31  32
ATOM     32  C   UNL     1      -9.031   5.741  68.572  0.00  0.00    +0.208 C 
BRANCH  32  33
ATOM     33  C   UNL     1     -10.242   4.990  69.417  0.00  0.00    +0.076 C 
ATOM     34  C   UNL     1     -10.487   6.323  70.368  0.00  0.00    +0.040 C 
ATOM     35  C   UNL     1     -10.400   5.696  71.728  0.00  0.00    +0.136 C 
ATOM     36  O   UNL     1     -10.144   4.330  71.530  0.00  0.00    -0.352 OA
ATOM     37  C   UNL     1      -9.168   4.382  70.521  0.00  0.00    +0.146 C 
BRANCH  35  38
ATOM     38  C   UNL     1      -9.261   6.207  72.537  0.00  0.00    +0.032 A 
ATOM     39  C   UNL     1      -9.200   5.839  73.877  0.00  0.00    +0.141 A 
ATOM     40  F   UNL     1      -9.387   4.532  74.144  0.00  0.00    -0.204 F 
ATOM     41  C   UNL     1      -8.611   6.713  74.784  0.00  0.00    +0.059 A 
ATOM     42  C   UNL     1      -7.986   7.868  74.334  0.00  0.00    +0.142 A 
ATOM     43  F   UNL     1      -7.828   8.967  75.126  0.00  0.00    -0.204 F 
ATOM     44  C   UNL     1      -7.817   8.060  72.970  0.00  0.00    +0.030 A 
ATOM     45  C   UNL     1      -8.558   7.303  72.070  0.00  0.00    +0.003 A 
ENDBRANCH  35  38
BRANCH  35  46
ATOM     46  C   UNL     1     -11.729   5.876  72.442  0.00  0.00    +0.160 C 
BRANCH  46  47
ATOM     47  N   UNL     1     -12.353   7.119  72.038  0.00  0.00    -0.227 N 
ATOM     48  N   UNL     1     -13.499   7.239  71.377  0.00  0.00    -0.145 NA
ATOM     49  C   UNL     1     -14.055   8.440  71.635  0.00  0.00    +0.221 A 
ATOM     50  N   UNL     1     -13.113   9.130  72.318  0.00  0.00    -0.201 NA
ATOM     51  C   UNL     1     -12.039   8.344  72.499  0.00  0.00    +0.197 A 
ENDBRANCH  46  47
ENDBRANCH  35  46
ENDBRANCH  32  33
ENDBRANCH  31  32
ENDBRANCH   4  31
TORSDOF 12
ENDMDL
MODEL 6
REMARK VINA RESULT:      -7.0      4.116     11.681
REMARK  Name = 
REMARK  12 active torsions:
REMARK  status: ('A' for Active; 'I' for Inactive)
REMARK    1  A    between atoms: C_2  and  C_3
REMARK    2  A    between atoms: C_3  and  C_4
REMARK    3  A    between atoms: C_3  and  N_7
REMARK    4  A    between atoms: N_10  and  C_11
REMARK    5  A    between atoms: C_14  and  N_15
REMARK    6  A    between atoms: N_18  and  C_19
REMARK    7  A    between atoms: C_22  and  O_23
REMARK    8  A    between atoms: O_23  and  C_24
REMARK    9  A    between atoms: C_24  and  C_25
REMARK   10  A    between atoms: C_28  and  C_29
REMARK   11  A    between atoms: C_28  and  C_35
REMARK   12  A    between atoms: C_29  and  N_30
REMARK                            x       y       z     vdW  Elec       q    Type
REMARK                         _______ _______ _______ _____ _____    ______ ____
ROOT
ATOM      1  C   UNL     1     -10.331  18.071  67.720  0.00  0.00    +0.048 A 
ATOM      2  C   UNL     1     -10.491  18.768  66.526  0.00  0.00    +0.018 A 
ATOM      3  C   UNL     1      -9.519  19.703  66.189  0.00  0.00    +0.038 A 
ATOM      4  C   UNL     1      -8.513  20.030  67.085  0.00  0.00    +0.139 A 
ATOM      5  C   UNL     1      -8.726  19.662  68.407  0.00  0.00    +0.038 A 
ATOM      6  C   UNL     1      -9.774  18.817  68.752  0.00  0.00    +0.018 A 
ENDROOT
BRANCH   1  10
ATOM      7  N   UNL     1      -9.653  14.662  68.513  0.00  0.00    -0.304 N 
ATOM      8  C   UNL     1      -9.633  15.702  69.546  0.00  0.00    +0.112 C 
ATOM      9  C   UNL     1     -10.981  16.395  69.369  0.00  0.00    +0.112 C 
ATOM     10  N   UNL     1     -11.073  16.876  67.992  0.00  0.00    -0.304 N 
ATOM     11  C   UNL     1     -10.974  15.849  66.958  0.00  0.00    +0.112 C 
ATOM     12  C   UNL     1      -9.601  15.213  67.158  0.00  0.00    +0.112 C 
BRANCH   7  16
ATOM     13  C   UNL     1     -11.913  11.503  69.903  0.00  0.00    +0.070 A 
ATOM     14  C   UNL     1     -11.444  11.413  68.602  0.00  0.00    +0.019 A 
ATOM     15  C   UNL     1     -10.799  12.515  68.053  0.00  0.00    +0.016 A 
ATOM     16  C   UNL     1     -10.703  13.709  68.732  0.00  0.00    +0.048 A 
ATOM     17  C   UNL     1     -11.629  13.908  69.749  0.00  0.00    +0.016 A 
ATOM     18  C   UNL     1     -12.158  12.789  70.368  0.00  0.00    +0.019 A 
BRANCH  13  22
ATOM     19  N   UNL     1     -11.276   8.380  71.299  0.00  0.00    -0.200 N 
ATOM     20  C   UNL     1     -10.763   9.529  70.794  0.00  0.00    +0.352 A 
ATOM     21  O   UNL     1      -9.662   9.758  70.257  0.00  0.00    -0.244 OA
ATOM     22  N   UNL     1     -11.768  10.436  70.847  0.00  0.00    -0.240 N 
ATOM     23  C   UNL     1     -12.806   9.802  71.415  0.00  0.00    +0.207 A 
ATOM     24  N   UNL     1     -12.244   8.748  72.057  0.00  0.00    -0.144 NA
BRANCH  19  25
ATOM     25  C   UNL     1     -10.183   7.290  71.610  0.00  0.00    +0.140 C 
BRANCH  25  26
ATOM     26  C   UNL     1     -11.261   5.920  71.369  0.00  0.00    +0.174 C 
ATOM     27  O   UNL     1     -11.359   6.119  69.853  0.00  0.00    -0.221 OA
ATOM     28  C   UNL     1     -10.002   4.836  71.216  0.00  0.00    +0.038 C 
ENDBRANCH  25  26
BRANCH  25  30
ATOM     29  C   UNL     1      -9.249   7.667  73.694  0.00  0.00    +0.002 C 
ATOM     30  C   UNL     1     -10.412   7.270  73.248  0.00  0.00    +0.027 C 
ENDBRANCH  25  30
ENDBRANCH  19  25
ENDBRANCH  13  22
ENDBRANCH   7  16
ENDBRANCH   1  10
BRANCH   4  31
ATOM     31  O   UNL     1      -7.224  20.367  66.656  0.00  0.00    -0.475 OA
BRANCH  31  32
ATOM     32  C   UNL     1      -6.389  20.964  67.644  0.00  0.00    +0.208 C 
BRANCH  32  33
ATOM     33  C   UNL     1      -4.991  21.182  66.784  0.00  0.00    +0.076 C 
ATOM     34  C   UNL     1      -5.449  20.074  65.642  0.00  0.00    +0.040 C 
ATOM     35  C   UNL     1      -4.237  19.191  65.629  0.00  0.00    +0.136 C 
ATOM     36  O   UNL     1      -3.342  19.715  66.577  0.00  0.00    -0.352 OA
ATOM     37  C   UNL     1      -4.215  19.998  67.642  0.00  0.00    +0.146 C 
BRANCH  35  38
ATOM     38  C   UNL     1      -4.520  17.798  66.069  0.00  0.00    +0.032 A 
ATOM     39  C   UNL     1      -5.850  17.425  66.228  0.00  0.00    +0.141 A 
ATOM     40  F   UNL     1      -6.685  17.754  65.223  0.00  0.00    -0.204 F 
ATOM     41  C   UNL     1      -6.165  16.459  67.177  0.00  0.00    +0.059 A 
ATOM     42  C   UNL     1      -5.152  15.795  67.858  0.00  0.00    +0.142 A 
ATOM     43  F   UNL     1      -5.348  15.230  69.083  0.00  0.00    -0.204 F 
ATOM     44  C   UNL     1      -3.834  15.990  67.471  0.00  0.00    +0.030 A 
ATOM     45  C   UNL     1      -3.504  17.076  66.669  0.00  0.00    +0.003 A 
ENDBRANCH  35  38
BRANCH  35  46
ATOM     46  C   UNL     1      -3.609  19.233  64.247  0.00  0.00    +0.160 C 
BRANCH  46  47
ATOM     47  N   UNL     1      -4.476  19.929  63.320  0.00  0.00    -0.227 N 
ATOM     48  N   UNL     1      -4.373  21.206  62.963  0.00  0.00    -0.145 NA
ATOM     49  C   UNL     1      -4.930  21.389  61.748  0.00  0.00    +0.221 A 
ATOM     50  N   UNL     1      -5.555  20.223  61.462  0.00  0.00    -0.201 NA
ATOM     51  C   UNL     1      -5.339  19.354  62.464  0.00  0.00    +0.197 A 
ENDBRANCH  46  47
ENDBRANCH  35  46
ENDBRANCH  32  33
ENDBRANCH  31  32
ENDBRANCH   4  31
TORSDOF 12
ENDMDL
MODEL 7
REMARK VINA RESULT:      -7.0      2.881      5.855
REMARK  Name = 
REMARK  12 active torsions:
REMARK  status: ('A' for Active; 'I' for Inactive)
REMARK    1  A    between atoms: C_2  and  C_3
REMARK    2  A    between atoms: C_3  and  C_4
REMARK    3  A    between atoms: C_3  and  N_7
REMARK    4  A    between atoms: N_10  and  C_11
REMARK    5  A    between atoms: C_14  and  N_15
REMARK    6  A    between atoms: N_18  and  C_19
REMARK    7  A    between atoms: C_22  and  O_23
REMARK    8  A    between atoms: O_23  and  C_24
REMARK    9  A    between atoms: C_24  and  C_25
REMARK   10  A    between atoms: C_28  and  C_29
REMARK   11  A    between atoms: C_28  and  C_35
REMARK   12  A    between atoms: C_29  and  N_30
REMARK                            x       y       z     vdW  Elec       q    Type
REMARK                         _______ _______ _______ _____ _____    ______ ____
ROOT
ATOM      1  C   UNL     1     -10.064  14.625  66.271  0.00  0.00    +0.048 A 
ATOM      2  C   UNL     1     -10.888  14.070  67.244  0.00  0.00    +0.018 A 
ATOM      3  C   UNL     1     -11.177  12.713  67.149  0.00  0.00    +0.038 A 
ATOM      4  C   UNL     1     -10.779  11.983  66.041  0.00  0.00    +0.139 A 
ATOM      5  C   UNL     1     -10.413  12.718  64.921  0.00  0.00    +0.038 A 
ATOM      6  C   UNL     1     -10.240  14.096  64.997  0.00  0.00    +0.018 A 
ENDROOT
BRANCH   1  10
ATOM      7  N   UNL     1      -9.735  17.052  68.862  0.00  0.00    -0.304 N 
ATOM      8  C   UNL     1      -8.866  15.872  68.810  0.00  0.00    +0.112 C 
ATOM      9  C   UNL     1      -8.315  15.909  67.386  0.00  0.00    +0.112 C 
ATOM     10  N   UNL     1      -9.443  15.903  66.457  0.00  0.00    -0.304 N 
ATOM     11  C   UNL     1     -10.375  17.020  66.591  0.00  0.00    +0.112 C 
ATOM     12  C   UNL     1     -10.919  16.917  68.013  0.00  0.00    +0.112 C 
BRANCH   7  16
ATOM     13  C   UNL     1      -7.374  20.058  67.313  0.00  0.00    +0.070 A 
ATOM     14  C   UNL     1      -6.855  19.341  68.378  0.00  0.00    +0.019 A 
ATOM     15  C   UNL     1      -7.674  18.416  69.015  0.00  0.00    +0.016 A 
ATOM     16  C   UNL     1      -8.999  18.269  68.675  0.00  0.00    +0.048 A 
ATOM     17  C   UNL     1      -9.584  19.346  68.018  0.00  0.00    +0.016 A 
ATOM     18  C   UNL     1      -8.757  20.177  67.283  0.00  0.00    +0.019 A 
BRANCH  13  22
ATOM     19  N   UNL     1      -5.190  19.663  64.633  0.00  0.00    -0.200 N 
ATOM     20  C   UNL     1      -6.390  19.352  65.180  0.00  0.00    +0.352 A 
ATOM     21  O   UNL     1      -7.123  18.358  65.014  0.00  0.00    -0.244 OA
ATOM     22  N   UNL     1      -6.628  20.303  66.115  0.00  0.00    -0.240 N 
ATOM     23  C   UNL     1      -5.589  21.151  66.049  0.00  0.00    +0.207 A 
ATOM     24  N   UNL     1      -5.048  20.925  64.826  0.00  0.00    -0.144 NA
BRANCH  19  25
ATOM     25  C   UNL     1      -4.874  18.859  63.316  0.00  0.00    +0.140 C 
BRANCH  25  26
ATOM     26  C   UNL     1      -3.256  18.380  63.815  0.00  0.00    +0.174 C 
ATOM     27  O   UNL     1      -3.747  17.228  64.698  0.00  0.00    -0.221 OA
ATOM     28  C   UNL     1      -3.048  17.375  62.499  0.00  0.00    +0.038 C 
ENDBRANCH  25  26
BRANCH  25  30
ATOM     29  C   UNL     1      -5.174  20.244  61.485  0.00  0.00    +0.002 C 
ATOM     30  C   UNL     1      -4.300  20.149  62.453  0.00  0.00    +0.027 C 
ENDBRANCH  25  30
ENDBRANCH  19  25
ENDBRANCH  13  22
ENDBRANCH   7  16
ENDBRANCH   1  10
BRANCH   4  31
ATOM     31  O   UNL     1     -10.413  10.636  66.137  0.00  0.00    -0.475 OA
BRANCH  31  32
ATOM     32  C   UNL     1      -9.033  10.396  66.397  0.00  0.00    +0.208 C 
BRANCH  32  33
ATOM     33  C   UNL     1      -9.009   8.741  66.461  0.00  0.00    +0.076 C 
ATOM     34  C   UNL     1     -10.532   8.684  67.107  0.00  0.00    +0.040 C 
ATOM     35  C   UNL     1     -10.278   7.819  68.306  0.00  0.00    +0.136 C 
ATOM     36  O   UNL     1      -8.909   7.507  68.299  0.00  0.00    -0.352 OA
ATOM     37  C   UNL     1      -8.350   8.756  67.979  0.00  0.00    +0.146 C 
BRANCH  35  38
ATOM     38  C   UNL     1     -10.526   8.518  69.596  0.00  0.00    +0.032 A 
ATOM     39  C   UNL     1     -10.600   7.744  70.750  0.00  0.00    +0.141 A 
ATOM     40  F   UNL     1      -9.624   6.831  70.918  0.00  0.00    -0.204 F 
ATOM     41  C   UNL     1     -11.408   8.178  71.795  0.00  0.00    +0.059 A 
ATOM     42  C   UNL     1     -12.024   9.421  71.730  0.00  0.00    +0.142 A 
ATOM     43  F   UNL     1     -13.160   9.707  72.427  0.00  0.00    -0.204 F 
ATOM     44  C   UNL     1     -11.700  10.285  70.693  0.00  0.00    +0.030 A 
ATOM     45  C   UNL     1     -11.055   9.796  69.564  0.00  0.00    +0.003 A 
ENDBRANCH  35  38
BRANCH  35  46
ATOM     46  C   UNL     1     -11.099   6.547  68.183  0.00  0.00    +0.160 C 
BRANCH  46  47
ATOM     47  N   UNL     1     -10.281   5.468  67.668  0.00  0.00    -0.227 N 
ATOM     48  N   UNL     1      -9.635   4.563  68.396  0.00  0.00    -0.145 NA
ATOM     49  C   UNL     1      -9.448   3.441  67.672  0.00  0.00    +0.221 A 
ATOM     50  N   UNL     1      -9.825   3.761  66.412  0.00  0.00    -0.201 NA
ATOM     51  C   UNL     1     -10.264   5.031  66.396  0.00  0.00    +0.197 A 
ENDBRANCH  46  47
ENDBRANCH  35  46
ENDBRANCH  32  33
ENDBRANCH  31  32
ENDBRANCH   4  31
TORSDOF 12
ENDMDL
MODEL 8
REMARK VINA RESULT:      -7.0      3.280      6.618
REMARK  Name = 
REMARK  12 active torsions:
REMARK  status: ('A' for Active; 'I' for Inactive)
REMARK    1  A    between atoms: C_2  and  C_3
REMARK    2  A    between atoms: C_3  and  C_4
REMARK    3  A    between atoms: C_3  and  N_7
REMARK    4  A    between atoms: N_10  and  C_11
REMARK    5  A    between atoms: C_14  and  N_15
REMARK    6  A    between atoms: N_18  and  C_19
REMARK    7  A    between atoms: C_22  and  O_23
REMARK    8  A    between atoms: O_23  and  C_24
REMARK    9  A    between atoms: C_24  and  C_25
REMARK   10  A    between atoms: C_28  and  C_29
REMARK   11  A    between atoms: C_28  and  C_35
REMARK   12  A    between atoms: C_29  and  N_30
REMARK                            x       y       z     vdW  Elec       q    Type
REMARK                         _______ _______ _______ _____ _____    ______ ____
ROOT
ATOM      1  C   UNL     1     -10.216  15.713  66.287  0.00  0.00    +0.048 A 
ATOM      2  C   UNL     1     -11.217  15.533  67.236  0.00  0.00    +0.018 A 
ATOM      3  C   UNL     1     -12.016  14.400  67.127  0.00  0.00    +0.038 A 
ATOM      4  C   UNL     1     -11.911  13.566  66.025  0.00  0.00    +0.139 A 
ATOM      5  C   UNL     1     -11.256  14.092  64.918  0.00  0.00    +0.038 A 
ATOM      6  C   UNL     1     -10.555  15.289  65.007  0.00  0.00    +0.018 A 
ENDROOT
BRANCH   1  10
ATOM      7  N   UNL     1      -8.097  16.747  68.961  0.00  0.00    -0.304 N 
ATOM      8  C   UNL     1      -7.807  15.537  68.185  0.00  0.00    +0.112 C 
ATOM      9  C   UNL     1      -7.841  16.034  66.741  0.00  0.00    +0.112 C 
ATOM     10  N   UNL     1      -9.146  16.643  66.496  0.00  0.00    -0.304 N 
ATOM     11  C   UNL     1      -9.484  17.777  67.353  0.00  0.00    +0.112 C 
ATOM     12  C   UNL     1      -9.468  17.221  68.774  0.00  0.00    +0.112 C 
BRANCH   7  16
ATOM     13  C   UNL     1      -5.596  19.620  67.379  0.00  0.00    +0.070 A 
ATOM     14  C   UNL     1      -5.017  18.412  67.732  0.00  0.00    +0.019 A 
ATOM     15  C   UNL     1      -5.798  17.473  68.394  0.00  0.00    +0.016 A 
ATOM     16  C   UNL     1      -7.087  17.751  68.786  0.00  0.00    +0.048 A 
ATOM     17  C   UNL     1      -7.413  19.098  68.900  0.00  0.00    +0.016 A 
ATOM     18  C   UNL     1      -6.702  20.000  68.127  0.00  0.00    +0.019 A 
BRANCH  13  22
ATOM     19  N   UNL     1      -5.002  20.085  63.982  0.00  0.00    -0.200 N 
ATOM     20  C   UNL     1      -5.898  19.772  64.950  0.00  0.00    +0.352 A 
ATOM     21  O   UNL     1      -6.941  19.093  64.899  0.00  0.00    -0.244 OA
ATOM     22  N   UNL     1      -5.369  20.238  66.107  0.00  0.00    -0.240 N 
ATOM     23  C   UNL     1      -4.217  20.839  65.769  0.00  0.00    +0.207 A 
ATOM     24  N   UNL     1      -4.346  21.088  64.442  0.00  0.00    -0.144 NA
BRANCH  19  25
ATOM     25  C   UNL     1      -5.567  19.904  62.523  0.00  0.00    +0.140 C 
BRANCH  25  26
ATOM     26  C   UNL     1      -4.001  19.570  61.794  0.00  0.00    +0.174 C 
ATOM     27  O   UNL     1      -3.873  18.183  62.432  0.00  0.00    -0.221 OA
ATOM     28  C   UNL     1      -4.678  18.944  60.403  0.00  0.00    +0.038 C 
ENDBRANCH  25  26
BRANCH  25  30
ATOM     29  C   UNL     1      -6.762  21.818  62.008  0.00  0.00    +0.002 C 
ATOM     30  C   UNL     1      -5.497  21.503  62.105  0.00  0.00    +0.027 C 
ENDBRANCH  25  30
ENDBRANCH  19  25
ENDBRANCH  13  22
ENDBRANCH   7  16
ENDBRANCH   1  10
BRANCH   4  31
ATOM     31  O   UNL     1     -12.108  12.185  66.123  0.00  0.00    -0.475 OA
BRANCH  31  32
ATOM     32  C   UNL     1     -11.735  11.602  67.368  0.00  0.00    +0.208 C 
BRANCH  32  33
ATOM     33  C   UNL     1     -10.255  10.964  66.986  0.00  0.00    +0.076 C 
ATOM     34  C   UNL     1     -10.617   9.527  67.724  0.00  0.00    +0.040 C 
ATOM     35  C   UNL     1      -9.425   9.384  68.622  0.00  0.00    +0.136 C 
ATOM     36  O   UNL     1      -8.620  10.515  68.413  0.00  0.00    -0.352 OA
ATOM     37  C   UNL     1      -9.588  11.533  68.390  0.00  0.00    +0.146 C 
BRANCH  35  38
ATOM     38  C   UNL     1      -9.774   9.399  70.068  0.00  0.00    +0.032 A 
ATOM     39  C   UNL     1      -8.794   9.014  70.977  0.00  0.00    +0.141 A 
ATOM     40  F   UNL     1      -7.575   9.562  70.807  0.00  0.00    -0.204 F 
ATOM     41  C   UNL     1      -9.186   8.415  72.169  0.00  0.00    +0.059 A 
ATOM     42  C   UNL     1     -10.534   8.324  72.493  0.00  0.00    +0.142 A 
ATOM     43  F   UNL     1     -11.016   7.372  73.342  0.00  0.00    -0.204 F 
ATOM     44  C   UNL     1     -11.468   8.973  71.698  0.00  0.00    +0.030 A 
ATOM     45  C   UNL     1     -11.111   9.402  70.425  0.00  0.00    +0.003 A 
ENDBRANCH  35  38
BRANCH  35  46
ATOM     46  C   UNL     1      -8.662   8.127  68.236  0.00  0.00    +0.160 C 
BRANCH  46  47
ATOM     47  N   UNL     1      -9.582   7.034  67.998  0.00  0.00    -0.227 N 
ATOM     48  N   UNL     1      -9.983   6.596  66.809  0.00  0.00    -0.145 NA
ATOM     49  C   UNL     1     -10.357   5.304  66.898  0.00  0.00    +0.221 A 
ATOM     50  N   UNL     1     -10.360   5.023  68.222  0.00  0.00    -0.201 NA
ATOM     51  C   UNL     1      -9.958   6.110  68.901  0.00  0.00    +0.197 A 
ENDBRANCH  46  47
ENDBRANCH  35  46
ENDBRANCH  32  33
ENDBRANCH  31  32
ENDBRANCH   4  31
TORSDOF 12
ENDMDL
MODEL 9
REMARK VINA RESULT:      -6.9      4.456     11.359
REMARK  Name = 
REMARK  12 active torsions:
REMARK  status: ('A' for Active; 'I' for Inactive)
REMARK    1  A    between atoms: C_2  and  C_3
REMARK    2  A    between atoms: C_3  and  C_4
REMARK    3  A    between atoms: C_3  and  N_7
REMARK    4  A    between atoms: N_10  and  C_11
REMARK    5  A    between atoms: C_14  and  N_15
REMARK    6  A    between atoms: N_18  and  C_19
REMARK    7  A    between atoms: C_22  and  O_23
REMARK    8  A    between atoms: O_23  and  C_24
REMARK    9  A    between atoms: C_24  and  C_25
REMARK   10  A    between atoms: C_28  and  C_29
REMARK   11  A    between atoms: C_28  and  C_35
REMARK   12  A    between atoms: C_29  and  N_30
REMARK                            x       y       z     vdW  Elec       q    Type
REMARK                         _______ _______ _______ _____ _____    ______ ____
ROOT
ATOM      1  C   UNL     1     -10.303  17.999  67.725  0.00  0.00    +0.048 A 
ATOM      2  C   UNL     1     -10.401  18.623  66.485  0.00  0.00    +0.018 A 
ATOM      3  C   UNL     1      -9.390  19.507  66.124  0.00  0.00    +0.038 A 
ATOM      4  C   UNL     1      -8.406  19.862  67.032  0.00  0.00    +0.139 A 
ATOM      5  C   UNL     1      -8.674  19.585  68.367  0.00  0.00    +0.038 A 
ATOM      6  C   UNL     1      -9.759  18.794  68.727  0.00  0.00    +0.018 A 
ENDROOT
BRANCH   1  10
ATOM      7  N   UNL     1      -9.757  14.579  68.571  0.00  0.00    -0.304 N 
ATOM      8  C   UNL     1      -9.656  15.638  69.580  0.00  0.00    +0.112 C 
ATOM      9  C   UNL     1     -10.977  16.389  69.429  0.00  0.00    +0.112 C 
ATOM     10  N   UNL     1     -11.089  16.845  68.045  0.00  0.00    -0.304 N 
ATOM     11  C   UNL     1     -11.069  15.794  67.032  0.00  0.00    +0.112 C 
ATOM     12  C   UNL     1      -9.722  15.100  67.204  0.00  0.00    +0.112 C 
BRANCH   7  16
ATOM     13  C   UNL     1     -12.090  11.514  70.045  0.00  0.00    +0.070 A 
ATOM     14  C   UNL     1     -11.719  11.434  68.714  0.00  0.00    +0.019 A 
ATOM     15  C   UNL     1     -11.052  12.513  68.145  0.00  0.00    +0.016 A 
ATOM     16  C   UNL     1     -10.841  13.680  68.842  0.00  0.00    +0.048 A 
ATOM     17  C   UNL     1     -11.680  13.903  69.928  0.00  0.00    +0.016 A 
ATOM     18  C   UNL     1     -12.228  12.798  70.556  0.00  0.00    +0.019 A 
BRANCH  13  22
ATOM     19  N   UNL     1     -11.432   8.350  71.334  0.00  0.00    -0.200 N 
ATOM     20  C   UNL     1     -10.927   9.520  70.874  0.00  0.00    +0.352 A 
ATOM     21  O   UNL     1      -9.825   9.778  70.352  0.00  0.00    -0.244 OA
ATOM     22  N   UNL     1     -11.940  10.416  70.953  0.00  0.00    -0.240 N 
ATOM     23  C   UNL     1     -12.976   9.753  71.492  0.00  0.00    +0.207 A 
ATOM     24  N   UNL     1     -12.408   8.681  72.099  0.00  0.00    -0.144 NA
BRANCH  19  25
ATOM     25  C   UNL     1     -10.331   7.259  71.613  0.00  0.00    +0.140 C 
BRANCH  25  26
ATOM     26  C   UNL     1     -11.393   5.889  71.308  0.00  0.00    +0.174 C 
ATOM     27  O   UNL     1     -11.454   6.128  69.797  0.00  0.00    -0.221 OA
ATOM     28  C   UNL     1     -10.122   4.819  71.158  0.00  0.00    +0.038 C 
ENDBRANCH  25  26
BRANCH  25  30
ATOM     29  C   UNL     1      -9.424   7.575  73.720  0.00  0.00    +0.002 C 
ATOM     30  C   UNL     1     -10.575   7.173  73.247  0.00  0.00    +0.027 C 
ENDBRANCH  25  30
ENDBRANCH  19  25
ENDBRANCH  13  22
ENDBRANCH   7  16
ENDBRANCH   1  10
BRANCH   4  31
ATOM     31  O   UNL     1      -7.094  20.134  66.630  0.00  0.00    -0.475 OA
BRANCH  31  32
ATOM     32  C   UNL     1      -6.407  21.109  67.408  0.00  0.00    +0.208 C 
BRANCH  32  33
ATOM     33  C   UNL     1      -4.845  20.859  66.918  0.00  0.00    +0.076 C 
ATOM     34  C   UNL     1      -5.096  19.232  66.746  0.00  0.00    +0.040 C 
ATOM     35  C   UNL     1      -3.956  18.701  67.563  0.00  0.00    +0.136 C 
ATOM     36  O   UNL     1      -3.266  19.815  68.070  0.00  0.00    -0.352 OA
ATOM     37  C   UNL     1      -4.336  20.631  68.476  0.00  0.00    +0.146 C 
BRANCH  35  38
ATOM     38  C   UNL     1      -4.397  17.924  68.753  0.00  0.00    +0.032 A 
ATOM     39  C   UNL     1      -3.428  17.245  69.481  0.00  0.00    +0.141 A 
ATOM     40  F   UNL     1      -2.318  17.943  69.792  0.00  0.00    -0.204 F 
ATOM     41  C   UNL     1      -3.784  16.074  70.141  0.00  0.00    +0.059 A 
ATOM     42  C   UNL     1      -5.112  15.667  70.170  0.00  0.00    +0.142 A 
ATOM     43  F   UNL     1      -5.471  14.364  70.347  0.00  0.00    -0.204 F 
ATOM     44  C   UNL     1      -6.092  16.517  69.676  0.00  0.00    +0.030 A 
ATOM     45  C   UNL     1      -5.734  17.581  68.858  0.00  0.00    +0.003 A 
ENDBRANCH  35  38
BRANCH  35  46
ATOM     46  C   UNL     1      -3.038  17.890  66.665  0.00  0.00    +0.160 C 
BRANCH  46  47
ATOM     47  N   UNL     1      -3.088  18.393  65.308  0.00  0.00    -0.227 N 
ATOM     48  N   UNL     1      -2.334  19.367  64.808  0.00  0.00    -0.145 NA
ATOM     49  C   UNL     1      -2.226  19.224  63.471  0.00  0.00    +0.221 A 
ATOM     50  N   UNL     1      -3.102  18.245  63.145  0.00  0.00    -0.201 NA
ATOM     51  C   UNL     1      -3.687  17.789  64.265  0.00  0.00    +0.197 A 
ENDBRANCH  46  47
ENDBRANCH  35  46
ENDBRANCH  32  33
ENDBRANCH  31  32
ENDBRANCH   4  31
TORSDOF 12
ENDMDL
