MODEL 1
REMARK VINA RESULT:      -6.8      0.000      0.000
REMARK  Name = 
REMARK  5 active torsions:
REMARK  status: ('A' for Active; 'I' for Inactive)
REMARK    1  A    between atoms: N_2  and  C_4
REMARK    2  A    between atoms: C_4  and  C_5
REMARK    3  A    between atoms: C_5  and  C_6
REMARK    4  A    between atoms: C_12  and  C_13
REMARK    5  A    between atoms: C_13  and  C_14
REMARK                            x       y       z     vdW  Elec       q    Type
REMARK                         _______ _______ _______ _____ _____    ______ ____
ROOT
ATOM      1  C   UNL     1     -11.794  14.438  66.225  0.00  0.00    -0.000 A 
ATOM      2  C   UNL     1     -11.478  14.759  67.513  0.00  0.00    +0.015 A 
ATOM      3  C   UNL     1     -10.408  15.642  67.448  0.00  0.00    +0.081 A 
ATOM      4  C   UNL     1      -9.854  16.140  68.613  0.00  0.00    +0.019 A 
ATOM      5  C   UNL     1     -10.628  15.970  69.754  0.00  0.00    -0.003 A 
ATOM      6  C   UNL     1     -11.404  14.823  69.874  0.00  0.00    -0.020 A 
ATOM      7  N   UNL     1     -10.175  15.989  66.159  0.00  0.00    -0.244 NA
ATOM      8  C   UNL     1     -11.931  14.252  68.721  0.00  0.00    -0.003 A 
ATOM      9  C   UNL     1     -11.127  15.361  65.428  0.00  0.00    +0.095 A 
ENDROOT
BRANCH   1  10
ATOM     10  C   UNL     1     -12.278  13.171  65.658  0.00  0.00    +0.045 C 
BRANCH  10  11
ATOM     11  C   UNL     1     -11.254  12.107  65.513  0.00  0.00    +0.077 C 
BRANCH  11  13
ATOM     12  C   UNL     1     -10.419  12.111  63.639  0.00  0.00    +0.090 C 
ATOM     13  N   UNL     1     -11.153  11.783  64.090  0.00  0.00    -0.270 NA
ATOM     14  C   UNL     1     -12.439  12.085  63.511  0.00  0.00    +0.090 C 
ENDBRANCH  11  13
ENDBRANCH  10  11
ENDBRANCH   1  10
BRANCH   6  15
ATOM     15  C   UNL     1     -11.941  14.544  71.234  0.00  0.00    +0.052 C 
BRANCH  15  16
ATOM     16  C   UNL     1     -13.554  14.786  71.024  0.00  0.00    +0.147 C 
ATOM     17  N   UNL     1     -13.595  15.939  72.092  0.00  0.00    -0.166 NA
ATOM     18  C   UNL     1     -12.912  15.428  73.213  0.00  0.00    +0.421 C 
ATOM     19  O   UNL     1     -12.812  16.098  74.286  0.00  0.00    -0.225 OA
ATOM     20  O   UNL     1     -13.187  14.083  73.242  0.00  0.00    -0.432 OA
ATOM     21  C   UNL     1     -13.947  13.660  72.152  0.00  0.00    +0.232 C 
ENDBRANCH  15  16
ENDBRANCH   6  15
TORSDOF 5
ENDMDL
MODEL 2
REMARK VINA RESULT:      -6.7      4.003      7.627
REMARK  Name = 
REMARK  5 active torsions:
REMARK  status: ('A' for Active; 'I' for Inactive)
REMARK    1  A    between atoms: N_2  and  C_4
REMARK    2  A    between atoms: C_4  and  C_5
REMARK    3  A    between atoms: C_5  and  C_6
REMARK    4  A    between atoms: C_12  and  C_13
REMARK    5  A    between atoms: C_13  and  C_14
REMARK                            x       y       z     vdW  Elec       q    Type
REMARK                         _______ _______ _______ _____ _____    ______ ____
ROOT
ATOM      1  C   UNL     1     -12.605  12.017  70.740  0.00  0.00    -0.000 A 
ATOM      2  C   UNL     1     -12.004  11.562  69.603  0.00  0.00    +0.015 A 
ATOM      3  C   UNL     1     -11.432  10.338  69.922  0.00  0.00    +0.081 A 
ATOM      4  C   UNL     1     -10.734   9.631  68.960  0.00  0.00    +0.019 A 
ATOM      5  C   UNL     1     -10.940  10.054  67.653  0.00  0.00    -0.003 A 
ATOM      6  C   UNL     1     -11.141  11.407  67.409  0.00  0.00    -0.020 A 
ATOM      7  N   UNL     1     -11.809   9.964  71.169  0.00  0.00    -0.244 NA
ATOM      8  C   UNL     1     -11.785  12.171  68.377  0.00  0.00    -0.003 A 
ATOM      9  C   UNL     1     -12.651  10.931  71.607  0.00  0.00    +0.095 A 
ENDROOT
BRANCH   1  10
ATOM     10  C   UNL     1     -12.749  13.388  71.250  0.00  0.00    +0.045 C 
BRANCH  10  11
ATOM     11  C   UNL     1     -13.558  13.524  72.487  0.00  0.00    +0.077 C 
BRANCH  11  13
ATOM     12  C   UNL     1     -13.628  15.547  72.150  0.00  0.00    +0.090 C 
ATOM     13  N   UNL     1     -13.581  14.942  72.844  0.00  0.00    -0.270 NA
ATOM     14  C   UNL     1     -12.507  15.142  73.786  0.00  0.00    +0.090 C 
ENDBRANCH  11  13
ENDBRANCH  10  11
ENDBRANCH   1  10
BRANCH   6  15
ATOM     15  C   UNL     1     -11.026  11.834  65.987  0.00  0.00    +0.052 C 
BRANCH  15  16
ATOM     16  C   UNL     1     -11.692  13.337  66.023  0.00  0.00    +0.147 C 
ATOM     17  N   UNL     1     -12.876  12.916  65.079  0.00  0.00    -0.166 NA
ATOM     18  C   UNL     1     -12.268  12.240  64.003  0.00  0.00    +0.421 C 
ATOM     19  O   UNL     1     -12.951  11.812  63.023  0.00  0.00    -0.225 OA
ATOM     20  O   UNL     1     -11.056  12.856  63.806  0.00  0.00    -0.432 OA
ATOM     21  C   UNL     1     -10.792  13.849  64.749  0.00  0.00    +0.232 C 
ENDBRANCH  15  16
ENDBRANCH   6  15
TORSDOF 5
ENDMDL
MODEL 3
REMARK VINA RESULT:      -6.7      1.846      4.107
REMARK  Name = 
REMARK  5 active torsions:
REMARK  status: ('A' for Active; 'I' for Inactive)
REMARK    1  A    between atoms: N_2  and  C_4
REMARK    2  A    between atoms: C_4  and  C_5
REMARK    3  A    between atoms: C_5  and  C_6
REMARK    4  A    between atoms: C_12  and  C_13
REMARK    5  A    between atoms: C_13  and  C_14
REMARK                            x       y       z     vdW  Elec       q    Type
REMARK                         _______ _______ _______ _____ _____    ______ ____
ROOT
ATOM      1  C   UNL     1     -10.258  16.463  66.764  0.00  0.00    -0.000 A 
ATOM      2  C   UNL     1     -10.885  15.733  67.732  0.00  0.00    +0.015 A 
ATOM      3  C   UNL     1     -11.324  14.565  67.122  0.00  0.00    +0.081 A 
ATOM      4  C   UNL     1     -12.014  13.620  67.860  0.00  0.00    +0.019 A 
ATOM      5  C   UNL     1     -11.927  13.770  69.238  0.00  0.00    -0.003 A 
ATOM      6  C   UNL     1     -11.863  15.052  69.772  0.00  0.00    -0.020 A 
ATOM      7  N   UNL     1     -10.840  14.495  65.859  0.00  0.00    -0.244 NA
ATOM      8  C   UNL     1     -11.232  16.049  69.036  0.00  0.00    -0.003 A 
ATOM      9  C   UNL     1     -10.062  15.592  65.698  0.00  0.00    +0.095 A 
ENDROOT
BRANCH   1  10
ATOM     10  C   UNL     1     -10.206  17.918  66.561  0.00  0.00    +0.045 C 
BRANCH  10  11
ATOM     11  C   UNL     1      -8.851  18.519  66.621  0.00  0.00    +0.077 C 
BRANCH  11  13
ATOM     12  C   UNL     1      -8.389  19.121  68.527  0.00  0.00    +0.090 C 
ATOM     13  N   UNL     1      -8.820  19.423  67.770  0.00  0.00    -0.270 NA
ATOM     14  C   UNL     1     -10.171  19.891  67.957  0.00  0.00    +0.090 C 
ENDBRANCH  11  13
ENDBRANCH  10  11
ENDBRANCH   1  10
BRANCH   6  15
ATOM     15  C   UNL     1     -12.103  15.156  71.237  0.00  0.00    +0.052 C 
BRANCH  15  16
ATOM     16  C   UNL     1     -13.730  14.942  71.336  0.00  0.00    +0.147 C 
ATOM     17  N   UNL     1     -13.870  15.979  72.509  0.00  0.00    -0.166 NA
ATOM     18  C   UNL     1     -12.870  15.627  73.436  0.00  0.00    +0.421 C 
ATOM     19  O   UNL     1     -12.746  16.242  74.539  0.00  0.00    -0.225 OA
ATOM     20  O   UNL     1     -12.762  14.259  73.373  0.00  0.00    -0.432 OA
ATOM     21  C   UNL     1     -13.578  13.695  72.392  0.00  0.00    +0.232 C 
ENDBRANCH  15  16
ENDBRANCH   6  15
TORSDOF 5
ENDMDL
MODEL 4
REMARK VINA RESULT:      -6.5      1.604      3.274
REMARK  Name = 
REMARK  5 active torsions:
REMARK  status: ('A' for Active; 'I' for Inactive)
REMARK    1  A    between atoms: N_2  and  C_4
REMARK    2  A    between atoms: C_4  and  C_5
REMARK    3  A    between atoms: C_5  and  C_6
REMARK    4  A    between atoms: C_12  and  C_13
REMARK    5  A    between atoms: C_13  and  C_14
REMARK                            x       y       z     vdW  Elec       q    Type
REMARK                         _______ _______ _______ _____ _____    ______ ____
ROOT
ATOM      1  C   UNL     1     -11.330  13.342  66.594  0.00  0.00    -0.000 A 
ATOM      2  C   UNL     1     -11.629  13.032  67.888  0.00  0.00    +0.015 A 
ATOM      3  C   UNL     1     -11.727  11.648  67.950  0.00  0.00    +0.081 A 
ATOM      4  C   UNL     1     -12.036  11.031  69.148  0.00  0.00    +0.019 A 
ATOM      5  C   UNL     1     -11.902  11.832  70.275  0.00  0.00    -0.003 A 
ATOM      6  C   UNL     1     -12.201  13.186  70.176  0.00  0.00    -0.020 A 
ATOM      7  N   UNL     1     -11.336  11.107  66.771  0.00  0.00    -0.244 NA
ATOM      8  C   UNL     1     -11.964  13.834  68.969  0.00  0.00    -0.003 A 
ATOM      9  C   UNL     1     -10.950  12.147  65.995  0.00  0.00    +0.095 A 
ENDROOT
BRANCH   1  10
ATOM     10  C   UNL     1     -11.745  14.491  65.777  0.00  0.00    +0.045 C 
BRANCH  10  11
ATOM     11  C   UNL     1     -10.639  15.323  65.241  0.00  0.00    +0.077 C 
BRANCH  11  13
ATOM     12  C   UNL     1     -10.311  16.918  66.488  0.00  0.00    +0.090 C 
ATOM     13  N   UNL     1     -10.045  16.044  66.366  0.00  0.00    -0.270 NA
ATOM     14  C   UNL     1      -8.622  15.821  66.287  0.00  0.00    +0.090 C 
ENDBRANCH  11  13
ENDBRANCH  10  11
ENDBRANCH   1  10
BRANCH   6  15
ATOM     15  C   UNL     1     -12.356  13.912  71.467  0.00  0.00    +0.052 C 
BRANCH  15  16
ATOM     16  C   UNL     1     -12.890  15.386  70.971  0.00  0.00    +0.147 C 
ATOM     17  N   UNL     1     -12.299  16.108  72.236  0.00  0.00    -0.166 NA
ATOM     18  C   UNL     1     -12.722  15.334  73.334  0.00  0.00    +0.421 C 
ATOM     19  O   UNL     1     -12.455  15.679  74.526  0.00  0.00    -0.225 OA
ATOM     20  O   UNL     1     -13.962  14.847  72.999  0.00  0.00    -0.432 OA
ATOM     21  C   UNL     1     -14.346  15.189  71.702  0.00  0.00    +0.232 C 
ENDBRANCH  15  16
ENDBRANCH   6  15
TORSDOF 5
ENDMDL
MODEL 5
REMARK VINA RESULT:      -6.5      1.423      1.816
REMARK  Name = 
REMARK  5 active torsions:
REMARK  status: ('A' for Active; 'I' for Inactive)
REMARK    1  A    between atoms: N_2  and  C_4
REMARK    2  A    between atoms: C_4  and  C_5
REMARK    3  A    between atoms: C_5  and  C_6
REMARK    4  A    between atoms: C_12  and  C_13
REMARK    5  A    between atoms: C_13  and  C_14
REMARK                            x       y       z     vdW  Elec       q    Type
REMARK                         _______ _______ _______ _____ _____    ______ ____
ROOT
ATOM      1  C   UNL     1     -11.788  13.620  66.499  0.00  0.00    -0.000 A 
ATOM      2  C   UNL     1     -11.610  14.308  67.664  0.00  0.00    +0.015 A 
ATOM      3  C   UNL     1     -10.920  15.468  67.335  0.00  0.00    +0.081 A 
ATOM      4  C   UNL     1     -10.581  16.372  68.325  0.00  0.00    +0.019 A 
ATOM      5  C   UNL     1     -11.248  16.203  69.532  0.00  0.00    -0.003 A 
ATOM      6  C   UNL     1     -11.569  14.915  69.947  0.00  0.00    -0.020 A 
ATOM      7  N   UNL     1     -10.822  15.579  65.989  0.00  0.00    -0.244 NA
ATOM      8  C   UNL     1     -11.857  13.957  68.982  0.00  0.00    -0.003 A 
ATOM      9  C   UNL     1     -11.489  14.516  65.479  0.00  0.00    +0.095 A 
ENDROOT
BRANCH   1  10
ATOM     10  C   UNL     1     -11.791  12.173  66.246  0.00  0.00    +0.045 C 
BRANCH  10  11
ATOM     11  C   UNL     1     -10.477  11.499  66.390  0.00  0.00    +0.077 C 
BRANCH  11  13
ATOM     12  C   UNL     1     -10.020  10.814  68.269  0.00  0.00    +0.090 C 
ATOM     13  N   UNL     1     -10.560  10.612  67.549  0.00  0.00    -0.270 NA
ATOM     14  C   UNL     1     -10.458   9.266  67.041  0.00  0.00    +0.090 C 
ENDBRANCH  11  13
ENDBRANCH  10  11
ENDBRANCH   1  10
BRANCH   6  15
ATOM     15  C   UNL     1     -11.976  14.776  71.372  0.00  0.00    +0.052 C 
BRANCH  15  16
ATOM     16  C   UNL     1     -13.612  14.903  71.277  0.00  0.00    +0.147 C 
ATOM     17  N   UNL     1     -13.670  15.982  72.418  0.00  0.00    -0.166 NA
ATOM     18  C   UNL     1     -12.878  15.461  73.460  0.00  0.00    +0.421 C 
ATOM     19  O   UNL     1     -12.758  16.071  74.566  0.00  0.00    -0.225 OA
ATOM     20  O   UNL     1     -13.050  14.099  73.419  0.00  0.00    -0.432 OA
ATOM     21  C   UNL     1     -13.845  13.684  72.351  0.00  0.00    +0.232 C 
ENDBRANCH  15  16
ENDBRANCH   6  15
TORSDOF 5
ENDMDL
MODEL 6
REMARK VINA RESULT:      -6.3      3.957      6.537
REMARK  Name = 
REMARK  5 active torsions:
REMARK  status: ('A' for Active; 'I' for Inactive)
REMARK    1  A    between atoms: N_2  and  C_4
REMARK    2  A    between atoms: C_4  and  C_5
REMARK    3  A    between atoms: C_5  and  C_6
REMARK    4  A    between atoms: C_12  and  C_13
REMARK    5  A    between atoms: C_13  and  C_14
REMARK                            x       y       z     vdW  Elec       q    Type
REMARK                         _______ _______ _______ _____ _____    ______ ____
ROOT
ATOM      1  C   UNL     1     -11.869  14.766  69.589  0.00  0.00    -0.000 A 
ATOM      2  C   UNL     1     -11.851  13.409  69.454  0.00  0.00    +0.015 A 
ATOM      3  C   UNL     1     -11.724  13.149  68.096  0.00  0.00    +0.081 A 
ATOM      4  C   UNL     1     -11.688  11.842  67.644  0.00  0.00    +0.019 A 
ATOM      5  C   UNL     1     -11.453  10.886  68.624  0.00  0.00    -0.003 A 
ATOM      6  C   UNL     1     -11.966  11.091  69.899  0.00  0.00    -0.020 A 
ATOM      7  N   UNL     1     -11.500  14.304  67.425  0.00  0.00    -0.244 NA
ATOM      8  C   UNL     1     -12.078  12.394  70.371  0.00  0.00    -0.003 A 
ATOM      9  C   UNL     1     -11.441  15.275  68.368  0.00  0.00    +0.095 A 
ENDROOT
BRANCH   1  10
ATOM     10  C   UNL     1     -12.610  15.613  70.535  0.00  0.00    +0.045 C 
BRANCH  10  11
ATOM     11  C   UNL     1     -12.010  15.729  71.887  0.00  0.00    +0.077 C 
BRANCH  11  13
ATOM     12  C   UNL     1     -13.872  15.681  72.748  0.00  0.00    +0.090 C 
ATOM     13  N   UNL     1     -13.028  15.326  72.857  0.00  0.00    -0.270 NA
ATOM     14  C   UNL     1     -12.436  15.491  74.162  0.00  0.00    +0.090 C 
ENDBRANCH  11  13
ENDBRANCH  10  11
ENDBRANCH   1  10
BRANCH   6  15
ATOM     15  C   UNL     1     -11.967   9.903  70.797  0.00  0.00    +0.052 C 
BRANCH  15  16
ATOM     16  C   UNL     1     -10.605   9.112  70.322  0.00  0.00    +0.147 C 
ATOM     17  N   UNL     1     -11.340   7.724  70.269  0.00  0.00    -0.166 NA
ATOM     18  C   UNL     1     -12.043   7.631  71.487  0.00  0.00    +0.421 C 
ATOM     19  O   UNL     1     -12.705   6.592  71.789  0.00  0.00    -0.225 OA
ATOM     20  O   UNL     1     -11.264   8.270  72.421  0.00  0.00    -0.432 OA
ATOM     21  C   UNL     1     -10.124   8.854  71.870  0.00  0.00    +0.232 C 
ENDBRANCH  15  16
ENDBRANCH   6  15
TORSDOF 5
ENDMDL
MODEL 7
REMARK VINA RESULT:      -6.2      3.640      7.110
REMARK  Name = 
REMARK  5 active torsions:
REMARK  status: ('A' for Active; 'I' for Inactive)
REMARK    1  A    between atoms: N_2  and  C_4
REMARK    2  A    between atoms: C_4  and  C_5
REMARK    3  A    between atoms: C_5  and  C_6
REMARK    4  A    between atoms: C_12  and  C_13
REMARK    5  A    between atoms: C_13  and  C_14
REMARK                            x       y       z     vdW  Elec       q    Type
REMARK                         _______ _______ _______ _____ _____    ______ ____
ROOT
ATOM      1  C   UNL     1     -11.432  15.385  69.425  0.00  0.00    -0.000 A 
ATOM      2  C   UNL     1     -11.050  15.314  68.117  0.00  0.00    +0.015 A 
ATOM      3  C   UNL     1     -10.630  16.588  67.760  0.00  0.00    +0.081 A 
ATOM      4  C   UNL     1     -10.189  16.833  66.472  0.00  0.00    +0.019 A 
ATOM      5  C   UNL     1      -9.893  15.700  65.725  0.00  0.00    -0.003 A 
ATOM      6  C   UNL     1     -10.653  14.552  65.916  0.00  0.00    -0.020 A 
ATOM      7  N   UNL     1     -10.592  17.384  68.855  0.00  0.00    -0.244 NA
ATOM      8  C   UNL     1     -11.169  14.297  67.182  0.00  0.00    -0.003 A 
ATOM      9  C   UNL     1     -10.942  16.596  69.899  0.00  0.00    +0.095 A 
ENDROOT
BRANCH   1  10
ATOM     10  C   UNL     1     -12.513  14.685  70.134  0.00  0.00    +0.045 C 
BRANCH  10  11
ATOM     11  C   UNL     1     -12.458  14.764  71.615  0.00  0.00    +0.077 C 
BRANCH  11  13
ATOM     12  C   UNL     1     -13.569  15.866  72.940  0.00  0.00    +0.090 C 
ATOM     13  N   UNL     1     -13.560  15.619  72.052  0.00  0.00    -0.270 NA
ATOM     14  C   UNL     1     -14.769  15.012  71.553  0.00  0.00    +0.090 C 
ENDBRANCH  11  13
ENDBRANCH  10  11
ENDBRANCH   1  10
BRANCH   6  15
ATOM     15  C   UNL     1     -10.509  13.498  64.874  0.00  0.00    +0.052 C 
BRANCH  15  16
ATOM     16  C   UNL     1     -11.492  12.311  65.447  0.00  0.00    +0.147 C 
ATOM     17  N   UNL     1     -10.604  11.173  64.825  0.00  0.00    -0.166 NA
ATOM     18  C   UNL     1     -10.373  11.570  63.493  0.00  0.00    +0.421 C 
ATOM     19  O   UNL     1      -9.725  10.834  62.688  0.00  0.00    -0.225 OA
ATOM     20  O   UNL     1     -11.512  12.225  63.092  0.00  0.00    -0.432 OA
ATOM     21  C   UNL     1     -12.451  12.358  64.115  0.00  0.00    +0.232 C 
ENDBRANCH  15  16
ENDBRANCH   6  15
TORSDOF 5
ENDMDL
MODEL 8
REMARK VINA RESULT:      -6.1      2.074      3.280
REMARK  Name = 
REMARK  5 active torsions:
REMARK  status: ('A' for Active; 'I' for Inactive)
REMARK    1  A    between atoms: N_2  and  C_4
REMARK    2  A    between atoms: C_4  and  C_5
REMARK    3  A    between atoms: C_5  and  C_6
REMARK    4  A    between atoms: C_12  and  C_13
REMARK    5  A    between atoms: C_13  and  C_14
REMARK                            x       y       z     vdW  Elec       q    Type
REMARK                         _______ _______ _______ _____ _____    ______ ____
ROOT
ATOM      1  C   UNL     1     -11.146  12.110  67.201  0.00  0.00    -0.000 A 
ATOM      2  C   UNL     1     -11.580  12.079  68.494  0.00  0.00    +0.015 A 
ATOM      3  C   UNL     1     -11.708  10.739  68.836  0.00  0.00    +0.081 A 
ATOM      4  C   UNL     1     -12.147  10.389  70.100  0.00  0.00    +0.019 A 
ATOM      5  C   UNL     1     -12.114  11.411  71.040  0.00  0.00    -0.003 A 
ATOM      6  C   UNL     1     -12.376  12.712  70.627  0.00  0.00    -0.020 A 
ATOM      7  N   UNL     1     -11.209   9.962  67.845  0.00  0.00    -0.244 NA
ATOM      8  C   UNL     1     -12.007  13.091  69.341  0.00  0.00    -0.003 A 
ATOM      9  C   UNL     1     -10.728  10.816  66.910  0.00  0.00    +0.095 A 
ENDROOT
BRANCH   1  10
ATOM     10  C   UNL     1     -11.456  13.057  66.121  0.00  0.00    +0.045 C 
BRANCH  10  11
ATOM     11  C   UNL     1     -10.279  13.633  65.423  0.00  0.00    +0.077 C 
BRANCH  11  13
ATOM     12  C   UNL     1     -10.480  15.673  65.356  0.00  0.00    +0.090 C 
ATOM     13  N   UNL     1     -10.686  14.922  64.864  0.00  0.00    -0.270 NA
ATOM     14  C   UNL     1     -12.067  14.779  64.474  0.00  0.00    +0.090 C 
ENDBRANCH  11  13
ENDBRANCH  10  11
ENDBRANCH   1  10
BRANCH   6  15
ATOM     15  C   UNL     1     -12.649  13.694  71.712  0.00  0.00    +0.052 C 
BRANCH  15  16
ATOM     16  C   UNL     1     -13.033  15.049  70.862  0.00  0.00    +0.147 C 
ATOM     17  N   UNL     1     -12.416  15.998  71.953  0.00  0.00    -0.166 NA
ATOM     18  C   UNL     1     -12.938  15.540  73.179  0.00  0.00    +0.421 C 
ATOM     19  O   UNL     1     -12.677  16.133  74.270  0.00  0.00    -0.225 OA
ATOM     20  O   UNL     1     -14.207  15.091  72.905  0.00  0.00    -0.432 OA
ATOM     21  C   UNL     1     -14.521  15.148  71.547  0.00  0.00    +0.232 C 
ENDBRANCH  15  16
ENDBRANCH   6  15
TORSDOF 5
ENDMDL
MODEL 9
REMARK VINA RESULT:      -6.1      3.546      5.142
REMARK  Name = 
REMARK  5 active torsions:
REMARK  status: ('A' for Active; 'I' for Inactive)
REMARK    1  A    between atoms: N_2  and  C_4
REMARK    2  A    between atoms: C_4  and  C_5
REMARK    3  A    between atoms: C_5  and  C_6
REMARK    4  A    between atoms: C_12  and  C_13
REMARK    5  A    between atoms: C_13  and  C_14
REMARK                            x       y       z     vdW  Elec       q    Type
REMARK                         _______ _______ _______ _____ _____    ______ ____
ROOT
ATOM      1  C   UNL     1     -11.619  13.349  66.992  0.00  0.00    -0.000 A 
ATOM      2  C   UNL     1     -11.330  14.502  67.663  0.00  0.00    +0.015 A 
ATOM      3  C   UNL     1     -11.603  14.257  69.003  0.00  0.00    +0.081 A 
ATOM      4  C   UNL     1     -11.415  15.257  69.939  0.00  0.00    +0.019 A 
ATOM      5  C   UNL     1     -10.652  16.334  69.506  0.00  0.00    -0.003 A 
ATOM      6  C   UNL     1     -10.746  16.733  68.177  0.00  0.00    -0.020 A 
ATOM      7  N   UNL     1     -11.891  12.945  69.181  0.00  0.00    -0.244 NA
ATOM      8  C   UNL     1     -10.997  15.768  67.208  0.00  0.00    -0.003 A 
ATOM      9  C   UNL     1     -11.751  12.366  67.965  0.00  0.00    +0.095 A 
ENDROOT
BRANCH   1  10
ATOM     10  C   UNL     1     -12.179  13.153  65.648  0.00  0.00    +0.045 C 
BRANCH  10  11
ATOM     11  C   UNL     1     -11.221  13.323  64.528  0.00  0.00    +0.077 C 
BRANCH  11  13
ATOM     12  C   UNL     1     -12.364  12.063  63.384  0.00  0.00    +0.090 C 
ATOM     13  N   UNL     1     -11.481  12.260  63.559  0.00  0.00    -0.270 NA
ATOM     14  C   UNL     1     -10.648  11.147  63.942  0.00  0.00    +0.090 C 
ENDBRANCH  11  13
ENDBRANCH  10  11
ENDBRANCH   1  10
BRANCH   6  15
ATOM     15  C   UNL     1     -10.172  18.069  67.859  0.00  0.00    +0.052 C 
BRANCH  15  16
ATOM     16  C   UNL     1     -10.171  18.061  66.215  0.00  0.00    +0.147 C 
ATOM     17  N   UNL     1      -8.662  18.497  66.140  0.00  0.00    -0.166 NA
ATOM     18  C   UNL     1      -8.548  19.588  67.023  0.00  0.00    +0.421 C 
ATOM     19  O   UNL     1      -7.454  20.217  67.157  0.00  0.00    -0.225 OA
ATOM     20  O   UNL     1      -9.746  20.258  66.951  0.00  0.00    -0.432 OA
ATOM     21  C   UNL     1     -10.676  19.620  66.131  0.00  0.00    +0.232 C 
ENDBRANCH  15  16
ENDBRANCH   6  15
TORSDOF 5
ENDMDL
