MODEL 1
REMARK VINA RESULT:      -5.8      0.000      0.000
REMARK  Name = 
REMARK  5 active torsions:
REMARK  status: ('A' for Active; 'I' for Inactive)
REMARK    1  A    between atoms: N_2  and  C_4
REMARK    2  A    between atoms: C_4  and  C_5
REMARK    3  A    between atoms: C_5  and  C_6
REMARK    4  A    between atoms: C_6  and  C_7
REMARK    5  A    between atoms: C_6  and  C_14
REMARK                            x       y       z     vdW  Elec       q    Type
REMARK                         _______ _______ _______ _____ _____    ______ ____
ROOT
ATOM      1  C   UNL     1     -11.908  15.563  69.010  0.00  0.00    +0.064 C 
ENDROOT
BRANCH   1   2
ATOM      2  C   UNL     1     -11.079  14.468  68.178  0.00  0.00    -0.017 A 
ATOM      3  C   UNL     1     -11.958  14.054  67.185  0.00  0.00    -0.003 A 
ATOM      4  C   UNL     1     -11.784  12.822  66.668  0.00  0.00    +0.006 A 
ATOM      5  C   UNL     1     -10.591  12.156  67.014  0.00  0.00    +0.035 A 
ATOM      6 BR   UNL     1     -10.278  10.454  66.183  0.00  0.00    -0.049 Br
ATOM      7  C   UNL     1      -9.601  12.827  67.724  0.00  0.00    +0.006 A 
ATOM      8  C   UNL     1      -9.935  13.940  68.497  0.00  0.00    -0.003 A 
ENDBRANCH   1   2
BRANCH   1   9
ATOM      9  C   UNL     1     -11.832  14.881  70.482  0.00  0.00    +0.063 A 
ATOM     10  N   UNL     1     -12.796  14.085  70.842  0.00  0.00    -0.248 NA
ATOM     11  C   UNL     1     -13.152  13.974  72.157  0.00  0.00    +0.098 A 
ATOM     12  C   UNL     1     -13.079  15.092  72.953  0.00  0.00    +0.021 A 
ATOM     13  C   UNL     1     -12.233  16.103  72.596  0.00  0.00    +0.003 A 
ATOM     14  C   UNL     1     -11.698  16.009  71.302  0.00  0.00    +0.015 A 
ENDBRANCH   1   9
BRANCH   1  15
ATOM     15  C   UNL     1     -10.568  16.476  69.304  0.00  0.00    +0.028 C 
BRANCH  15  16
ATOM     16  C   UNL     1     -10.535  17.330  68.173  0.00  0.00    +0.073 C 
BRANCH  16  18
ATOM     17  C   UNL     1      -9.763  19.442  68.624  0.00  0.00    +0.090 C 
ATOM     18  N   UNL     1     -10.485  18.688  68.096  0.00  0.00    -0.270 NA
ATOM     19  C   UNL     1     -10.508  18.963  66.648  0.00  0.00    +0.090 C 
ENDBRANCH  16  18
ENDBRANCH  15  16
ENDBRANCH   1  15
TORSDOF 5
ENDMDL
MODEL 2
REMARK VINA RESULT:      -5.7      1.682      4.634
REMARK  Name = 
REMARK  5 active torsions:
REMARK  status: ('A' for Active; 'I' for Inactive)
REMARK    1  A    between atoms: N_2  and  C_4
REMARK    2  A    between atoms: C_4  and  C_5
REMARK    3  A    between atoms: C_5  and  C_6
REMARK    4  A    between atoms: C_6  and  C_7
REMARK    5  A    between atoms: C_6  and  C_14
REMARK                            x       y       z     vdW  Elec       q    Type
REMARK                         _______ _______ _______ _____ _____    ______ ____
ROOT
ATOM      1  C   UNL     1     -10.070  16.000  68.712  0.00  0.00    +0.064 C 
ENDROOT
BRANCH   1   2
ATOM      2  C   UNL     1     -10.573  15.612  67.238  0.00  0.00    -0.017 A 
ATOM      3  C   UNL     1     -11.702  14.832  67.456  0.00  0.00    -0.003 A 
ATOM      4  C   UNL     1     -12.043  13.943  66.501  0.00  0.00    +0.006 A 
ATOM      5  C   UNL     1     -11.363  14.047  65.271  0.00  0.00    +0.035 A 
ATOM      6 BR   UNL     1     -11.929  12.868  63.867  0.00  0.00    -0.049 Br
ATOM      7  C   UNL     1     -10.506  15.118  65.039  0.00  0.00    +0.006 A 
ATOM      8  C   UNL     1      -9.944  15.803  66.117  0.00  0.00    -0.003 A 
ENDBRANCH   1   2
BRANCH   1   9
ATOM      9  C   UNL     1     -10.168  17.618  68.601  0.00  0.00    +0.063 A 
ATOM     10  N   UNL     1     -10.967  18.125  67.710  0.00  0.00    -0.248 NA
ATOM     11  C   UNL     1     -10.685  19.330  67.128  0.00  0.00    +0.098 A 
ATOM     12  C   UNL     1      -9.370  19.651  66.888  0.00  0.00    +0.021 A 
ATOM     13  C   UNL     1      -8.396  19.049  67.635  0.00  0.00    +0.003 A 
ATOM     14  C   UNL     1      -8.824  17.963  68.415  0.00  0.00    +0.015 A 
ENDBRANCH   1   9
BRANCH   1  15
ATOM     15  C   UNL     1     -11.587  15.896  69.348  0.00  0.00    +0.028 C 
BRANCH  15  16
ATOM     16  C   UNL     1     -11.338  16.033  70.737  0.00  0.00    +0.073 C 
BRANCH  16  18
ATOM     17  C   UNL     1     -12.213  16.139  72.854  0.00  0.00    +0.090 C 
ATOM     18  N   UNL     1     -12.079  15.635  71.807  0.00  0.00    -0.270 NA
ATOM     19  C   UNL     1     -13.404  15.340  71.232  0.00  0.00    +0.090 C 
ENDBRANCH  16  18
ENDBRANCH  15  16
ENDBRANCH   1  15
TORSDOF 5
ENDMDL
MODEL 3
REMARK VINA RESULT:      -5.5      3.004      5.947
REMARK  Name = 
REMARK  5 active torsions:
REMARK  status: ('A' for Active; 'I' for Inactive)
REMARK    1  A    between atoms: N_2  and  C_4
REMARK    2  A    between atoms: C_4  and  C_5
REMARK    3  A    between atoms: C_5  and  C_6
REMARK    4  A    between atoms: C_6  and  C_7
REMARK    5  A    between atoms: C_6  and  C_14
REMARK                            x       y       z     vdW  Elec       q    Type
REMARK                         _______ _______ _______ _____ _____    ______ ____
ROOT
ATOM      1  C   UNL     1     -11.064  16.789  68.354  0.00  0.00    +0.064 C 
ENDROOT
BRANCH   1   2
ATOM      2  C   UNL     1      -9.727  17.671  68.444  0.00  0.00    -0.017 A 
ATOM      3  C   UNL     1     -10.155  18.969  68.196  0.00  0.00    -0.003 A 
ATOM      4  C   UNL     1      -9.257  19.839  67.692  0.00  0.00    +0.006 A 
ATOM      5  C   UNL     1      -7.912  19.421  67.681  0.00  0.00    +0.035 A 
ATOM      6 BR   UNL     1      -6.613  20.700  67.082  0.00  0.00    -0.049 Br
ATOM      7  C   UNL     1      -7.547  18.233  68.307  0.00  0.00    +0.006 A 
ATOM      8  C   UNL     1      -8.503  17.238  68.516  0.00  0.00    -0.003 A 
ENDBRANCH   1   2
BRANCH   1   9
ATOM      9  C   UNL     1     -10.594  15.720  67.224  0.00  0.00    +0.063 A 
ATOM     10  N   UNL     1     -10.549  16.115  65.986  0.00  0.00    -0.248 NA
ATOM     11  C   UNL     1     -10.778  15.234  64.966  0.00  0.00    +0.098 A 
ATOM     12  C   UNL     1     -11.703  14.235  65.157  0.00  0.00    +0.021 A 
ATOM     13  C   UNL     1     -11.991  13.837  66.432  0.00  0.00    +0.003 A 
ATOM     14  C   UNL     1     -11.493  14.669  67.447  0.00  0.00    +0.015 A 
ENDBRANCH   1   9
BRANCH   1  15
ATOM     15  C   UNL     1     -10.588  15.789  69.575  0.00  0.00    +0.028 C 
BRANCH  15  16
ATOM     16  C   UNL     1     -11.323  16.294  70.677  0.00  0.00    +0.073 C 
BRANCH  16  18
ATOM     17  C   UNL     1     -13.184  14.978  70.934  0.00  0.00    +0.090 C 
ATOM     18  N   UNL     1     -12.444  15.814  71.282  0.00  0.00    -0.270 NA
ATOM     19  C   UNL     1     -12.011  15.540  72.665  0.00  0.00    +0.090 C 
ENDBRANCH  16  18
ENDBRANCH  15  16
ENDBRANCH   1  15
TORSDOF 5
ENDMDL
MODEL 4
REMARK VINA RESULT:      -5.4      2.794      4.496
REMARK  Name = 
REMARK  5 active torsions:
REMARK  status: ('A' for Active; 'I' for Inactive)
REMARK    1  A    between atoms: N_2  and  C_4
REMARK    2  A    between atoms: C_4  and  C_5
REMARK    3  A    between atoms: C_5  and  C_6
REMARK    4  A    between atoms: C_6  and  C_7
REMARK    5  A    between atoms: C_6  and  C_14
REMARK                            x       y       z     vdW  Elec       q    Type
REMARK                         _______ _______ _______ _____ _____    ______ ____
ROOT
ATOM      1  C   UNL     1     -10.944  14.574  69.530  0.00  0.00    +0.064 C 
ENDROOT
BRANCH   1   2
ATOM      2  C   UNL     1     -10.287  15.819  68.759  0.00  0.00    -0.017 A 
ATOM      3  C   UNL     1      -8.920  15.641  68.923  0.00  0.00    -0.003 A 
ATOM      4  C   UNL     1      -8.134  16.735  68.864  0.00  0.00    +0.006 A 
ATOM      5  C   UNL     1      -8.741  17.923  68.411  0.00  0.00    +0.035 A 
ATOM      6 BR   UNL     1      -7.601  19.454  68.205  0.00  0.00    -0.049 Br
ATOM      7  C   UNL     1     -10.040  17.895  67.913  0.00  0.00    +0.006 A 
ATOM      8  C   UNL     1     -10.901  16.861  68.282  0.00  0.00    -0.003 A 
ENDBRANCH   1   2
BRANCH   1   9
ATOM      9  C   UNL     1     -11.975  15.380  70.492  0.00  0.00    +0.063 A 
ATOM     10  N   UNL     1     -11.503  15.945  71.564  0.00  0.00    -0.248 NA
ATOM     11  C   UNL     1     -12.281  16.081  72.679  0.00  0.00    +0.098 A 
ATOM     12  C   UNL     1     -13.187  15.090  72.973  0.00  0.00    +0.021 A 
ATOM     13  C   UNL     1     -13.638  14.287  71.963  0.00  0.00    +0.003 A 
ATOM     14  C   UNL     1     -12.937  14.396  70.752  0.00  0.00    +0.015 A 
ENDBRANCH   1   9
BRANCH   1  15
ATOM     15  C   UNL     1     -12.101  14.361  68.376  0.00  0.00    +0.028 C 
BRANCH  15  16
ATOM     16  C   UNL     1     -11.525  13.356  67.559  0.00  0.00    +0.073 C 
BRANCH  16  18
ATOM     17  C   UNL     1     -12.472  13.450  65.473  0.00  0.00    +0.090 C 
ATOM     18  N   UNL     1     -11.622  13.149  66.218  0.00  0.00    -0.270 NA
ATOM     19  C   UNL     1     -10.324  13.612  65.692  0.00  0.00    +0.090 C 
ENDBRANCH  16  18
ENDBRANCH  15  16
ENDBRANCH   1  15
TORSDOF 5
ENDMDL
MODEL 5
REMARK VINA RESULT:      -5.2      2.610      4.719
REMARK  Name = 
REMARK  5 active torsions:
REMARK  status: ('A' for Active; 'I' for Inactive)
REMARK    1  A    between atoms: N_2  and  C_4
REMARK    2  A    between atoms: C_4  and  C_5
REMARK    3  A    between atoms: C_5  and  C_6
REMARK    4  A    between atoms: C_6  and  C_7
REMARK    5  A    between atoms: C_6  and  C_14
REMARK                            x       y       z     vdW  Elec       q    Type
REMARK                         _______ _______ _______ _____ _____    ______ ____
ROOT
ATOM      1  C   UNL     1     -10.014  15.172  67.673  0.00  0.00    +0.064 C 
ENDROOT
BRANCH   1   2
ATOM      2  C   UNL     1     -11.133  14.622  68.684  0.00  0.00    -0.017 A 
ATOM      3  C   UNL     1     -11.717  15.770  69.205  0.00  0.00    -0.003 A 
ATOM      4  C   UNL     1     -12.296  15.682  70.419  0.00  0.00    +0.006 A 
ATOM      5  C   UNL     1     -12.462  14.385  70.946  0.00  0.00    +0.035 A 
ATOM      6 BR   UNL     1     -13.397  14.242  72.616  0.00  0.00    -0.049 Br
ATOM      7  C   UNL     1     -12.174  13.273  70.160  0.00  0.00    +0.006 A 
ATOM      8  C   UNL     1     -11.301  13.396  69.079  0.00  0.00    -0.003 A 
ENDBRANCH   1   2
BRANCH   1   9
ATOM      9  C   UNL     1     -10.672  14.687  66.269  0.00  0.00    +0.063 A 
ATOM     10  N   UNL     1     -11.966  14.586  66.199  0.00  0.00    -0.248 NA
ATOM     11  C   UNL     1     -12.549  13.662  65.378  0.00  0.00    +0.098 A 
ATOM     12  C   UNL     1     -11.926  12.449  65.208  0.00  0.00    +0.021 A 
ATOM     13  C   UNL     1     -10.580  12.361  65.428  0.00  0.00    +0.003 A 
ATOM     14  C   UNL     1     -10.001  13.476  66.055  0.00  0.00    +0.015 A 
ENDBRANCH   1   9
BRANCH   1  15
ATOM     15  C   UNL     1     -10.726  16.654  67.558  0.00  0.00    +0.028 C 
BRANCH  15  16
ATOM     16  C   UNL     1      -9.663  17.459  67.078  0.00  0.00    +0.073 C 
BRANCH  16  18
ATOM     17  C   UNL     1     -10.419  19.351  66.024  0.00  0.00    +0.090 C 
ATOM     18  N   UNL     1      -9.665  18.467  66.163  0.00  0.00    -0.270 NA
ATOM     19  C   UNL     1      -8.291  19.000  66.218  0.00  0.00    +0.090 C 
ENDBRANCH  16  18
ENDBRANCH  15  16
ENDBRANCH   1  15
TORSDOF 5
ENDMDL
MODEL 6
REMARK VINA RESULT:      -5.2      3.057      4.782
REMARK  Name = 
REMARK  5 active torsions:
REMARK  status: ('A' for Active; 'I' for Inactive)
REMARK    1  A    between atoms: N_2  and  C_4
REMARK    2  A    between atoms: C_4  and  C_5
REMARK    3  A    between atoms: C_5  and  C_6
REMARK    4  A    between atoms: C_6  and  C_7
REMARK    5  A    between atoms: C_6  and  C_14
REMARK                            x       y       z     vdW  Elec       q    Type
REMARK                         _______ _______ _______ _____ _____    ______ ____
ROOT
ATOM      1  C   UNL     1      -9.259  16.202  67.271  0.00  0.00    +0.064 C 
ENDROOT
BRANCH   1   2
ATOM      2  C   UNL     1     -10.249  15.029  66.804  0.00  0.00    -0.017 A 
ATOM      3  C   UNL     1      -9.515  14.315  65.865  0.00  0.00    -0.003 A 
ATOM      4  C   UNL     1     -10.197  13.624  64.931  0.00  0.00    +0.006 A 
ATOM      5  C   UNL     1     -11.587  13.499  65.128  0.00  0.00    +0.035 A 
ATOM      6 BR   UNL     1     -12.546  12.412  63.870  0.00  0.00    -0.049 Br
ATOM      7  C   UNL     1     -12.163  13.943  66.315  0.00  0.00    +0.006 A 
ATOM      8  C   UNL     1     -11.513  14.910  67.082  0.00  0.00    -0.003 A 
ENDBRANCH   1   2
BRANCH   1   9
ATOM      9  C   UNL     1     -10.260  17.470  67.097  0.00  0.00    +0.063 A 
ATOM     10  N   UNL     1     -10.225  18.132  65.979  0.00  0.00    -0.248 NA
ATOM     11  C   UNL     1     -10.512  19.468  65.952  0.00  0.00    +0.098 A 
ATOM     12  C   UNL     1     -10.134  20.242  67.023  0.00  0.00    +0.021 A 
ATOM     13  C   UNL     1      -9.952  19.644  68.238  0.00  0.00    +0.003 A 
ATOM     14  C   UNL     1      -9.926  18.241  68.218  0.00  0.00    +0.015 A 
ENDBRANCH   1   9
BRANCH   1  15
ATOM     15  C   UNL     1      -9.666  16.029  68.859  0.00  0.00    +0.028 C 
BRANCH  15  16
ATOM     16  C   UNL     1      -8.610  15.221  69.351  0.00  0.00    +0.073 C 
BRANCH  16  18
ATOM     17  C   UNL     1      -6.416  15.830  69.626  0.00  0.00    +0.090 C 
ATOM     18  N   UNL     1      -7.277  15.255  69.081  0.00  0.00    -0.270 NA
ATOM     19  C   UNL     1      -6.905  13.835  68.943  0.00  0.00    +0.090 C 
ENDBRANCH  16  18
ENDBRANCH  15  16
ENDBRANCH   1  15
TORSDOF 5
ENDMDL
MODEL 7
REMARK VINA RESULT:      -5.1      2.183      4.547
REMARK  Name = 
REMARK  5 active torsions:
REMARK  status: ('A' for Active; 'I' for Inactive)
REMARK    1  A    between atoms: N_2  and  C_4
REMARK    2  A    between atoms: C_4  and  C_5
REMARK    3  A    between atoms: C_5  and  C_6
REMARK    4  A    between atoms: C_6  and  C_7
REMARK    5  A    between atoms: C_6  and  C_14
REMARK                            x       y       z     vdW  Elec       q    Type
REMARK                         _______ _______ _______ _____ _____    ______ ____
ROOT
ATOM      1  C   UNL     1     -10.854  14.369  68.938  0.00  0.00    +0.064 C 
ENDROOT
BRANCH   1   2
ATOM      2  C   UNL     1     -10.705  12.801  68.628  0.00  0.00    -0.017 A 
ATOM      3  C   UNL     1      -9.455  12.686  68.035  0.00  0.00    -0.003 A 
ATOM      4  C   UNL     1      -9.247  11.643  67.208  0.00  0.00    +0.006 A 
ATOM      5  C   UNL     1     -10.235  10.639  67.199  0.00  0.00    +0.035 A 
ATOM      6 BR   UNL     1      -9.888   9.091  66.118  0.00  0.00    -0.049 Br
ATOM      7  C   UNL     1     -11.276  10.679  68.122  0.00  0.00    +0.006 A 
ATOM      8  C   UNL     1     -11.630  11.892  68.715  0.00  0.00    -0.003 A 
ENDBRANCH   1   2
BRANCH   1   9
ATOM      9  C   UNL     1     -11.649  14.824  67.596  0.00  0.00    +0.063 A 
ATOM     10  N   UNL     1     -12.260  13.909  66.904  0.00  0.00    -0.248 NA
ATOM     11  C   UNL     1     -12.399  14.037  65.550  0.00  0.00    +0.098 A 
ATOM     12  C   UNL     1     -11.384  14.633  64.840  0.00  0.00    +0.021 A 
ATOM     13  C   UNL     1     -10.539  15.489  65.488  0.00  0.00    +0.003 A 
ATOM     14  C   UNL     1     -10.638  15.485  66.888  0.00  0.00    +0.015 A 
ENDBRANCH   1   9
BRANCH   1  15
ATOM     15  C   UNL     1     -12.263  14.157  69.768  0.00  0.00    +0.028 C 
BRANCH  15  16
ATOM     16  C   UNL     1     -12.464  15.436  70.345  0.00  0.00    +0.073 C 
BRANCH  16  18
ATOM     17  C   UNL     1     -14.063  15.273  71.981  0.00  0.00    +0.090 C 
ATOM     18  N   UNL     1     -13.160  15.800  71.456  0.00  0.00    -0.270 NA
ATOM     19  C   UNL     1     -12.112  16.086  72.454  0.00  0.00    +0.090 C 
ENDBRANCH  16  18
ENDBRANCH  15  16
ENDBRANCH   1  15
TORSDOF 5
ENDMDL
MODEL 8
REMARK VINA RESULT:      -5.1      3.650      6.711
REMARK  Name = 
REMARK  5 active torsions:
REMARK  status: ('A' for Active; 'I' for Inactive)
REMARK    1  A    between atoms: N_2  and  C_4
REMARK    2  A    between atoms: C_4  and  C_5
REMARK    3  A    between atoms: C_5  and  C_6
REMARK    4  A    between atoms: C_6  and  C_7
REMARK    5  A    between atoms: C_6  and  C_14
REMARK                            x       y       z     vdW  Elec       q    Type
REMARK                         _______ _______ _______ _____ _____    ______ ____
ROOT
ATOM      1  C   UNL     1     -11.936  14.149  66.657  0.00  0.00    +0.064 C 
ENDROOT
BRANCH   1   2
ATOM      2  C   UNL     1     -10.994  15.442  66.790  0.00  0.00    -0.017 A 
ATOM      3  C   UNL     1     -11.022  15.749  68.144  0.00  0.00    -0.003 A 
ATOM      4  C   UNL     1     -10.783  17.026  68.502  0.00  0.00    +0.006 A 
ATOM      5  C   UNL     1     -10.299  17.883  67.494  0.00  0.00    +0.035 A 
ATOM      6 BR   UNL     1      -9.839  19.670  68.024  0.00  0.00    -0.049 Br
ATOM      7  C   UNL     1      -9.951  17.367  66.250  0.00  0.00    +0.006 A 
ATOM      8  C   UNL     1     -10.500  16.157  65.824  0.00  0.00    -0.003 A 
ENDBRANCH   1   2
BRANCH   1   9
ATOM      9  C   UNL     1     -11.617  13.754  65.114  0.00  0.00    +0.063 A 
ATOM     10  N   UNL     1     -12.568  13.217  64.408  0.00  0.00    -0.248 NA
ATOM     11  C   UNL     1     -12.277  12.332  63.408  0.00  0.00    +0.098 A 
ATOM     12  C   UNL     1     -11.212  11.479  63.576  0.00  0.00    +0.021 A 
ATOM     13  C   UNL     1     -10.213  11.832  64.438  0.00  0.00    +0.003 A 
ATOM     14  C   UNL     1     -10.495  12.930  65.266  0.00  0.00    +0.015 A 
ENDBRANCH   1   9
BRANCH   1  15
ATOM     15  C   UNL     1     -10.764  13.134  67.217  0.00  0.00    +0.028 C 
BRANCH  15  16
ATOM     16  C   UNL     1     -11.467  12.372  68.183  0.00  0.00    +0.073 C 
BRANCH  16  18
ATOM     17  C   UNL     1     -11.157  10.132  67.796  0.00  0.00    +0.090 C 
ATOM     18  N   UNL     1     -11.762  11.044  68.213  0.00  0.00    -0.270 NA
ATOM     19  C   UNL     1     -12.120  10.790  69.620  0.00  0.00    +0.090 C 
ENDBRANCH  16  18
ENDBRANCH  15  16
ENDBRANCH   1  15
TORSDOF 5
ENDMDL
MODEL 9
REMARK VINA RESULT:      -5.1      2.941      5.367
REMARK  Name = 
REMARK  5 active torsions:
REMARK  status: ('A' for Active; 'I' for Inactive)
REMARK    1  A    between atoms: N_2  and  C_4
REMARK    2  A    between atoms: C_4  and  C_5
REMARK    3  A    between atoms: C_5  and  C_6
REMARK    4  A    between atoms: C_6  and  C_7
REMARK    5  A    between atoms: C_6  and  C_14
REMARK                            x       y       z     vdW  Elec       q    Type
REMARK                         _______ _______ _______ _____ _____    ______ ____
ROOT
ATOM      1  C   UNL     1     -10.454  13.007  67.317  0.00  0.00    +0.064 C 
ENDROOT
BRANCH   1   2
ATOM      2  C   UNL     1     -10.731  12.143  68.641  0.00  0.00    -0.017 A 
ATOM      3  C   UNL     1      -9.624  11.311  68.745  0.00  0.00    -0.003 A 
ATOM      4  C   UNL     1      -9.775  10.146  69.406  0.00  0.00    +0.006 A 
ATOM      5  C   UNL     1     -10.974   9.982  70.128  0.00  0.00    +0.035 A 
ATOM      6 BR   UNL     1     -11.144   8.380  71.171  0.00  0.00    -0.049 Br
ATOM      7  C   UNL     1     -11.860  11.048  70.257  0.00  0.00    +0.006 A 
ATOM      8  C   UNL     1     -11.834  12.087  69.326  0.00  0.00    -0.003 A 
ENDBRANCH   1   2
BRANCH   1   9
ATOM      9  C   UNL     1     -11.142  12.027  66.219  0.00  0.00    +0.063 A 
ATOM     10  N   UNL     1     -10.366  11.377  65.403  0.00  0.00    -0.248 NA
ATOM     11  C   UNL     1     -10.790  11.061  64.143  0.00  0.00    +0.098 A 
ATOM     12  C   UNL     1     -11.608  11.948  63.484  0.00  0.00    +0.021 A 
ATOM     13  C   UNL     1     -12.355  12.827  64.216  0.00  0.00    +0.003 A 
ATOM     14  C   UNL     1     -12.023  12.907  65.578  0.00  0.00    +0.015 A 
ENDBRANCH   1   9
BRANCH   1  15
ATOM     15  C   UNL     1     -11.843  13.877  67.492  0.00  0.00    +0.028 C 
BRANCH  15  16
ATOM     16  C   UNL     1     -11.349  15.160  67.836  0.00  0.00    +0.073 C 
BRANCH  16  18
ATOM     17  C   UNL     1     -12.078  15.763  69.926  0.00  0.00    +0.090 C 
ATOM     18  N   UNL     1     -11.714  16.003  68.840  0.00  0.00    -0.270 NA
ATOM     19  C   UNL     1     -10.615  16.984  68.897  0.00  0.00    +0.090 C 
ENDBRANCH  16  18
ENDBRANCH  15  16
ENDBRANCH   1  15
TORSDOF 5
ENDMDL
