MODEL 1
REMARK VINA RESULT:      -6.1      0.000      0.000
REMARK  Name = 
REMARK  6 active torsions:
REMARK  status: ('A' for Active; 'I' for Inactive)
REMARK    1  A    between atoms: C_2  and  N_4
REMARK    2  A    between atoms: C_11  and  O_12
REMARK    3  A    between atoms: O_12  and  C_13
REMARK    4  A    between atoms: C_13  and  C_15
REMARK    5  A    between atoms: C_15  and  C_16
REMARK    6  A    between atoms: C_15  and  C_18
REMARK                            x       y       z     vdW  Elec       q    Type
REMARK                         _______ _______ _______ _____ _____    ______ ____
ROOT
ATOM      1  N   UNL     1      -9.186  17.868  67.408  0.00  0.00    +0.289 N 
ATOM      2  C   UNL     1      -8.129  17.324  66.450  0.00  0.00    +0.062 C 
ATOM      3  C   UNL     1      -8.863  15.938  65.949  0.00  0.00    +0.099 C 
ATOM      4  C   UNL     1     -10.439  16.354  65.911  0.00  0.00    +0.180 C 
ATOM      5  C   UNL     1     -10.751  16.098  67.491  0.00  0.00    +0.099 C 
ATOM      6  C   UNL     1      -7.354  16.574  67.703  0.00  0.00    +0.061 C 
ATOM      7  C   UNL     1      -8.441  15.637  67.983  0.00  0.00    +0.061 C 
ATOM      8  C   UNL     1      -9.571  16.755  68.402  0.00  0.00    +0.062 C 
ATOM      9  C   UNL     1      -8.345  18.652  68.329  0.00  0.00    +0.170 C 
ENDROOT
BRANCH   1  11
ATOM     10  C   UNL     1     -10.446  19.318  67.989  0.00  0.00    +0.061 C 
ATOM     11  C   UNL     1     -10.207  18.615  67.033  0.00  0.00    +0.058 C 
ATOM     12  C   UNL     1     -10.321  19.397  65.838  0.00  0.00    +0.061 C 
ENDBRANCH   1  11
BRANCH   4  13
ATOM     13  O   UNL     1     -10.803  14.894  65.543  0.00  0.00    -0.452 OA
BRANCH  13  14
ATOM     14  C   UNL     1     -12.156  14.712  65.210  0.00  0.00    +0.323 C 
ATOM     15  O   UNL     1     -12.326  15.281  64.087  0.00  0.00    -0.250 OA
BRANCH  14  16
ATOM     16  C   UNL     1     -12.684  13.204  65.335  0.00  0.00    +0.154 C 
BRANCH  16  17
ATOM     17  C   UNL     1     -11.486  12.700  66.273  0.00  0.00    -0.009 A 
ATOM     18  C   UNL     1     -11.674  12.539  67.593  0.00  0.00    -0.004 A 
ATOM     19  C   UNL     1     -10.595  12.509  68.457  0.00  0.00    -0.000 A 
ATOM     20  C   UNL     1      -9.407  12.113  67.851  0.00  0.00    -0.000 A 
ATOM     21  C   UNL     1      -9.404  11.725  66.513  0.00  0.00    -0.000 A 
ATOM     22  C   UNL     1     -10.550  11.859  65.724  0.00  0.00    -0.004 A 
ENDBRANCH  16  17
BRANCH  16  23
ATOM     23  C   UNL     1     -11.921  12.726  63.955  0.00  0.00    +0.198 C 
ATOM     24  O   UNL     1     -12.865  12.093  63.184  0.00  0.00    -0.219 OA
ENDBRANCH  16  23
ENDBRANCH  14  16
ENDBRANCH  13  14
ENDBRANCH   4  13
TORSDOF 6
ENDMDL
MODEL 2
REMARK VINA RESULT:      -5.9      1.332      2.711
REMARK  Name = 
REMARK  6 active torsions:
REMARK  status: ('A' for Active; 'I' for Inactive)
REMARK    1  A    between atoms: C_2  and  N_4
REMARK    2  A    between atoms: C_11  and  O_12
REMARK    3  A    between atoms: O_12  and  C_13
REMARK    4  A    between atoms: C_13  and  C_15
REMARK    5  A    between atoms: C_15  and  C_16
REMARK    6  A    between atoms: C_15  and  C_18
REMARK                            x       y       z     vdW  Elec       q    Type
REMARK                         _______ _______ _______ _____ _____    ______ ____
ROOT
ATOM      1  N   UNL     1      -8.317  18.277  68.173  0.00  0.00    +0.289 N 
ATOM      2  C   UNL     1      -9.805  18.342  68.506  0.00  0.00    +0.062 C 
ATOM      3  C   UNL     1     -10.450  17.735  67.118  0.00  0.00    +0.099 C 
ATOM      4  C   UNL     1      -9.353  16.618  66.665  0.00  0.00    +0.180 C 
ATOM      5  C   UNL     1      -8.336  17.636  65.897  0.00  0.00    +0.099 C 
ATOM      6  C   UNL     1      -9.876  19.904  67.970  0.00  0.00    +0.061 C 
ATOM      7  C   UNL     1      -9.593  19.573  66.574  0.00  0.00    +0.061 C 
ATOM      8  C   UNL     1      -8.086  18.961  66.811  0.00  0.00    +0.062 C 
ATOM      9  C   UNL     1      -7.799  19.370  69.015  0.00  0.00    +0.170 C 
ENDROOT
BRANCH   1  11
ATOM     10  C   UNL     1      -6.472  17.646  68.644  0.00  0.00    +0.061 C 
ATOM     11  C   UNL     1      -7.565  17.210  68.360  0.00  0.00    +0.058 C 
ATOM     12  C   UNL     1      -7.849  16.081  69.195  0.00  0.00    +0.061 C 
ENDBRANCH   1  11
BRANCH   4  13
ATOM     13  O   UNL     1     -10.166  16.362  65.371  0.00  0.00    -0.452 OA
BRANCH  13  14
ATOM     14  C   UNL     1     -10.362  15.001  65.083  0.00  0.00    +0.323 C 
ATOM     15  O   UNL     1      -9.517  14.362  65.784  0.00  0.00    -0.250 OA
BRANCH  14  16
ATOM     16  C   UNL     1     -11.884  14.506  65.170  0.00  0.00    +0.154 C 
BRANCH  16  17
ATOM     17  C   UNL     1     -11.713  13.735  66.565  0.00  0.00    -0.009 A 
ATOM     18  C   UNL     1     -12.040  14.337  67.721  0.00  0.00    -0.004 A 
ATOM     19  C   UNL     1     -11.534  13.871  68.920  0.00  0.00    -0.000 A 
ATOM     20  C   UNL     1     -11.176  12.527  68.890  0.00  0.00    -0.000 A 
ATOM     21  C   UNL     1     -11.409  11.770  67.743  0.00  0.00    -0.000 A 
ATOM     22  C   UNL     1     -11.869  12.371  66.568  0.00  0.00    -0.004 A 
ENDBRANCH  16  17
BRANCH  16  23
ATOM     23  C   UNL     1     -11.588  13.148  64.283  0.00  0.00    +0.198 C 
ATOM     24  O   UNL     1     -12.465  13.171  63.227  0.00  0.00    -0.219 OA
ENDBRANCH  16  23
ENDBRANCH  14  16
ENDBRANCH  13  14
ENDBRANCH   4  13
TORSDOF 6
ENDMDL
MODEL 3
REMARK VINA RESULT:      -5.8      1.504      3.169
REMARK  Name = 
REMARK  6 active torsions:
REMARK  status: ('A' for Active; 'I' for Inactive)
REMARK    1  A    between atoms: C_2  and  N_4
REMARK    2  A    between atoms: C_11  and  O_12
REMARK    3  A    between atoms: O_12  and  C_13
REMARK    4  A    between atoms: C_13  and  C_15
REMARK    5  A    between atoms: C_15  and  C_16
REMARK    6  A    between atoms: C_15  and  C_18
REMARK                            x       y       z     vdW  Elec       q    Type
REMARK                         _______ _______ _______ _____ _____    ______ ____
ROOT
ATOM      1  N   UNL     1      -8.396  18.379  67.758  0.00  0.00    +0.289 N 
ATOM      2  C   UNL     1      -9.609  18.480  68.680  0.00  0.00    +0.062 C 
ATOM      3  C   UNL     1     -10.571  17.307  68.040  0.00  0.00    +0.099 C 
ATOM      4  C   UNL     1      -9.497  16.177  67.562  0.00  0.00    +0.180 C 
ATOM      5  C   UNL     1      -9.135  16.844  66.118  0.00  0.00    +0.099 C 
ATOM      6  C   UNL     1     -10.257  19.666  67.728  0.00  0.00    +0.061 C 
ATOM      7  C   UNL     1     -10.463  18.800  66.568  0.00  0.00    +0.061 C 
ATOM      8  C   UNL     1      -8.881  18.443  66.297  0.00  0.00    +0.062 C 
ATOM      9  C   UNL     1      -7.875  19.755  67.838  0.00  0.00    +0.170 C 
ENDROOT
BRANCH   1  11
ATOM     10  C   UNL     1      -6.456  18.044  67.371  0.00  0.00    +0.061 C 
ATOM     11  C   UNL     1      -7.396  17.540  67.944  0.00  0.00    +0.058 C 
ATOM     12  C   UNL     1      -6.943  16.986  69.186  0.00  0.00    +0.061 C 
ENDBRANCH   1  11
BRANCH   4  13
ATOM     13  O   UNL     1     -10.658  15.351  66.953  0.00  0.00    -0.452 OA
BRANCH  13  14
ATOM     14  C   UNL     1     -10.475  13.960  67.044  0.00  0.00    +0.323 C 
ATOM     15  O   UNL     1      -9.953  13.744  68.182  0.00  0.00    -0.250 OA
BRANCH  14  16
ATOM     16  C   UNL     1     -11.765  13.085  66.670  0.00  0.00    +0.154 C 
BRANCH  16  17
ATOM     17  C   UNL     1     -11.013  12.159  65.598  0.00  0.00    -0.009 A 
ATOM     18  C   UNL     1     -10.454  12.699  64.503  0.00  0.00    -0.004 A 
ATOM     19  C   UNL     1     -10.175  11.914  63.400  0.00  0.00    -0.000 A 
ATOM     20  C   UNL     1      -9.997  10.568  63.703  0.00  0.00    -0.000 A 
ATOM     21  C   UNL     1     -10.037  10.143  65.029  0.00  0.00    -0.000 A 
ATOM     22  C   UNL     1     -10.391  11.023  66.055  0.00  0.00    -0.004 A 
ENDBRANCH  16  17
BRANCH  16  23
ATOM     23  C   UNL     1     -12.269  14.154  65.522  0.00  0.00    +0.198 C 
ATOM     24  O   UNL     1     -13.624  13.968  65.382  0.00  0.00    -0.219 OA
ENDBRANCH  16  23
ENDBRANCH  14  16
ENDBRANCH  13  14
ENDBRANCH   4  13
TORSDOF 6
ENDMDL
MODEL 4
REMARK VINA RESULT:      -5.8      2.273      6.540
REMARK  Name = 
REMARK  6 active torsions:
REMARK  status: ('A' for Active; 'I' for Inactive)
REMARK    1  A    between atoms: C_2  and  N_4
REMARK    2  A    between atoms: C_11  and  O_12
REMARK    3  A    between atoms: O_12  and  C_13
REMARK    4  A    between atoms: C_13  and  C_15
REMARK    5  A    between atoms: C_15  and  C_16
REMARK    6  A    between atoms: C_15  and  C_18
REMARK                            x       y       z     vdW  Elec       q    Type
REMARK                         _______ _______ _______ _____ _____    ______ ____
ROOT
ATOM      1  N   UNL     1     -10.595  13.113  66.585  0.00  0.00    +0.289 N 
ATOM      2  C   UNL     1     -10.384  13.232  65.078  0.00  0.00    +0.062 C 
ATOM      3  C   UNL     1     -10.273  14.867  64.919  0.00  0.00    +0.099 C 
ATOM      4  C   UNL     1      -9.516  15.315  66.293  0.00  0.00    +0.180 C 
ATOM      5  C   UNL     1     -10.841  15.370  67.242  0.00  0.00    +0.099 C 
ATOM      6  C   UNL     1     -12.019  13.223  64.831  0.00  0.00    +0.061 C 
ATOM      7  C   UNL     1     -12.257  14.501  65.501  0.00  0.00    +0.061 C 
ATOM      8  C   UNL     1     -11.752  14.043  66.997  0.00  0.00    +0.062 C 
ATOM      9  C   UNL     1     -11.344  11.846  66.658  0.00  0.00    +0.170 C 
ENDROOT
BRANCH   1  11
ATOM     10  C   UNL     1     -10.072  12.473  68.414  0.00  0.00    +0.061 C 
ATOM     11  C   UNL     1      -9.614  13.071  67.466  0.00  0.00    +0.058 C 
ATOM     12  C   UNL     1      -8.266  12.640  67.248  0.00  0.00    +0.061 C 
ENDBRANCH   1  11
BRANCH   4  13
ATOM     13  O   UNL     1      -9.678  16.801  65.882  0.00  0.00    -0.452 OA
BRANCH  13  14
ATOM     14  C   UNL     1      -8.663  17.640  66.373  0.00  0.00    +0.323 C 
ATOM     15  O   UNL     1      -7.622  17.375  65.695  0.00  0.00    -0.250 OA
BRANCH  14  16
ATOM     16  C   UNL     1      -9.066  19.186  66.492  0.00  0.00    +0.154 C 
BRANCH  16  17
ATOM     17  C   UNL     1      -7.810  19.602  67.397  0.00  0.00    -0.009 A 
ATOM     18  C   UNL     1      -7.151  20.749  67.164  0.00  0.00    -0.004 A 
ATOM     19  C   UNL     1      -5.864  20.925  67.638  0.00  0.00    -0.000 A 
ATOM     20  C   UNL     1      -5.566  20.143  68.750  0.00  0.00    -0.000 A 
ATOM     21  C   UNL     1      -6.552  19.339  69.318  0.00  0.00    -0.000 A 
ATOM     22  C   UNL     1      -7.801  19.196  68.709  0.00  0.00    -0.004 A 
ENDBRANCH  16  17
BRANCH  16  23
ATOM     23  C   UNL     1     -10.034  18.927  67.800  0.00  0.00    +0.198 C 
ATOM     24  O   UNL     1     -11.296  19.337  67.441  0.00  0.00    -0.219 OA
ENDBRANCH  16  23
ENDBRANCH  14  16
ENDBRANCH  13  14
ENDBRANCH   4  13
TORSDOF 6
ENDMDL
MODEL 5
REMARK VINA RESULT:      -5.6      2.212      6.144
REMARK  Name = 
REMARK  6 active torsions:
REMARK  status: ('A' for Active; 'I' for Inactive)
REMARK    1  A    between atoms: C_2  and  N_4
REMARK    2  A    between atoms: C_11  and  O_12
REMARK    3  A    between atoms: O_12  and  C_13
REMARK    4  A    between atoms: C_13  and  C_15
REMARK    5  A    between atoms: C_15  and  C_16
REMARK    6  A    between atoms: C_15  and  C_18
REMARK                            x       y       z     vdW  Elec       q    Type
REMARK                         _______ _______ _______ _____ _____    ______ ____
ROOT
ATOM      1  N   UNL     1     -10.769  12.434  65.906  0.00  0.00    +0.289 N 
ATOM      2  C   UNL     1     -11.955  12.702  66.828  0.00  0.00    +0.062 C 
ATOM      3  C   UNL     1     -11.673  14.273  67.231  0.00  0.00    +0.099 C 
ATOM      4  C   UNL     1     -11.030  14.889  65.864  0.00  0.00    +0.180 C 
ATOM      5  C   UNL     1      -9.494  14.412  66.134  0.00  0.00    +0.099 C 
ATOM      6  C   UNL     1     -11.107  12.118  68.120  0.00  0.00    +0.061 C 
ATOM      7  C   UNL     1     -10.108  13.185  68.111  0.00  0.00    +0.061 C 
ATOM      8  C   UNL     1      -9.476  12.860  66.629  0.00  0.00    +0.062 C 
ATOM      9  C   UNL     1     -10.605  10.980  66.084  0.00  0.00    +0.170 C 
ENDROOT
BRANCH   1  11
ATOM     10  C   UNL     1      -9.993  11.900  64.134  0.00  0.00    +0.061 C 
ATOM     11  C   UNL     1     -10.762  12.701  64.614  0.00  0.00    +0.058 C 
ATOM     12  C   UNL     1     -11.895  12.839  63.748  0.00  0.00    +0.061 C 
ENDBRANCH   1  11
BRANCH   4  13
ATOM     13  O   UNL     1     -10.801  16.236  66.595  0.00  0.00    -0.452 OA
BRANCH  13  14
ATOM     14  C   UNL     1     -10.307  17.257  65.764  0.00  0.00    +0.323 C 
ATOM     15  O   UNL     1     -11.027  17.244  64.718  0.00  0.00    -0.250 OA
BRANCH  14  16
ATOM     16  C   UNL     1     -10.113  18.676  66.483  0.00  0.00    +0.154 C 
BRANCH  16  17
ATOM     17  C   UNL     1      -8.511  18.653  66.434  0.00  0.00    -0.009 A 
ATOM     18  C   UNL     1      -7.852  17.507  66.195  0.00  0.00    -0.004 A 
ATOM     19  C   UNL     1      -6.521  17.379  66.546  0.00  0.00    -0.000 A 
ATOM     20  C   UNL     1      -5.842  18.592  66.617  0.00  0.00    -0.000 A 
ATOM     21  C   UNL     1      -6.496  19.774  66.277  0.00  0.00    -0.000 A 
ATOM     22  C   UNL     1      -7.865  19.784  65.998  0.00  0.00    -0.004 A 
ENDBRANCH  16  17
BRANCH  16  23
ATOM     23  C   UNL     1     -10.164  18.020  67.994  0.00  0.00    +0.198 C 
ATOM     24  O   UNL     1      -9.781  19.012  68.864  0.00  0.00    -0.219 OA
ENDBRANCH  16  23
ENDBRANCH  14  16
ENDBRANCH  13  14
ENDBRANCH   4  13
TORSDOF 6
ENDMDL
MODEL 6
REMARK VINA RESULT:      -5.6      1.349      2.845
REMARK  Name = 
REMARK  6 active torsions:
REMARK  status: ('A' for Active; 'I' for Inactive)
REMARK    1  A    between atoms: C_2  and  N_4
REMARK    2  A    between atoms: C_11  and  O_12
REMARK    3  A    between atoms: O_12  and  C_13
REMARK    4  A    between atoms: C_13  and  C_15
REMARK    5  A    between atoms: C_15  and  C_16
REMARK    6  A    between atoms: C_15  and  C_18
REMARK                            x       y       z     vdW  Elec       q    Type
REMARK                         _______ _______ _______ _____ _____    ______ ____
ROOT
ATOM      1  N   UNL     1      -8.255  18.340  67.834  0.00  0.00    +0.289 N 
ATOM      2  C   UNL     1      -9.491  18.611  68.688  0.00  0.00    +0.062 C 
ATOM      3  C   UNL     1     -10.598  17.659  67.925  0.00  0.00    +0.099 C 
ATOM      4  C   UNL     1      -9.707  16.380  67.445  0.00  0.00    +0.180 C 
ATOM      5  C   UNL     1      -9.137  17.041  66.066  0.00  0.00    +0.099 C 
ATOM      6  C   UNL     1      -9.857  19.937  67.771  0.00  0.00    +0.061 C 
ATOM      7  C   UNL     1     -10.131  19.178  66.552  0.00  0.00    +0.061 C 
ATOM      8  C   UNL     1      -8.621  18.559  66.353  0.00  0.00    +0.062 C 
ATOM      9  C   UNL     1      -7.509  19.596  68.025  0.00  0.00    +0.170 C 
ENDROOT
BRANCH   1  11
ATOM     10  C   UNL     1      -6.375  17.694  67.563  0.00  0.00    +0.061 C 
ATOM     11  C   UNL     1      -7.431  17.329  68.028  0.00  0.00    +0.058 C 
ATOM     12  C   UNL     1      -7.185  16.630  69.255  0.00  0.00    +0.061 C 
ENDBRANCH   1  11
BRANCH   4  13
ATOM     13  O   UNL     1     -10.951  15.803  66.721  0.00  0.00    -0.452 OA
BRANCH  13  14
ATOM     14  C   UNL     1     -11.222  14.462  67.041  0.00  0.00    +0.323 C 
ATOM     15  O   UNL     1     -11.486  14.438  68.283  0.00  0.00    -0.250 OA
BRANCH  14  16
ATOM     16  C   UNL     1     -12.274  13.738  66.072  0.00  0.00    +0.154 C 
BRANCH  16  17
ATOM     17  C   UNL     1     -11.419  12.394  65.896  0.00  0.00    -0.009 A 
ATOM     18  C   UNL     1     -11.361  11.488  66.887  0.00  0.00    -0.004 A 
ATOM     19  C   UNL     1     -10.340  10.557  66.925  0.00  0.00    -0.000 A 
ATOM     20  C   UNL     1      -9.781  10.290  65.680  0.00  0.00    -0.000 A 
ATOM     21  C   UNL     1     -10.308  10.890  64.538  0.00  0.00    -0.000 A 
ATOM     22  C   UNL     1     -11.304  11.866  64.634  0.00  0.00    -0.004 A 
ENDBRANCH  16  17
BRANCH  16  23
ATOM     23  C   UNL     1     -11.636  14.425  64.717  0.00  0.00    +0.198 C 
ATOM     24  O   UNL     1     -12.694  14.917  63.991  0.00  0.00    -0.219 OA
ENDBRANCH  16  23
ENDBRANCH  14  16
ENDBRANCH  13  14
ENDBRANCH   4  13
TORSDOF 6
ENDMDL
MODEL 7
REMARK VINA RESULT:      -5.6      2.098      3.739
REMARK  Name = 
REMARK  6 active torsions:
REMARK  status: ('A' for Active; 'I' for Inactive)
REMARK    1  A    between atoms: C_2  and  N_4
REMARK    2  A    between atoms: C_11  and  O_12
REMARK    3  A    between atoms: O_12  and  C_13
REMARK    4  A    between atoms: C_13  and  C_15
REMARK    5  A    between atoms: C_15  and  C_16
REMARK    6  A    between atoms: C_15  and  C_18
REMARK                            x       y       z     vdW  Elec       q    Type
REMARK                         _______ _______ _______ _____ _____    ______ ____
ROOT
ATOM      1  N   UNL     1      -8.186  19.031  67.679  0.00  0.00    +0.289 N 
ATOM      2  C   UNL     1      -9.269  19.259  68.731  0.00  0.00    +0.062 C 
ATOM      3  C   UNL     1     -10.137  17.868  68.572  0.00  0.00    +0.099 C 
ATOM      4  C   UNL     1      -8.991  16.761  68.226  0.00  0.00    +0.180 C 
ATOM      5  C   UNL     1      -8.915  17.046  66.622  0.00  0.00    +0.099 C 
ATOM      6  C   UNL     1     -10.193  20.074  67.629  0.00  0.00    +0.061 C 
ATOM      7  C   UNL     1     -10.428  18.912  66.774  0.00  0.00    +0.061 C 
ATOM      8  C   UNL     1      -8.862  18.651  66.348  0.00  0.00    +0.062 C 
ATOM      9  C   UNL     1      -7.852  20.422  67.324  0.00  0.00    +0.170 C 
ENDROOT
BRANCH   1  11
ATOM     10  C   UNL     1      -6.285  18.796  67.080  0.00  0.00    +0.061 C 
ATOM     11  C   UNL     1      -7.064  18.376  67.906  0.00  0.00    +0.058 C 
ATOM     12  C   UNL     1      -6.381  18.224  69.156  0.00  0.00    +0.061 C 
ENDBRANCH   1  11
BRANCH   4  13
ATOM     13  O   UNL     1     -10.097  15.692  68.042  0.00  0.00    -0.452 OA
BRANCH  13  14
ATOM     14  C   UNL     1      -9.610  14.375  67.979  0.00  0.00    +0.323 C 
ATOM     15  O   UNL     1      -8.603  14.330  68.753  0.00  0.00    -0.250 OA
BRANCH  14  16
ATOM     16  C   UNL     1     -10.719  13.236  68.179  0.00  0.00    +0.154 C 
BRANCH  16  17
ATOM     17  C   UNL     1     -11.121  13.141  66.630  0.00  0.00    -0.009 A 
ATOM     18  C   UNL     1     -12.250  13.715  66.182  0.00  0.00    -0.004 A 
ATOM     19  C   UNL     1     -12.812  13.313  64.985  0.00  0.00    -0.000 A 
ATOM     20  C   UNL     1     -11.899  12.747  64.101  0.00  0.00    -0.000 A 
ATOM     21  C   UNL     1     -10.547  12.697  64.435  0.00  0.00    -0.000 A 
ATOM     22  C   UNL     1     -10.107  13.079  65.706  0.00  0.00    -0.004 A 
ENDBRANCH  16  17
BRANCH  16  23
ATOM     23  C   UNL     1     -11.909  14.326  68.512  0.00  0.00    +0.198 C 
ATOM     24  O   UNL     1     -12.354  14.044  69.780  0.00  0.00    -0.219 OA
ENDBRANCH  16  23
ENDBRANCH  14  16
ENDBRANCH  13  14
ENDBRANCH   4  13
TORSDOF 6
ENDMDL
MODEL 8
REMARK VINA RESULT:      -5.5      2.161      4.274
REMARK  Name = 
REMARK  6 active torsions:
REMARK  status: ('A' for Active; 'I' for Inactive)
REMARK    1  A    between atoms: C_2  and  N_4
REMARK    2  A    between atoms: C_11  and  O_12
REMARK    3  A    between atoms: O_12  and  C_13
REMARK    4  A    between atoms: C_13  and  C_15
REMARK    5  A    between atoms: C_15  and  C_16
REMARK    6  A    between atoms: C_15  and  C_18
REMARK                            x       y       z     vdW  Elec       q    Type
REMARK                         _______ _______ _______ _____ _____    ______ ____
ROOT
ATOM      1  N   UNL     1      -6.049  18.613  68.001  0.00  0.00    +0.289 N 
ATOM      2  C   UNL     1      -7.135  19.530  68.558  0.00  0.00    +0.062 C 
ATOM      3  C   UNL     1      -8.325  19.296  67.444  0.00  0.00    +0.099 C 
ATOM      4  C   UNL     1      -8.145  17.725  67.044  0.00  0.00    +0.180 C 
ATOM      5  C   UNL     1      -6.971  17.935  65.932  0.00  0.00    +0.099 C 
ATOM      6  C   UNL     1      -6.492  20.816  67.743  0.00  0.00    +0.061 C 
ATOM      7  C   UNL     1      -6.786  20.286  66.413  0.00  0.00    +0.061 C 
ATOM      8  C   UNL     1      -5.835  18.949  66.512  0.00  0.00    +0.062 C 
ATOM      9  C   UNL     1      -4.838  19.279  68.513  0.00  0.00    +0.170 C 
ENDROOT
BRANCH   1  11
ATOM     10  C   UNL     1      -4.791  17.055  68.130  0.00  0.00    +0.061 C 
ATOM     11  C   UNL     1      -5.963  17.324  68.267  0.00  0.00    +0.058 C 
ATOM     12  C   UNL     1      -6.468  16.637  69.418  0.00  0.00    +0.061 C 
ENDBRANCH   1  11
BRANCH   4  13
ATOM     13  O   UNL     1      -9.261  17.883  65.979  0.00  0.00    -0.452 OA
BRANCH  13  14
ATOM     14  C   UNL     1     -10.309  16.957  66.114  0.00  0.00    +0.323 C 
ATOM     15  O   UNL     1     -10.711  16.700  64.936  0.00  0.00    -0.250 OA
BRANCH  14  16
ATOM     16  C   UNL     1      -9.981  15.697  67.048  0.00  0.00    +0.154 C 
BRANCH  16  17
ATOM     17  C   UNL     1     -10.728  14.622  66.123  0.00  0.00    -0.009 A 
ATOM     18  C   UNL     1     -10.024  13.707  65.436  0.00  0.00    -0.004 A 
ATOM     19  C   UNL     1     -10.587  13.061  64.351  0.00  0.00    -0.000 A 
ATOM     20  C   UNL     1     -11.977  13.013  64.389  0.00  0.00    -0.000 A 
ATOM     21  C   UNL     1     -12.660  13.523  65.491  0.00  0.00    -0.000 A 
ATOM     22  C   UNL     1     -11.982  14.211  66.501  0.00  0.00    -0.004 A 
ENDBRANCH  16  17
BRANCH  16  23
ATOM     23  C   UNL     1     -11.309  15.937  67.994  0.00  0.00    +0.198 C 
ATOM     24  O   UNL     1     -11.094  17.107  68.682  0.00  0.00    -0.219 OA
ENDBRANCH  16  23
ENDBRANCH  14  16
ENDBRANCH  13  14
ENDBRANCH   4  13
TORSDOF 6
ENDMDL
MODEL 9
REMARK VINA RESULT:      -5.5      2.155      3.855
REMARK  Name = 
REMARK  6 active torsions:
REMARK  status: ('A' for Active; 'I' for Inactive)
REMARK    1  A    between atoms: C_2  and  N_4
REMARK    2  A    between atoms: C_11  and  O_12
REMARK    3  A    between atoms: O_12  and  C_13
REMARK    4  A    between atoms: C_13  and  C_15
REMARK    5  A    between atoms: C_15  and  C_16
REMARK    6  A    between atoms: C_15  and  C_18
REMARK                            x       y       z     vdW  Elec       q    Type
REMARK                         _______ _______ _______ _____ _____    ______ ____
ROOT
ATOM      1  N   UNL     1      -6.022  18.970  67.922  0.00  0.00    +0.289 N 
ATOM      2  C   UNL     1      -7.446  19.458  68.179  0.00  0.00    +0.062 C 
ATOM      3  C   UNL     1      -8.267  18.599  67.039  0.00  0.00    +0.099 C 
ATOM      4  C   UNL     1      -7.454  17.186  66.993  0.00  0.00    +0.180 C 
ATOM      5  C   UNL     1      -6.279  17.664  65.968  0.00  0.00    +0.099 C 
ATOM      6  C   UNL     1      -7.206  20.747  67.173  0.00  0.00    +0.061 C 
ATOM      7  C   UNL     1      -7.063  19.940  65.963  0.00  0.00    +0.061 C 
ATOM      8  C   UNL     1      -5.712  19.123  66.421  0.00  0.00    +0.062 C 
ATOM      9  C   UNL     1      -5.246  20.133  68.388  0.00  0.00    +0.170 C 
ENDROOT
BRANCH   1  11
ATOM     10  C   UNL     1      -4.312  18.075  68.471  0.00  0.00    +0.061 C 
ATOM     11  C   UNL     1      -5.507  17.881  68.458  0.00  0.00    +0.058 C 
ATOM     12  C   UNL     1      -5.891  17.249  69.685  0.00  0.00    +0.061 C 
ENDBRANCH   1  11
BRANCH   4  13
ATOM     13  O   UNL     1      -8.360  16.718  65.826  0.00  0.00    -0.452 OA
BRANCH  13  14
ATOM     14  C   UNL     1      -9.146  15.594  66.132  0.00  0.00    +0.323 C 
ATOM     15  O   UNL     1      -8.550  14.988  67.077  0.00  0.00    -0.250 OA
BRANCH  14  16
ATOM     16  C   UNL     1     -10.704  15.900  66.350  0.00  0.00    +0.154 C 
BRANCH  16  17
ATOM     17  C   UNL     1     -11.097  14.401  66.763  0.00  0.00    -0.009 A 
ATOM     18  C   UNL     1     -11.757  14.160  67.908  0.00  0.00    -0.004 A 
ATOM     19  C   UNL     1     -11.743  12.898  68.472  0.00  0.00    -0.000 A 
ATOM     20  C   UNL     1     -11.509  11.879  67.554  0.00  0.00    -0.000 A 
ATOM     21  C   UNL     1     -11.387  12.179  66.199  0.00  0.00    -0.000 A 
ATOM     22  C   UNL     1     -11.356  13.504  65.756  0.00  0.00    -0.004 A 
ENDBRANCH  16  17
BRANCH  16  23
ATOM     23  C   UNL     1     -11.068  15.650  64.762  0.00  0.00    +0.198 C 
ATOM     24  O   UNL     1     -11.371  16.881  64.232  0.00  0.00    -0.219 OA
ENDBRANCH  16  23
ENDBRANCH  14  16
ENDBRANCH  13  14
ENDBRANCH   4  13
TORSDOF 6
ENDMDL
