MODEL 1
REMARK VINA RESULT:      -6.9      0.000      0.000
REMARK  Name = 
REMARK  9 active torsions:
REMARK  status: ('A' for Active; 'I' for Inactive)
REMARK    1  A    between atoms: C_2  and  C_3
REMARK    2  A    between atoms: C_3  and  C_4
REMARK    3  A    between atoms: C_4  and  N_5
REMARK    4  A    between atoms: C_4  and  C_22
REMARK    5  A    between atoms: N_5  and  CA_6
REMARK    6  A    between atoms: CA_6  and  C_8
REMARK    7  A    between atoms: C_11  and  C_12
REMARK    8  A    between atoms: C_22  and  O_24
REMARK    9  A    between atoms: O_24  and  C_25
REMARK                            x       y       z     vdW  Elec       q    Type
REMARK                         _______ _______ _______ _____ _____    ______ ____
ROOT
ATOM      1  C   ALA A   1     -11.021  14.608  68.532  0.00  0.00    +0.242 C 
ATOM      2  N   UNK A   2     -11.214  14.608  67.117  0.00  0.00    -0.272 N 
ATOM      3  C   UNK A   2     -11.576  13.157  66.677  0.00  0.00    +0.076 C 
ATOM      4  C   UNK A   2     -10.104  12.878  65.873  0.00  0.00    +0.020 C 
ATOM      5  C   UNK A   2     -10.679  11.807  64.812  0.00  0.00    +0.002 C 
ATOM      6  C   UNK A   2     -11.529  12.424  63.793  0.00  0.00    +0.000 C 
ATOM      7  C   UNK A   2     -12.845  12.585  64.560  0.00  0.00    +0.002 C 
ATOM      8  C   UNK A   2     -10.298  14.194  64.960  0.00  0.00    +0.033 C 
ATOM      9  C   UNK A   2     -12.451  13.728  65.426  0.00  0.00    +0.020 C 
ATOM     10  C   UNK A   2      -9.903  14.985  66.344  0.00  0.00    +0.179 C 
ATOM     11  O   ALA A   1      -9.869  14.697  69.061  0.00  0.00    -0.273 OA
ENDROOT
BRANCH  10  12
ATOM     12  C   UNK A   2     -10.486  16.388  65.783  0.00  0.00    +0.382 C 
ATOM     13  O   UNK A   2      -9.600  17.472  65.875  0.00  0.00    -0.244 OA
ATOM     14  O   UNK A   2     -10.793  16.169  64.568  0.00  0.00    -0.244 OA
ENDBRANCH  10  12
BRANCH   1  15
ATOM     15  CA  ALA A   1     -12.118  15.373  69.432  0.00  0.00    +0.149 C 
ATOM     16  CB  ALA A   1     -10.950  16.355  70.056  0.00  0.00    +0.029 C 
BRANCH  15  17
ATOM     17  N   ALA A   1     -12.063  14.334  70.611  0.00  0.00    -0.201 NA
BRANCH  17  18
ATOM     18  C   UNK A   0     -13.583  14.111  70.951  0.00  0.00    +0.172 C 
BRANCH  18  19
ATOM     19  C   UNK A   0     -13.587  15.126  72.200  0.00  0.00    +0.333 C 
ATOM     20  O   UNK A   0     -14.639  15.831  72.097  0.00  0.00    -0.249 OA
BRANCH  19  21
ATOM     21  O   UNK A   0     -13.307  14.704  73.447  0.00  0.00    -0.448 OA
BRANCH  21  22
ATOM     22  C   UNK A   0     -12.241  15.227  74.237  0.00  0.00    +0.209 C 
ATOM     23  C   UNK A   0     -12.402  16.658  74.618  0.00  0.00    +0.051 C 
ENDBRANCH  21  22
ENDBRANCH  19  21
ENDBRANCH  18  19
BRANCH  18  24
ATOM     24  C   UNK A   0     -13.320  12.798  71.911  0.00  0.00    +0.029 C 
BRANCH  24  26
ATOM     25  C   UNK A   0     -12.667  10.664  71.082  0.00  0.00    +0.000 C 
ATOM     26  C   UNK A   0     -12.477  11.969  70.944  0.00  0.00    +0.002 C 
ENDBRANCH  24  26
ENDBRANCH  18  24
ENDBRANCH  17  18
ENDBRANCH  15  17
ENDBRANCH   1  15
TORSDOF 9
ENDMDL
MODEL 2
REMARK VINA RESULT:      -6.7      1.269      2.839
REMARK  Name = 
REMARK  9 active torsions:
REMARK  status: ('A' for Active; 'I' for Inactive)
REMARK    1  A    between atoms: C_2  and  C_3
REMARK    2  A    between atoms: C_3  and  C_4
REMARK    3  A    between atoms: C_4  and  N_5
REMARK    4  A    between atoms: C_4  and  C_22
REMARK    5  A    between atoms: N_5  and  CA_6
REMARK    6  A    between atoms: CA_6  and  C_8
REMARK    7  A    between atoms: C_11  and  C_12
REMARK    8  A    between atoms: C_22  and  O_24
REMARK    9  A    between atoms: O_24  and  C_25
REMARK                            x       y       z     vdW  Elec       q    Type
REMARK                         _______ _______ _______ _____ _____    ______ ____
ROOT
ATOM      1  C   ALA A   1     -10.850  14.922  68.430  0.00  0.00    +0.242 C 
ATOM      2  N   UNK A   2     -11.171  14.874  67.039  0.00  0.00    -0.272 N 
ATOM      3  C   UNK A   2     -11.464  13.391  66.661  0.00  0.00    +0.076 C 
ATOM      4  C   UNK A   2     -10.055  13.198  65.727  0.00  0.00    +0.020 C 
ATOM      5  C   UNK A   2     -10.646  12.064  64.744  0.00  0.00    +0.002 C 
ATOM      6  C   UNK A   2     -11.628  12.593  63.798  0.00  0.00    +0.000 C 
ATOM      7  C   UNK A   2     -12.877  12.678  64.681  0.00  0.00    +0.002 C 
ATOM      8  C   UNK A   2     -10.429  14.475  64.813  0.00  0.00    +0.033 C 
ATOM      9  C   UNK A   2     -12.490  13.867  65.487  0.00  0.00    +0.020 C 
ATOM     10  C   UNK A   2      -9.968  15.326  66.141  0.00  0.00    +0.179 C 
ATOM     11  O   ALA A   1      -9.663  15.107  68.848  0.00  0.00    -0.273 OA
ENDROOT
BRANCH  10  12
ATOM     12  C   UNK A   2     -10.701  16.669  65.612  0.00  0.00    +0.382 C 
ATOM     13  O   UNK A   2      -9.977  17.854  65.815  0.00  0.00    -0.244 OA
ATOM     14  O   UNK A   2     -10.903  16.482  64.370  0.00  0.00    -0.244 OA
ENDBRANCH  10  12
BRANCH   1  15
ATOM     15  CA  ALA A   1     -11.913  15.629  69.415  0.00  0.00    +0.149 C 
ATOM     16  CB  ALA A   1     -10.836  15.557  70.661  0.00  0.00    +0.029 C 
BRANCH  15  17
ATOM     17  N   ALA A   1     -12.646  14.291  69.792  0.00  0.00    -0.201 NA
BRANCH  17  18
ATOM     18  C   UNK A   0     -12.423  14.196  71.346  0.00  0.00    +0.172 C 
BRANCH  18  19
ATOM     19  C   UNK A   0     -12.512  12.590  71.393  0.00  0.00    +0.333 C 
ATOM     20  O   UNK A   0     -13.503  12.297  72.133  0.00  0.00    -0.249 OA
BRANCH  19  21
ATOM     21  O   UNK A   0     -12.403  11.849  70.274  0.00  0.00    -0.448 OA
BRANCH  21  22
ATOM     22  C   UNK A   0     -11.576  10.692  70.170  0.00  0.00    +0.209 C 
ATOM     23  C   UNK A   0     -11.061  10.423  68.799  0.00  0.00    +0.051 C 
ENDBRANCH  21  22
ENDBRANCH  19  21
ENDBRANCH  18  19
BRANCH  18  24
ATOM     24  C   UNK A   0     -14.016  14.380  71.728  0.00  0.00    +0.029 C 
BRANCH  24  26
ATOM     25  C   UNK A   0     -12.988  15.530  73.541  0.00  0.00    +0.000 C 
ATOM     26  C   UNK A   0     -13.904  15.637  72.588  0.00  0.00    +0.002 C 
ENDBRANCH  24  26
ENDBRANCH  18  24
ENDBRANCH  17  18
ENDBRANCH  15  17
ENDBRANCH   1  15
TORSDOF 9
ENDMDL
MODEL 3
REMARK VINA RESULT:      -6.6      2.386      4.898
REMARK  Name = 
REMARK  9 active torsions:
REMARK  status: ('A' for Active; 'I' for Inactive)
REMARK    1  A    between atoms: C_2  and  C_3
REMARK    2  A    between atoms: C_3  and  C_4
REMARK    3  A    between atoms: C_4  and  N_5
REMARK    4  A    between atoms: C_4  and  C_22
REMARK    5  A    between atoms: N_5  and  CA_6
REMARK    6  A    between atoms: CA_6  and  C_8
REMARK    7  A    between atoms: C_11  and  C_12
REMARK    8  A    between atoms: C_22  and  O_24
REMARK    9  A    between atoms: O_24  and  C_25
REMARK                            x       y       z     vdW  Elec       q    Type
REMARK                         _______ _______ _______ _____ _____    ______ ____
ROOT
ATOM      1  C   ALA A   1     -11.170  16.240  69.062  0.00  0.00    +0.242 C 
ATOM      2  N   UNK A   2     -10.100  16.830  68.322  0.00  0.00    -0.272 N 
ATOM      3  C   UNK A   2      -9.918  18.295  68.818  0.00  0.00    +0.076 C 
ATOM      4  C   UNK A   2     -10.501  19.006  67.387  0.00  0.00    +0.020 C 
ATOM      5  C   UNK A   2      -9.663  20.379  67.514  0.00  0.00    +0.002 C 
ATOM      6  C   UNK A   2      -8.234  20.192  67.261  0.00  0.00    +0.000 C 
ATOM      7  C   UNK A   2      -7.767  19.617  68.601  0.00  0.00    +0.002 C 
ATOM      8  C   UNK A   2      -9.431  18.196  66.492  0.00  0.00    +0.033 C 
ATOM      9  C   UNK A   2      -8.330  18.248  68.455  0.00  0.00    +0.020 C 
ATOM     10  C   UNK A   2     -10.425  16.922  66.791  0.00  0.00    +0.179 C 
ATOM     11  O   ALA A   1     -12.313  16.023  68.549  0.00  0.00    -0.273 OA
ENDROOT
BRANCH  10  12
ATOM     12  C   UNK A   2      -9.289  15.853  66.356  0.00  0.00    +0.382 C 
ATOM     13  O   UNK A   2      -9.759  14.774  65.591  0.00  0.00    -0.244 OA
ATOM     14  O   UNK A   2      -8.427  16.518  65.697  0.00  0.00    -0.244 OA
ENDBRANCH  10  12
BRANCH   1  15
ATOM     15  CA  ALA A   1     -10.794  15.080  70.116  0.00  0.00    +0.149 C 
ATOM     16  CB  ALA A   1     -10.822  13.951  68.915  0.00  0.00    +0.029 C 
BRANCH  15  17
ATOM     17  N   ALA A   1     -12.279  14.832  70.568  0.00  0.00    -0.201 NA
BRANCH  17  18
ATOM     18  C   UNK A   0     -12.139  14.598  72.117  0.00  0.00    +0.172 C 
BRANCH  18  19
ATOM     19  C   UNK A   0     -13.080  13.293  72.137  0.00  0.00    +0.333 C 
ATOM     20  O   UNK A   0     -14.266  13.696  72.352  0.00  0.00    -0.249 OA
BRANCH  19  21
ATOM     21  O   UNK A   0     -12.969  12.335  71.197  0.00  0.00    -0.448 OA
BRANCH  21  22
ATOM     22  C   UNK A   0     -12.993  10.938  71.486  0.00  0.00    +0.209 C 
ATOM     23  C   UNK A   0     -11.826  10.180  70.955  0.00  0.00    +0.051 C 
ENDBRANCH  21  22
ENDBRANCH  19  21
ENDBRANCH  18  19
BRANCH  18  24
ATOM     24  C   UNK A   0     -13.381  15.602  72.524  0.00  0.00    +0.029 C 
BRANCH  24  26
ATOM     25  C   UNK A   0     -12.436  15.686  74.708  0.00  0.00    +0.000 C 
ATOM     26  C   UNK A   0     -12.680  16.404  73.619  0.00  0.00    +0.002 C 
ENDBRANCH  24  26
ENDBRANCH  18  24
ENDBRANCH  17  18
ENDBRANCH  15  17
ENDBRANCH   1  15
TORSDOF 9
ENDMDL
MODEL 4
REMARK VINA RESULT:      -6.5      1.627      2.191
REMARK  Name = 
REMARK  9 active torsions:
REMARK  status: ('A' for Active; 'I' for Inactive)
REMARK    1  A    between atoms: C_2  and  C_3
REMARK    2  A    between atoms: C_3  and  C_4
REMARK    3  A    between atoms: C_4  and  N_5
REMARK    4  A    between atoms: C_4  and  C_22
REMARK    5  A    between atoms: N_5  and  CA_6
REMARK    6  A    between atoms: CA_6  and  C_8
REMARK    7  A    between atoms: C_11  and  C_12
REMARK    8  A    between atoms: C_22  and  O_24
REMARK    9  A    between atoms: O_24  and  C_25
REMARK                            x       y       z     vdW  Elec       q    Type
REMARK                         _______ _______ _______ _____ _____    ______ ____
ROOT
ATOM      1  C   ALA A   1     -10.563  15.051  67.596  0.00  0.00    +0.242 C 
ATOM      2  N   UNK A   2     -11.035  13.857  66.969  0.00  0.00    -0.272 N 
ATOM      3  C   UNK A   2     -10.231  12.656  67.550  0.00  0.00    +0.076 C 
ATOM      4  C   UNK A   2      -9.368  12.352  66.116  0.00  0.00    +0.020 C 
ATOM      5  C   UNK A   2      -9.140  10.776  66.374  0.00  0.00    +0.002 C 
ATOM      6  C   UNK A   2     -10.369   9.996  66.221  0.00  0.00    +0.000 C 
ATOM      7  C   UNK A   2     -11.059  10.260  67.563  0.00  0.00    +0.002 C 
ATOM      8  C   UNK A   2     -10.734  12.223  65.265  0.00  0.00    +0.033 C 
ATOM      9  C   UNK A   2     -11.496  11.659  67.307  0.00  0.00    +0.020 C 
ATOM     10  C   UNK A   2     -10.767  13.858  65.424  0.00  0.00    +0.179 C 
ATOM     11  O   ALA A   1      -9.833  15.895  66.987  0.00  0.00    -0.273 OA
ENDROOT
BRANCH  10  12
ATOM     12  C   UNK A   2     -12.334  13.928  65.024  0.00  0.00    +0.382 C 
ATOM     13  O   UNK A   2     -12.659  14.922  64.088  0.00  0.00    -0.244 OA
ATOM     14  O   UNK A   2     -12.621  12.777  64.564  0.00  0.00    -0.244 OA
ENDBRANCH  10  12
BRANCH   1  15
ATOM     15  CA  ALA A   1     -11.562  15.800  68.617  0.00  0.00    +0.149 C 
ATOM     16  CB  ALA A   1     -10.345  16.796  69.109  0.00  0.00    +0.029 C 
BRANCH  15  17
ATOM     17  N   ALA A   1     -11.361  14.758  69.777  0.00  0.00    -0.201 NA
BRANCH  17  18
ATOM     18  C   UNK A   0     -12.837  14.388  70.175  0.00  0.00    +0.172 C 
BRANCH  18  19
ATOM     19  C   UNK A   0     -13.017  15.633  71.179  0.00  0.00    +0.333 C 
ATOM     20  O   UNK A   0     -14.233  15.636  71.547  0.00  0.00    -0.249 OA
BRANCH  19  21
ATOM     21  O   UNK A   0     -12.128  15.877  72.160  0.00  0.00    -0.448 OA
BRANCH  21  22
ATOM     22  C   UNK A   0     -12.485  16.399  73.438  0.00  0.00    +0.209 C 
ATOM     23  C   UNK A   0     -12.385  15.419  74.554  0.00  0.00    +0.051 C 
ENDBRANCH  21  22
ENDBRANCH  19  21
ENDBRANCH  18  19
BRANCH  18  24
ATOM     24  C   UNK A   0     -12.402  13.363  71.389  0.00  0.00    +0.029 C 
BRANCH  24  26
ATOM     25  C   UNK A   0     -12.752  11.009  71.297  0.00  0.00    +0.000 C 
ATOM     26  C   UNK A   0     -12.362  12.062  70.590  0.00  0.00    +0.002 C 
ENDBRANCH  24  26
ENDBRANCH  18  24
ENDBRANCH  17  18
ENDBRANCH  15  17
ENDBRANCH   1  15
TORSDOF 9
ENDMDL
MODEL 5
REMARK VINA RESULT:      -6.4      3.359      6.227
REMARK  Name = 
REMARK  9 active torsions:
REMARK  status: ('A' for Active; 'I' for Inactive)
REMARK    1  A    between atoms: C_2  and  C_3
REMARK    2  A    between atoms: C_3  and  C_4
REMARK    3  A    between atoms: C_4  and  N_5
REMARK    4  A    between atoms: C_4  and  C_22
REMARK    5  A    between atoms: N_5  and  CA_6
REMARK    6  A    between atoms: CA_6  and  C_8
REMARK    7  A    between atoms: C_11  and  C_12
REMARK    8  A    between atoms: C_22  and  O_24
REMARK    9  A    between atoms: O_24  and  C_25
REMARK                            x       y       z     vdW  Elec       q    Type
REMARK                         _______ _______ _______ _____ _____    ______ ____
ROOT
ATOM      1  C   ALA A   1     -10.050  15.301  66.959  0.00  0.00    +0.242 C 
ATOM      2  N   UNK A   2     -10.435  13.994  66.527  0.00  0.00    -0.272 N 
ATOM      3  C   UNK A   2     -10.470  13.990  64.970  0.00  0.00    +0.076 C 
ATOM      4  C   UNK A   2     -12.164  13.868  64.864  0.00  0.00    +0.020 C 
ATOM      5  C   UNK A   2     -12.201  13.116  63.437  0.00  0.00    +0.002 C 
ATOM      6  C   UNK A   2     -11.750  11.727  63.520  0.00  0.00    +0.000 C 
ATOM      7  C   UNK A   2     -10.229  11.907  63.545  0.00  0.00    +0.002 C 
ATOM      8  C   UNK A   2     -12.175  12.548  65.791  0.00  0.00    +0.033 C 
ATOM      9  C   UNK A   2     -10.095  12.404  64.941  0.00  0.00    +0.020 C 
ATOM     10  C   UNK A   2     -11.882  13.621  67.000  0.00  0.00    +0.179 C 
ATOM     11  O   ALA A   1     -10.877  16.117  67.476  0.00  0.00    -0.273 OA
ENDROOT
BRANCH  10  12
ATOM     12  C   UNK A   2     -11.390  12.450  68.004  0.00  0.00    +0.382 C 
ATOM     13  O   UNK A   2     -11.541  12.743  69.369  0.00  0.00    -0.244 OA
ATOM     14  O   UNK A   2     -12.074  11.423  67.694  0.00  0.00    -0.244 OA
ENDBRANCH  10  12
BRANCH   1  15
ATOM     15  CA  ALA A   1      -8.597  15.462  67.637  0.00  0.00    +0.149 C 
ATOM     16  CB  ALA A   1      -9.157  16.680  68.596  0.00  0.00    +0.029 C 
BRANCH  15  17
ATOM     17  N   ALA A   1      -8.040  16.416  66.519  0.00  0.00    -0.201 NA
BRANCH  17  18
ATOM     18  C   UNK A   0      -7.527  17.656  67.340  0.00  0.00    +0.172 C 
BRANCH  18  19
ATOM     19  C   UNK A   0      -7.966  18.737  66.231  0.00  0.00    +0.333 C 
ATOM     20  O   UNK A   0      -7.054  18.748  65.346  0.00  0.00    -0.249 OA
BRANCH  19  21
ATOM     21  O   UNK A   0      -9.223  18.777  65.750  0.00  0.00    -0.448 OA
BRANCH  21  22
ATOM     22  C   UNK A   0     -10.288  19.486  66.381  0.00  0.00    +0.209 C 
ATOM     23  C   UNK A   0      -9.867  20.337  67.528  0.00  0.00    +0.051 C 
ENDBRANCH  21  22
ENDBRANCH  19  21
ENDBRANCH  18  19
BRANCH  18  24
ATOM     24  C   UNK A   0      -5.983  17.574  66.771  0.00  0.00    +0.029 C 
BRANCH  24  26
ATOM     25  C   UNK A   0      -5.748  18.048  69.092  0.00  0.00    +0.000 C 
ATOM     26  C   UNK A   0      -5.262  17.322  68.094  0.00  0.00    +0.002 C 
ENDBRANCH  24  26
ENDBRANCH  18  24
ENDBRANCH  17  18
ENDBRANCH  15  17
ENDBRANCH   1  15
TORSDOF 9
ENDMDL
MODEL 6
REMARK VINA RESULT:      -6.2      3.145      5.992
REMARK  Name = 
REMARK  9 active torsions:
REMARK  status: ('A' for Active; 'I' for Inactive)
REMARK    1  A    between atoms: C_2  and  C_3
REMARK    2  A    between atoms: C_3  and  C_4
REMARK    3  A    between atoms: C_4  and  N_5
REMARK    4  A    between atoms: C_4  and  C_22
REMARK    5  A    between atoms: N_5  and  CA_6
REMARK    6  A    between atoms: CA_6  and  C_8
REMARK    7  A    between atoms: C_11  and  C_12
REMARK    8  A    between atoms: C_22  and  O_24
REMARK    9  A    between atoms: O_24  and  C_25
REMARK                            x       y       z     vdW  Elec       q    Type
REMARK                         _______ _______ _______ _____ _____    ______ ____
ROOT
ATOM      1  C   ALA A   1     -10.401  15.495  67.238  0.00  0.00    +0.242 C 
ATOM      2  N   UNK A   2     -10.637  14.172  66.753  0.00  0.00    -0.272 N 
ATOM      3  C   UNK A   2     -10.633  14.220  65.195  0.00  0.00    +0.076 C 
ATOM      4  C   UNK A   2     -12.302  13.929  65.037  0.00  0.00    +0.020 C 
ATOM      5  C   UNK A   2     -12.225  13.229  63.586  0.00  0.00    +0.002 C 
ATOM      6  C   UNK A   2     -11.635  11.891  63.636  0.00  0.00    +0.000 C 
ATOM      7  C   UNK A   2     -10.142  12.226  63.710  0.00  0.00    +0.002 C 
ATOM      8  C   UNK A   2     -12.199  12.582  65.919  0.00  0.00    +0.033 C 
ATOM      9  C   UNK A   2     -10.094  12.684  65.124  0.00  0.00    +0.020 C 
ATOM     10  C   UNK A   2     -12.049  13.635  67.171  0.00  0.00    +0.179 C 
ATOM     11  O   ALA A   1     -11.320  16.202  67.758  0.00  0.00    -0.273 OA
ENDROOT
BRANCH  10  12
ATOM     12  C   UNK A   2     -11.462  12.485  68.149  0.00  0.00    +0.382 C 
ATOM     13  O   UNK A   2     -11.787  12.646  69.506  0.00  0.00    -0.244 OA
ATOM     14  O   UNK A   2     -11.933  11.388  67.709  0.00  0.00    -0.244 OA
ENDBRANCH  10  12
BRANCH   1  15
ATOM     15  CA  ALA A   1      -8.989  15.780  67.962  0.00  0.00    +0.149 C 
ATOM     16  CB  ALA A   1      -9.603  15.269  69.404  0.00  0.00    +0.029 C 
BRANCH  15  17
ATOM     17  N   ALA A   1      -9.285  17.302  68.222  0.00  0.00    -0.201 NA
BRANCH  17  18
ATOM     18  C   UNK A   0      -8.390  18.021  67.148  0.00  0.00    +0.172 C 
BRANCH  18  19
ATOM     19  C   UNK A   0      -7.057  17.994  68.050  0.00  0.00    +0.333 C 
ATOM     20  O   UNK A   0      -6.070  18.010  67.250  0.00  0.00    -0.249 OA
BRANCH  19  21
ATOM     21  O   UNK A   0      -6.925  18.790  69.129  0.00  0.00    -0.448 OA
BRANCH  21  22
ATOM     22  C   UNK A   0      -5.666  19.222  69.642  0.00  0.00    +0.209 C 
ATOM     23  C   UNK A   0      -5.510  20.700  69.726  0.00  0.00    +0.051 C 
ENDBRANCH  21  22
ENDBRANCH  19  21
ENDBRANCH  18  19
BRANCH  18  24
ATOM     24  C   UNK A   0      -8.787  19.546  67.631  0.00  0.00    +0.029 C 
BRANCH  24  26
ATOM     25  C   UNK A   0     -10.490  19.691  65.973  0.00  0.00    +0.000 C 
ATOM     26  C   UNK A   0     -10.271  19.522  67.271  0.00  0.00    +0.002 C 
ENDBRANCH  24  26
ENDBRANCH  18  24
ENDBRANCH  17  18
ENDBRANCH  15  17
ENDBRANCH   1  15
TORSDOF 9
ENDMDL
MODEL 7
REMARK VINA RESULT:      -6.1      3.853      6.394
REMARK  Name = 
REMARK  9 active torsions:
REMARK  status: ('A' for Active; 'I' for Inactive)
REMARK    1  A    between atoms: C_2  and  C_3
REMARK    2  A    between atoms: C_3  and  C_4
REMARK    3  A    between atoms: C_4  and  N_5
REMARK    4  A    between atoms: C_4  and  C_22
REMARK    5  A    between atoms: N_5  and  CA_6
REMARK    6  A    between atoms: CA_6  and  C_8
REMARK    7  A    between atoms: C_11  and  C_12
REMARK    8  A    between atoms: C_22  and  O_24
REMARK    9  A    between atoms: O_24  and  C_25
REMARK                            x       y       z     vdW  Elec       q    Type
REMARK                         _______ _______ _______ _____ _____    ______ ____
ROOT
ATOM      1  C   ALA A   1      -9.813  14.877  66.743  0.00  0.00    +0.242 C 
ATOM      2  N   UNK A   2     -10.711  13.769  66.827  0.00  0.00    -0.272 N 
ATOM      3  C   UNK A   2     -10.076  12.702  67.769  0.00  0.00    +0.076 C 
ATOM      4  C   UNK A   2      -9.762  11.582  66.528  0.00  0.00    +0.020 C 
ATOM      5  C   UNK A   2      -9.842  10.262  67.453  0.00  0.00    +0.002 C 
ATOM      6  C   UNK A   2     -11.209   9.952  67.875  0.00  0.00    +0.000 C 
ATOM      7  C   UNK A   2     -11.398  10.944  69.027  0.00  0.00    +0.002 C 
ATOM      8  C   UNK A   2     -11.306  11.596  66.060  0.00  0.00    +0.033 C 
ATOM      9  C   UNK A   2     -11.553  12.183  68.220  0.00  0.00    +0.020 C 
ATOM     10  C   UNK A   2     -10.911  13.066  65.441  0.00  0.00    +0.179 C 
ATOM     11  O   ALA A   1      -9.115  15.109  65.706  0.00  0.00    -0.273 OA
ENDROOT
BRANCH  10  12
ATOM     12  C   UNK A   2     -12.465  13.496  65.303  0.00  0.00    +0.382 C 
ATOM     13  O   UNK A   2     -12.698  14.600  64.467  0.00  0.00    -0.244 OA
ATOM     14  O   UNK A   2     -13.067  12.468  64.856  0.00  0.00    -0.244 OA
ENDBRANCH  10  12
BRANCH   1  15
ATOM     15  CA  ALA A   1     -10.270  16.258  67.437  0.00  0.00    +0.149 C 
ATOM     16  CB  ALA A   1     -10.375  16.988  65.963  0.00  0.00    +0.029 C 
BRANCH  15  17
ATOM     17  N   ALA A   1      -8.803  16.747  67.724  0.00  0.00    -0.201 NA
BRANCH  17  18
ATOM     18  C   UNK A   0      -8.775  18.175  67.065  0.00  0.00    +0.172 C 
BRANCH  18  19
ATOM     19  C   UNK A   0      -7.200  18.135  66.736  0.00  0.00    +0.333 C 
ATOM     20  O   UNK A   0      -7.087  18.148  65.470  0.00  0.00    -0.249 OA
BRANCH  19  21
ATOM     21  O   UNK A   0      -6.327  18.924  67.391  0.00  0.00    -0.448 OA
BRANCH  21  22
ATOM     22  C   UNK A   0      -5.502  19.893  66.747  0.00  0.00    +0.209 C 
ATOM     23  C   UNK A   0      -5.930  21.304  66.956  0.00  0.00    +0.051 C 
ENDBRANCH  21  22
ENDBRANCH  19  21
ENDBRANCH  18  19
BRANCH  18  24
ATOM     24  C   UNK A   0      -8.544  18.980  68.484  0.00  0.00    +0.029 C 
BRANCH  24  26
ATOM     25  C   UNK A   0     -10.006  20.445  67.307  0.00  0.00    +0.000 C 
ATOM     26  C   UNK A   0      -9.807  19.839  68.470  0.00  0.00    +0.002 C 
ENDBRANCH  24  26
ENDBRANCH  18  24
ENDBRANCH  17  18
ENDBRANCH  15  17
ENDBRANCH   1  15
TORSDOF 9
ENDMDL
MODEL 8
REMARK VINA RESULT:      -6.0      2.895      6.040
REMARK  Name = 
REMARK  9 active torsions:
REMARK  status: ('A' for Active; 'I' for Inactive)
REMARK    1  A    between atoms: C_2  and  C_3
REMARK    2  A    between atoms: C_3  and  C_4
REMARK    3  A    between atoms: C_4  and  N_5
REMARK    4  A    between atoms: C_4  and  C_22
REMARK    5  A    between atoms: N_5  and  CA_6
REMARK    6  A    between atoms: CA_6  and  C_8
REMARK    7  A    between atoms: C_11  and  C_12
REMARK    8  A    between atoms: C_22  and  O_24
REMARK    9  A    between atoms: O_24  and  C_25
REMARK                            x       y       z     vdW  Elec       q    Type
REMARK                         _______ _______ _______ _____ _____    ______ ____
ROOT
ATOM      1  C   ALA A   1      -9.111  15.159  66.356  0.00  0.00    +0.242 C 
ATOM      2  N   UNK A   2      -9.791  16.244  66.989  0.00  0.00    -0.272 N 
ATOM      3  C   UNK A   2      -9.195  17.575  66.438  0.00  0.00    +0.076 C 
ATOM      4  C   UNK A   2      -8.421  17.999  67.892  0.00  0.00    +0.020 C 
ATOM      5  C   UNK A   2      -8.461  19.595  67.658  0.00  0.00    +0.002 C 
ATOM      6  C   UNK A   2      -9.808  20.151  67.798  0.00  0.00    +0.000 C 
ATOM      7  C   UNK A   2     -10.420  19.793  66.440  0.00  0.00    +0.002 C 
ATOM      8  C   UNK A   2      -9.801  17.878  68.719  0.00  0.00    +0.033 C 
ATOM      9  C   UNK A   2     -10.616  18.337  66.670  0.00  0.00    +0.020 C 
ATOM     10  C   UNK A   2      -9.552  16.265  68.538  0.00  0.00    +0.179 C 
ATOM     11  O   ALA A   1      -8.257  14.442  66.967  0.00  0.00    -0.273 OA
ENDROOT
BRANCH  10  12
ATOM     12  C   UNK A   2     -11.090  15.922  68.908  0.00  0.00    +0.382 C 
ATOM     13  O   UNK A   2     -11.302  14.625  69.401  0.00  0.00    -0.244 OA
ATOM     14  O   UNK A   2     -11.434  16.786  69.776  0.00  0.00    -0.244 OA
ENDBRANCH  10  12
BRANCH   1  15
ATOM     15  CA  ALA A   1      -9.951  14.267  65.307  0.00  0.00    +0.149 C 
ATOM     16  CB  ALA A   1     -11.368  14.770  65.982  0.00  0.00    +0.029 C 
BRANCH  15  17
ATOM     17  N   ALA A   1      -9.857  12.948  66.158  0.00  0.00    -0.201 NA
BRANCH  17  18
ATOM     18  C   UNK A   0     -11.233  12.245  65.867  0.00  0.00    +0.172 C 
BRANCH  18  19
ATOM     19  C   UNK A   0     -11.087  11.174  67.059  0.00  0.00    +0.333 C 
ATOM     20  O   UNK A   0      -9.869  11.190  67.422  0.00  0.00    -0.249 OA
BRANCH  19  21
ATOM     21  O   UNK A   0     -11.978  11.121  68.067  0.00  0.00    -0.448 OA
BRANCH  21  22
ATOM     22  C   UNK A   0     -11.626  11.266  69.441  0.00  0.00    +0.209 C 
ATOM     23  C   UNK A   0     -12.541  10.572  70.389  0.00  0.00    +0.051 C 
ENDBRANCH  21  22
ENDBRANCH  19  21
ENDBRANCH  18  19
BRANCH  18  24
ATOM     24  C   UNK A   0     -10.625  11.205  64.743  0.00  0.00    +0.029 C 
BRANCH  24  26
ATOM     25  C   UNK A   0     -12.486  12.014  63.499  0.00  0.00    +0.000 C 
ATOM     26  C   UNK A   0     -11.166  11.881  63.485  0.00  0.00    +0.002 C 
ENDBRANCH  24  26
ENDBRANCH  18  24
ENDBRANCH  17  18
ENDBRANCH  15  17
ENDBRANCH   1  15
TORSDOF 9
ENDMDL
MODEL 9
REMARK VINA RESULT:      -6.0      3.295      6.041
REMARK  Name = 
REMARK  9 active torsions:
REMARK  status: ('A' for Active; 'I' for Inactive)
REMARK    1  A    between atoms: C_2  and  C_3
REMARK    2  A    between atoms: C_3  and  C_4
REMARK    3  A    between atoms: C_4  and  N_5
REMARK    4  A    between atoms: C_4  and  C_22
REMARK    5  A    between atoms: N_5  and  CA_6
REMARK    6  A    between atoms: CA_6  and  C_8
REMARK    7  A    between atoms: C_11  and  C_12
REMARK    8  A    between atoms: C_22  and  O_24
REMARK    9  A    between atoms: O_24  and  C_25
REMARK                            x       y       z     vdW  Elec       q    Type
REMARK                         _______ _______ _______ _____ _____    ______ ____
ROOT
ATOM      1  C   ALA A   1     -10.298  15.456  67.100  0.00  0.00    +0.242 C 
ATOM      2  N   UNK A   2     -10.591  14.134  66.643  0.00  0.00    -0.272 N 
ATOM      3  C   UNK A   2     -10.576  14.148  65.085  0.00  0.00    +0.076 C 
ATOM      4  C   UNK A   2     -12.255  13.928  64.923  0.00  0.00    +0.020 C 
ATOM      5  C   UNK A   2     -12.203  13.193  63.487  0.00  0.00    +0.002 C 
ATOM      6  C   UNK A   2     -11.673  11.832  63.570  0.00  0.00    +0.000 C 
ATOM      7  C   UNK A   2     -10.167  12.101  63.646  0.00  0.00    +0.002 C 
ATOM      8  C   UNK A   2     -12.218  12.597  65.835  0.00  0.00    +0.033 C 
ATOM      9  C   UNK A   2     -10.107  12.588  65.051  0.00  0.00    +0.020 C 
ATOM     10  C   UNK A   2     -12.027  13.670  67.064  0.00  0.00    +0.179 C 
ATOM     11  O   ALA A   1     -11.188  16.215  67.599  0.00  0.00    -0.273 OA
ENDROOT
BRANCH  10  12
ATOM     12  C   UNK A   2     -11.498  12.518  68.071  0.00  0.00    +0.382 C 
ATOM     13  O   UNK A   2     -11.819  12.725  69.422  0.00  0.00    -0.244 OA
ATOM     14  O   UNK A   2     -12.018  11.434  67.655  0.00  0.00    -0.244 OA
ENDBRANCH  10  12
BRANCH   1  15
ATOM     15  CA  ALA A   1      -8.879  15.694  67.827  0.00  0.00    +0.149 C 
ATOM     16  CB  ALA A   1      -9.543  15.322  69.289  0.00  0.00    +0.029 C 
BRANCH  15  17
ATOM     17  N   ALA A   1      -9.075  17.247  67.982  0.00  0.00    -0.201 NA
BRANCH  17  18
ATOM     18  C   UNK A   0      -7.610  17.800  67.832  0.00  0.00    +0.172 C 
BRANCH  18  19
ATOM     19  C   UNK A   0      -7.946  19.233  68.485  0.00  0.00    +0.333 C 
ATOM     20  O   UNK A   0      -9.198  19.257  68.697  0.00  0.00    -0.249 OA
BRANCH  19  21
ATOM     21  O   UNK A   0      -7.193  19.744  69.478  0.00  0.00    -0.448 OA
BRANCH  21  22
ATOM     22  C   UNK A   0      -5.773  19.621  69.536  0.00  0.00    +0.209 C 
ATOM     23  C   UNK A   0      -5.033  20.872  69.214  0.00  0.00    +0.051 C 
ENDBRANCH  21  22
ENDBRANCH  19  21
ENDBRANCH  18  19
BRANCH  18  24
ATOM     24  C   UNK A   0      -7.826  18.356  66.296  0.00  0.00    +0.029 C 
BRANCH  24  26
ATOM     25  C   UNK A   0      -5.607  17.496  66.233  0.00  0.00    +0.000 C 
ATOM     26  C   UNK A   0      -6.361  18.539  65.908  0.00  0.00    +0.002 C 
ENDBRANCH  24  26
ENDBRANCH  18  24
ENDBRANCH  17  18
ENDBRANCH  15  17
ENDBRANCH   1  15
TORSDOF 9
ENDMDL
