MODEL 1
REMARK VINA RESULT:      -6.8      0.000      0.000
REMARK  Name = 
REMARK  7 active torsions:
REMARK  status: ('A' for Active; 'I' for Inactive)
REMARK    1  A    between atoms: C_6  and  N_7
REMARK    2  A    between atoms: C_8  and  C_10
REMARK    3  A    between atoms: C_10  and  N_11
REMARK    4  A    between atoms: N_11  and  C_12
REMARK    5  A    between atoms: N_11  and  C_16
REMARK    6  A    between atoms: C_12  and  C_13
REMARK    7  A    between atoms: C_16  and  C_17
REMARK                            x       y       z     vdW  Elec       q    Type
REMARK                         _______ _______ _______ _____ _____    ______ ____
ROOT
ATOM      1  N   UNL     1     -11.048  14.448  68.166  0.00  0.00    -0.179 NA
ATOM      2  C   UNL     1      -9.844  13.919  67.647  0.00  0.00    +0.262 C 
ATOM      3  O   UNL     1      -8.795  14.098  68.318  0.00  0.00    -0.271 OA
ENDROOT
BRANCH   1  10
ATOM      4  C   UNL     1     -12.447  15.476  73.509  0.00  0.00    +0.032 C 
ATOM      5  C   UNL     1     -12.272  15.306  72.037  0.00  0.00    -0.016 A 
ATOM      6  C   UNL     1     -12.562  14.095  71.441  0.00  0.00    +0.028 A 
ATOM      7 BR   UNL     1     -13.802  12.902  72.281  0.00  0.00    -0.050 Br
ATOM      8  C   UNL     1     -12.010  13.748  70.219  0.00  0.00    -0.001 A 
ATOM      9  C   UNL     1     -11.872  12.301  69.864  0.00  0.00    +0.033 C 
ATOM     10  C   UNL     1     -11.236  14.700  69.563  0.00  0.00    +0.066 A 
ATOM     11  C   UNL     1     -11.363  16.040  69.910  0.00  0.00    -0.007 A 
ATOM     12  C   UNL     1     -10.498  16.988  69.148  0.00  0.00    +0.032 C 
ATOM     13  C   UNL     1     -11.665  16.275  71.246  0.00  0.00    -0.007 A 
ENDBRANCH   1  10
BRANCH   2  14
ATOM     14  C   UNL     1      -9.785  13.200  66.339  0.00  0.00    +0.161 C 
BRANCH  14  15
ATOM     15  N   UNL     1     -10.550  13.928  65.366  0.00  0.00    -0.246 NA
BRANCH  15  16
ATOM     16  C   UNL     1      -9.862  15.141  65.025  0.00  0.00    +0.189 C 
BRANCH  16  17
ATOM     17  C   UNL     1     -10.845  16.262  64.986  0.00  0.00    +0.381 C 
ATOM     18  O   UNL     1     -10.470  17.432  65.653  0.00  0.00    -0.244 OA
ATOM     19  O   UNL     1     -11.555  16.446  63.953  0.00  0.00    -0.244 OA
ENDBRANCH  16  17
ENDBRANCH  15  16
BRANCH  15  20
ATOM     20  C   UNL     1     -10.946  13.152  64.223  0.00  0.00    +0.189 C 
BRANCH  20  21
ATOM     21  C   UNL     1     -12.424  12.974  64.129  0.00  0.00    +0.381 C 
ATOM     22  O   UNL     1     -13.003  11.953  63.369  0.00  0.00    -0.244 OA
ATOM     23  O   UNL     1     -13.168  13.448  65.040  0.00  0.00    -0.244 OA
ENDBRANCH  20  21
ENDBRANCH  15  20
ENDBRANCH  14  15
ENDBRANCH   2  14
TORSDOF 7
ENDMDL
MODEL 2
REMARK VINA RESULT:      -6.3      2.999      5.173
REMARK  Name = 
REMARK  7 active torsions:
REMARK  status: ('A' for Active; 'I' for Inactive)
REMARK    1  A    between atoms: C_6  and  N_7
REMARK    2  A    between atoms: C_8  and  C_10
REMARK    3  A    between atoms: C_10  and  N_11
REMARK    4  A    between atoms: N_11  and  C_12
REMARK    5  A    between atoms: N_11  and  C_16
REMARK    6  A    between atoms: C_12  and  C_13
REMARK    7  A    between atoms: C_16  and  C_17
REMARK                            x       y       z     vdW  Elec       q    Type
REMARK                         _______ _______ _______ _____ _____    ______ ____
ROOT
ATOM      1  N   UNL     1     -12.016  11.996  67.890  0.00  0.00    -0.179 NA
ATOM      2  C   UNL     1     -11.448  13.272  67.676  0.00  0.00    +0.262 C 
ATOM      3  O   UNL     1     -10.504  13.621  68.432  0.00  0.00    -0.271 OA
ENDROOT
BRANCH   1  10
ATOM      4  C   UNL     1      -9.673   7.407  70.131  0.00  0.00    +0.032 C 
ATOM      5  C   UNL     1     -10.490   8.507  69.541  0.00  0.00    -0.016 A 
ATOM      6  C   UNL     1     -10.469   8.730  68.178  0.00  0.00    +0.028 A 
ATOM      7 BR   UNL     1     -10.013   7.295  66.994  0.00  0.00    -0.050 Br
ATOM      8  C   UNL     1     -10.822   9.960  67.648  0.00  0.00    -0.001 A 
ATOM      9  C   UNL     1     -10.286  10.358  66.309  0.00  0.00    +0.033 C 
ATOM     10  C   UNL     1     -11.296  10.931  68.523  0.00  0.00    +0.066 A 
ATOM     11  C   UNL     1     -11.779  10.550  69.769  0.00  0.00    -0.007 A 
ATOM     12  C   UNL     1     -12.273  11.660  70.636  0.00  0.00    +0.032 C 
ATOM     13  C   UNL     1     -11.157   9.439  70.327  0.00  0.00    -0.007 A 
ENDBRANCH   1  10
BRANCH   2  14
ATOM     14  C   UNL     1     -11.949  14.204  66.623  0.00  0.00    +0.161 C 
BRANCH  14  15
ATOM     15  N   UNL     1     -11.182  14.014  65.423  0.00  0.00    -0.246 NA
BRANCH  15  16
ATOM     16  C   UNL     1     -12.071  13.836  64.310  0.00  0.00    +0.189 C 
BRANCH  16  17
ATOM     17  C   UNL     1     -11.908  12.453  63.776  0.00  0.00    +0.381 C 
ATOM     18  O   UNL     1     -13.054  11.865  63.232  0.00  0.00    -0.244 OA
ATOM     19  O   UNL     1     -10.823  12.114  63.217  0.00  0.00    -0.244 OA
ENDBRANCH  16  17
ENDBRANCH  15  16
BRANCH  15  20
ATOM     20  C   UNL     1     -10.176  15.016  65.200  0.00  0.00    +0.189 C 
BRANCH  20  21
ATOM     21  C   UNL     1     -10.701  16.405  65.350  0.00  0.00    +0.381 C 
ATOM     22  O   UNL     1     -10.240  17.268  66.349  0.00  0.00    -0.244 OA
ATOM     23  O   UNL     1     -11.242  16.978  64.358  0.00  0.00    -0.244 OA
ENDBRANCH  20  21
ENDBRANCH  15  20
ENDBRANCH  14  15
ENDBRANCH   2  14
TORSDOF 7
ENDMDL
MODEL 3
REMARK VINA RESULT:      -6.2      3.729      5.564
REMARK  Name = 
REMARK  7 active torsions:
REMARK  status: ('A' for Active; 'I' for Inactive)
REMARK    1  A    between atoms: C_6  and  N_7
REMARK    2  A    between atoms: C_8  and  C_10
REMARK    3  A    between atoms: C_10  and  N_11
REMARK    4  A    between atoms: N_11  and  C_12
REMARK    5  A    between atoms: N_11  and  C_16
REMARK    6  A    between atoms: C_12  and  C_13
REMARK    7  A    between atoms: C_16  and  C_17
REMARK                            x       y       z     vdW  Elec       q    Type
REMARK                         _______ _______ _______ _____ _____    ______ ____
ROOT
ATOM      1  N   UNL     1     -10.166  17.494  67.736  0.00  0.00    -0.179 NA
ATOM      2  C   UNL     1     -10.415  16.364  66.926  0.00  0.00    +0.262 C 
ATOM      3  O   UNL     1      -9.912  16.354  65.773  0.00  0.00    -0.271 OA
ENDROOT
BRANCH   1  10
ATOM      4  C   UNL     1      -5.797  21.024  67.622  0.00  0.00    +0.032 C 
ATOM      5  C   UNL     1      -7.042  20.225  67.813  0.00  0.00    -0.016 A 
ATOM      6  C   UNL     1      -7.017  19.080  68.584  0.00  0.00    +0.028 A 
ATOM      7 BR   UNL     1      -5.678  18.882  69.938  0.00  0.00    -0.050 Br
ATOM      8  C   UNL     1      -7.977  18.093  68.430  0.00  0.00    -0.001 A 
ATOM      9  C   UNL     1      -7.649  16.688  68.830  0.00  0.00    +0.033 C 
ATOM     10  C   UNL     1      -9.023  18.337  67.547  0.00  0.00    +0.066 A 
ATOM     11  C   UNL     1      -9.309  19.645  67.173  0.00  0.00    -0.007 A 
ATOM     12  C   UNL     1     -10.453  19.809  66.228  0.00  0.00    +0.032 C 
ATOM     13  C   UNL     1      -8.209  20.491  67.107  0.00  0.00    -0.007 A 
ENDBRANCH   1  10
BRANCH   2  14
ATOM     14  C   UNL     1     -11.268  15.225  67.382  0.00  0.00    +0.161 C 
BRANCH  14  15
ATOM     15  N   UNL     1     -11.138  14.138  66.452  0.00  0.00    -0.246 NA
BRANCH  15  16
ATOM     16  C   UNL     1     -10.508  13.024  67.101  0.00  0.00    +0.189 C 
BRANCH  16  17
ATOM     17  C   UNL     1     -11.515  12.326  67.953  0.00  0.00    +0.381 C 
ATOM     18  O   UNL     1     -11.862  11.031  67.557  0.00  0.00    -0.244 OA
ATOM     19  O   UNL     1     -11.528  12.519  69.205  0.00  0.00    -0.244 OA
ENDBRANCH  16  17
ENDBRANCH  15  16
BRANCH  15  20
ATOM     20  C   UNL     1     -12.357  13.793  65.773  0.00  0.00    +0.189 C 
BRANCH  20  21
ATOM     21  C   UNL     1     -12.319  14.118  64.317  0.00  0.00    +0.381 C 
ATOM     22  O   UNL     1     -12.435  13.132  63.332  0.00  0.00    -0.244 OA
ATOM     23  O   UNL     1     -12.604  15.292  63.932  0.00  0.00    -0.244 OA
ENDBRANCH  20  21
ENDBRANCH  15  20
ENDBRANCH  14  15
ENDBRANCH   2  14
TORSDOF 7
ENDMDL
MODEL 4
REMARK VINA RESULT:      -6.1      1.017      2.783
REMARK  Name = 
REMARK  7 active torsions:
REMARK  status: ('A' for Active; 'I' for Inactive)
REMARK    1  A    between atoms: C_6  and  N_7
REMARK    2  A    between atoms: C_8  and  C_10
REMARK    3  A    between atoms: C_10  and  N_11
REMARK    4  A    between atoms: N_11  and  C_12
REMARK    5  A    between atoms: N_11  and  C_16
REMARK    6  A    between atoms: C_12  and  C_13
REMARK    7  A    between atoms: C_16  and  C_17
REMARK                            x       y       z     vdW  Elec       q    Type
REMARK                         _______ _______ _______ _____ _____    ______ ____
ROOT
ATOM      1  N   UNL     1     -11.497  14.189  67.950  0.00  0.00    -0.179 NA
ATOM      2  C   UNL     1     -10.432  13.475  67.357  0.00  0.00    +0.262 C 
ATOM      3  O   UNL     1      -9.300  13.565  67.899  0.00  0.00    -0.271 OA
ENDROOT
BRANCH   1  10
ATOM      4  C   UNL     1     -12.161  15.712  73.317  0.00  0.00    +0.032 C 
ATOM      5  C   UNL     1     -12.183  15.415  71.855  0.00  0.00    -0.016 A 
ATOM      6  C   UNL     1     -12.585  14.172  71.409  0.00  0.00    +0.028 A 
ATOM      7 BR   UNL     1     -13.743  13.105  72.499  0.00  0.00    -0.050 Br
ATOM      8  C   UNL     1     -12.206  13.702  70.161  0.00  0.00    -0.001 A 
ATOM      9  C   UNL     1     -12.161  12.226  69.920  0.00  0.00    +0.033 C 
ATOM     10  C   UNL     1     -11.495  14.563  69.333  0.00  0.00    +0.066 A 
ATOM     11  C   UNL     1     -11.534  15.932  69.575  0.00  0.00    -0.007 A 
ATOM     12  C   UNL     1     -10.746  16.776  68.630  0.00  0.00    +0.032 C 
ATOM     13  C   UNL     1     -11.654  16.289  70.913  0.00  0.00    -0.007 A 
ENDBRANCH   1  10
BRANCH   2  14
ATOM     14  C   UNL     1     -10.607  12.661  66.116  0.00  0.00    +0.161 C 
BRANCH  14  15
ATOM     15  N   UNL     1     -10.427  13.508  64.970  0.00  0.00    -0.246 NA
BRANCH  15  16
ATOM     16  C   UNL     1     -10.107  12.702  63.826  0.00  0.00    +0.189 C 
BRANCH  16  17
ATOM     17  C   UNL     1     -10.906  11.444  63.880  0.00  0.00    +0.381 C 
ATOM     18  O   UNL     1     -12.168  11.491  63.280  0.00  0.00    -0.244 OA
ATOM     19  O   UNL     1     -10.324  10.321  63.803  0.00  0.00    -0.244 OA
ENDBRANCH  16  17
ENDBRANCH  15  16
BRANCH  15  20
ATOM     20  C   UNL     1     -11.506  14.429  64.740  0.00  0.00    +0.189 C 
BRANCH  20  21
ATOM     21  C   UNL     1     -11.062  15.853  64.757  0.00  0.00    +0.381 C 
ATOM     22  O   UNL     1      -9.832  16.242  65.298  0.00  0.00    -0.244 OA
ATOM     23  O   UNL     1     -11.561  16.672  63.929  0.00  0.00    -0.244 OA
ENDBRANCH  20  21
ENDBRANCH  15  20
ENDBRANCH  14  15
ENDBRANCH   2  14
TORSDOF 7
ENDMDL
MODEL 5
REMARK VINA RESULT:      -6.0      2.876      4.657
REMARK  Name = 
REMARK  7 active torsions:
REMARK  status: ('A' for Active; 'I' for Inactive)
REMARK    1  A    between atoms: C_6  and  N_7
REMARK    2  A    between atoms: C_8  and  C_10
REMARK    3  A    between atoms: C_10  and  N_11
REMARK    4  A    between atoms: N_11  and  C_12
REMARK    5  A    between atoms: N_11  and  C_16
REMARK    6  A    between atoms: C_12  and  C_13
REMARK    7  A    between atoms: C_16  and  C_17
REMARK                            x       y       z     vdW  Elec       q    Type
REMARK                         _______ _______ _______ _____ _____    ______ ____
ROOT
ATOM      1  N   UNL     1     -10.958  11.706  67.600  0.00  0.00    -0.179 NA
ATOM      2  C   UNL     1      -9.734  12.411  67.568  0.00  0.00    +0.262 C 
ATOM      3  O   UNL     1      -8.810  12.004  68.320  0.00  0.00    -0.271 OA
ENDROOT
BRANCH   1  10
ATOM      4  C   UNL     1     -10.715   6.437  69.534  0.00  0.00    +0.032 C 
ATOM      5  C   UNL     1     -10.553   7.838  69.050  0.00  0.00    -0.016 A 
ATOM      6  C   UNL     1     -10.834   8.897  69.890  0.00  0.00    +0.028 A 
ATOM      7 BR   UNL     1     -10.738   8.650  71.786  0.00  0.00    -0.050 Br
ATOM      8  C   UNL     1     -11.135  10.152  69.385  0.00  0.00    -0.001 A 
ATOM      9  C   UNL     1     -11.948  11.096  70.213  0.00  0.00    +0.033 C 
ATOM     10  C   UNL     1     -11.044  10.336  68.009  0.00  0.00    +0.066 A 
ATOM     11  C   UNL     1     -10.297   9.444  67.249  0.00  0.00    -0.007 A 
ATOM     12  C   UNL     1     -10.252   9.726  65.784  0.00  0.00    +0.032 C 
ATOM     13  C   UNL     1     -10.286   8.136  67.719  0.00  0.00    -0.007 A 
ENDBRANCH   1  10
BRANCH   2  14
ATOM     14  C   UNL     1      -9.527  13.616  66.711  0.00  0.00    +0.161 C 
BRANCH  14  15
ATOM     15  N   UNL     1     -10.745  13.908  66.008  0.00  0.00    -0.246 NA
BRANCH  15  16
ATOM     16  C   UNL     1     -11.130  15.268  66.261  0.00  0.00    +0.189 C 
BRANCH  16  17
ATOM     17  C   UNL     1     -10.462  16.155  65.267  0.00  0.00    +0.381 C 
ATOM     18  O   UNL     1     -11.302  16.783  64.342  0.00  0.00    -0.244 OA
ATOM     19  O   UNL     1      -9.445  16.831  65.604  0.00  0.00    -0.244 OA
ENDBRANCH  16  17
ENDBRANCH  15  16
BRANCH  15  20
ATOM     20  C   UNL     1     -10.716  13.571  64.611  0.00  0.00    +0.189 C 
BRANCH  20  21
ATOM     21  C   UNL     1     -12.040  13.108  64.102  0.00  0.00    +0.381 C 
ATOM     22  O   UNL     1     -12.981  12.491  64.933  0.00  0.00    -0.244 OA
ATOM     23  O   UNL     1     -12.518  13.622  63.047  0.00  0.00    -0.244 OA
ENDBRANCH  20  21
ENDBRANCH  15  20
ENDBRANCH  14  15
ENDBRANCH   2  14
TORSDOF 7
ENDMDL
MODEL 6
REMARK VINA RESULT:      -6.0      3.160      4.785
REMARK  Name = 
REMARK  7 active torsions:
REMARK  status: ('A' for Active; 'I' for Inactive)
REMARK    1  A    between atoms: C_6  and  N_7
REMARK    2  A    between atoms: C_8  and  C_10
REMARK    3  A    between atoms: C_10  and  N_11
REMARK    4  A    between atoms: N_11  and  C_12
REMARK    5  A    between atoms: N_11  and  C_16
REMARK    6  A    between atoms: C_12  and  C_13
REMARK    7  A    between atoms: C_16  and  C_17
REMARK                            x       y       z     vdW  Elec       q    Type
REMARK                         _______ _______ _______ _____ _____    ______ ____
ROOT
ATOM      1  N   UNL     1     -11.743  11.262  68.309  0.00  0.00    -0.179 NA
ATOM      2  C   UNL     1     -10.821  12.169  67.739  0.00  0.00    +0.262 C 
ATOM      3  O   UNL     1      -9.868  12.558  68.462  0.00  0.00    -0.271 OA
ENDROOT
BRANCH   1  10
ATOM      4  C   UNL     1     -10.908   7.508  72.405  0.00  0.00    +0.032 C 
ATOM      5  C   UNL     1     -11.345   8.428  71.314  0.00  0.00    -0.016 A 
ATOM      6  C   UNL     1     -11.047   8.131  69.999  0.00  0.00    +0.028 A 
ATOM      7 BR   UNL     1     -10.738   6.311  69.489  0.00  0.00    -0.050 Br
ATOM      8  C   UNL     1     -11.019   9.120  69.030  0.00  0.00    -0.001 A 
ATOM      9  C   UNL     1     -10.191   8.914  67.801  0.00  0.00    +0.033 C 
ATOM     10  C   UNL     1     -11.399  10.405  69.404  0.00  0.00    +0.066 A 
ATOM     11  C   UNL     1     -12.156  10.585  70.556  0.00  0.00    -0.007 A 
ATOM     12  C   UNL     1     -12.523  11.996  70.873  0.00  0.00    +0.032 C 
ATOM     13  C   UNL     1     -11.904   9.673  71.574  0.00  0.00    -0.007 A 
ENDBRANCH   1  10
BRANCH   2  14
ATOM     14  C   UNL     1     -10.967  12.687  66.346  0.00  0.00    +0.161 C 
BRANCH  14  15
ATOM     15  N   UNL     1     -10.768  14.110  66.350  0.00  0.00    -0.246 NA
BRANCH  15  16
ATOM     16  C   UNL     1     -10.511  14.561  65.011  0.00  0.00    +0.189 C 
BRANCH  16  17
ATOM     17  C   UNL     1     -11.744  15.202  64.470  0.00  0.00    +0.381 C 
ATOM     18  O   UNL     1     -11.599  16.508  63.994  0.00  0.00    -0.244 OA
ATOM     19  O   UNL     1     -12.600  14.503  63.850  0.00  0.00    -0.244 OA
ENDBRANCH  16  17
ENDBRANCH  15  16
BRANCH  15  20
ATOM     20  C   UNL     1     -11.805  14.849  67.016  0.00  0.00    +0.189 C 
BRANCH  20  21
ATOM     21  C   UNL     1     -11.268  15.848  67.986  0.00  0.00    +0.381 C 
ATOM     22  O   UNL     1     -10.287  16.778  67.629  0.00  0.00    -0.244 OA
ATOM     23  O   UNL     1     -11.959  16.166  69.000  0.00  0.00    -0.244 OA
ENDBRANCH  20  21
ENDBRANCH  15  20
ENDBRANCH  14  15
ENDBRANCH   2  14
TORSDOF 7
ENDMDL
MODEL 7
REMARK VINA RESULT:      -5.9      2.904      5.247
REMARK  Name = 
REMARK  7 active torsions:
REMARK  status: ('A' for Active; 'I' for Inactive)
REMARK    1  A    between atoms: C_6  and  N_7
REMARK    2  A    between atoms: C_8  and  C_10
REMARK    3  A    between atoms: C_10  and  N_11
REMARK    4  A    between atoms: N_11  and  C_12
REMARK    5  A    between atoms: N_11  and  C_16
REMARK    6  A    between atoms: C_12  and  C_13
REMARK    7  A    between atoms: C_16  and  C_17
REMARK                            x       y       z     vdW  Elec       q    Type
REMARK                         _______ _______ _______ _____ _____    ______ ____
ROOT
ATOM      1  N   UNL     1     -10.597  12.056  67.614  0.00  0.00    -0.179 NA
ATOM      2  C   UNL     1     -11.581  12.776  66.900  0.00  0.00    +0.262 C 
ATOM      3  O   UNL     1     -12.361  12.118  66.164  0.00  0.00    -0.271 OA
ENDROOT
BRANCH   1  10
ATOM      4  C   UNL     1     -10.674   6.710  69.340  0.00  0.00    +0.032 C 
ATOM      5  C   UNL     1     -10.435   8.129  68.948  0.00  0.00    -0.016 A 
ATOM      6  C   UNL     1     -10.855   9.154  69.773  0.00  0.00    +0.028 A 
ATOM      7 BR   UNL     1     -11.079   8.828  71.646  0.00  0.00    -0.050 Br
ATOM      8  C   UNL     1     -11.068  10.430  69.277  0.00  0.00    -0.001 A 
ATOM      9  C   UNL     1     -12.011  11.344  69.995  0.00  0.00    +0.033 C 
ATOM     10  C   UNL     1     -10.749  10.670  67.945  0.00  0.00    +0.066 A 
ATOM     11  C   UNL     1      -9.882   9.807  67.285  0.00  0.00    -0.007 A 
ATOM     12  C   UNL     1      -9.592  10.148  65.861  0.00  0.00    +0.032 C 
ATOM     13  C   UNL     1      -9.948   8.480  67.695  0.00  0.00    -0.007 A 
ENDBRANCH   1  10
BRANCH   2  14
ATOM     14  C   UNL     1     -11.694  14.264  66.973  0.00  0.00    +0.161 C 
BRANCH  14  15
ATOM     15  N   UNL     1     -10.479  14.852  66.480  0.00  0.00    -0.246 NA
BRANCH  15  16
ATOM     16  C   UNL     1     -10.447  14.756  65.048  0.00  0.00    +0.189 C 
BRANCH  16  17
ATOM     17  C   UNL     1     -11.687  15.371  64.493  0.00  0.00    +0.381 C 
ATOM     18  O   UNL     1     -11.549  16.656  63.959  0.00  0.00    -0.244 OA
ATOM     19  O   UNL     1     -12.549  14.646  63.913  0.00  0.00    -0.244 OA
ENDBRANCH  16  17
ENDBRANCH  15  16
BRANCH  15  20
ATOM     20  C   UNL     1     -10.222  16.177  66.973  0.00  0.00    +0.189 C 
BRANCH  20  21
ATOM     21  C   UNL     1     -10.187  16.241  68.464  0.00  0.00    +0.381 C 
ATOM     22  O   UNL     1      -9.021  15.980  69.191  0.00  0.00    -0.244 OA
ATOM     23  O   UNL     1     -11.056  16.928  69.079  0.00  0.00    -0.244 OA
ENDBRANCH  20  21
ENDBRANCH  15  20
ENDBRANCH  14  15
ENDBRANCH   2  14
TORSDOF 7
ENDMDL
MODEL 8
REMARK VINA RESULT:      -5.9      3.030      4.280
REMARK  Name = 
REMARK  7 active torsions:
REMARK  status: ('A' for Active; 'I' for Inactive)
REMARK    1  A    between atoms: C_6  and  N_7
REMARK    2  A    between atoms: C_8  and  C_10
REMARK    3  A    between atoms: C_10  and  N_11
REMARK    4  A    between atoms: N_11  and  C_12
REMARK    5  A    between atoms: N_11  and  C_16
REMARK    6  A    between atoms: C_12  and  C_13
REMARK    7  A    between atoms: C_16  and  C_17
REMARK                            x       y       z     vdW  Elec       q    Type
REMARK                         _______ _______ _______ _____ _____    ______ ____
ROOT
ATOM      1  N   UNL     1     -10.846  11.056  67.981  0.00  0.00    -0.179 NA
ATOM      2  C   UNL     1      -9.696  11.757  67.556  0.00  0.00    +0.262 C 
ATOM      3  O   UNL     1      -8.888  12.139  68.442  0.00  0.00    -0.271 OA
ENDROOT
BRANCH   1  10
ATOM      4  C   UNL     1     -11.551   7.892  72.570  0.00  0.00    +0.032 C 
ATOM      5  C   UNL     1     -11.583   8.686  71.306  0.00  0.00    -0.016 A 
ATOM      6  C   UNL     1     -11.064   8.154  70.143  0.00  0.00    +0.028 A 
ATOM      7 BR   UNL     1     -10.962   6.253  69.936  0.00  0.00    -0.050 Br
ATOM      8  C   UNL     1     -10.663   8.971  69.098  0.00  0.00    -0.001 A 
ATOM      9  C   UNL     1      -9.638   8.469  68.131  0.00  0.00    +0.033 C 
ATOM     10  C   UNL     1     -10.894  10.337  69.219  0.00  0.00    +0.066 A 
ATOM     11  C   UNL     1     -11.840  10.792  70.130  0.00  0.00    -0.007 A 
ATOM     12  C   UNL     1     -12.024  12.272  70.184  0.00  0.00    +0.032 C 
ATOM     13  C   UNL     1     -11.968  10.021  71.279  0.00  0.00    -0.007 A 
ENDBRANCH   1  10
BRANCH   2  14
ATOM     14  C   UNL     1      -9.438  12.077  66.119  0.00  0.00    +0.161 C 
BRANCH  14  15
ATOM     15  N   UNL     1     -10.335  13.118  65.701  0.00  0.00    -0.246 NA
BRANCH  15  16
ATOM     16  C   UNL     1      -9.814  14.392  66.110  0.00  0.00    +0.189 C 
BRANCH  16  17
ATOM     17  C   UNL     1     -10.910  15.183  66.742  0.00  0.00    +0.381 C 
ATOM     18  O   UNL     1     -11.925  14.444  67.356  0.00  0.00    -0.244 OA
ATOM     19  O   UNL     1     -10.651  16.292  67.297  0.00  0.00    -0.244 OA
ENDBRANCH  16  17
ENDBRANCH  15  16
BRANCH  15  20
ATOM     20  C   UNL     1     -10.694  13.064  64.310  0.00  0.00    +0.189 C 
BRANCH  20  21
ATOM     21  C   UNL     1     -12.160  13.236  64.086  0.00  0.00    +0.381 C 
ATOM     22  O   UNL     1     -13.109  12.441  64.736  0.00  0.00    -0.244 OA
ATOM     23  O   UNL     1     -12.599  14.344  63.655  0.00  0.00    -0.244 OA
ENDBRANCH  20  21
ENDBRANCH  15  20
ENDBRANCH  14  15
ENDBRANCH   2  14
TORSDOF 7
ENDMDL
MODEL 9
REMARK VINA RESULT:      -5.8      2.174      3.600
REMARK  Name = 
REMARK  7 active torsions:
REMARK  status: ('A' for Active; 'I' for Inactive)
REMARK    1  A    between atoms: C_6  and  N_7
REMARK    2  A    between atoms: C_8  and  C_10
REMARK    3  A    between atoms: C_10  and  N_11
REMARK    4  A    between atoms: N_11  and  C_12
REMARK    5  A    between atoms: N_11  and  C_16
REMARK    6  A    between atoms: C_12  and  C_13
REMARK    7  A    between atoms: C_16  and  C_17
REMARK                            x       y       z     vdW  Elec       q    Type
REMARK                         _______ _______ _______ _____ _____    ______ ____
ROOT
ATOM      1  N   UNL     1     -10.220  11.909  68.270  0.00  0.00    -0.179 NA
ATOM      2  C   UNL     1     -10.536  12.244  66.934  0.00  0.00    +0.262 C 
ATOM      3  O   UNL     1     -11.440  11.577  66.367  0.00  0.00    -0.271 OA
ENDROOT
BRANCH   1  10
ATOM      4  C   UNL     1     -13.538   9.634  72.191  0.00  0.00    +0.032 C 
ATOM      5  C   UNL     1     -12.499  10.248  71.315  0.00  0.00    -0.016 A 
ATOM      6  C   UNL     1     -12.538  11.601  71.041  0.00  0.00    +0.028 A 
ATOM      7 BR   UNL     1     -13.412  12.788  72.264  0.00  0.00    -0.050 Br
ATOM      8  C   UNL     1     -11.909  12.124  69.922  0.00  0.00    -0.001 A 
ATOM      9  C   UNL     1     -12.398  13.416  69.348  0.00  0.00    +0.033 C 
ATOM     10  C   UNL     1     -11.154  11.258  69.139  0.00  0.00    +0.066 A 
ATOM     11  C   UNL     1     -10.717  10.054  69.680  0.00  0.00    -0.007 A 
ATOM     12  C   UNL     1      -9.907   9.194  68.768  0.00  0.00    +0.032 C 
ATOM     13  C   UNL     1     -11.573   9.484  70.615  0.00  0.00    -0.007 A 
ENDBRANCH   1  10
BRANCH   2  14
ATOM     14  C   UNL     1      -9.818  13.321  66.188  0.00  0.00    +0.161 C 
BRANCH  14  15
ATOM     15  N   UNL     1     -10.627  14.508  66.181  0.00  0.00    -0.246 NA
BRANCH  15  16
ATOM     16  C   UNL     1      -9.998  15.522  66.979  0.00  0.00    +0.189 C 
BRANCH  16  17
ATOM     17  C   UNL     1      -9.079  16.318  66.115  0.00  0.00    +0.381 C 
ATOM     18  O   UNL     1      -9.508  17.608  65.788  0.00  0.00    -0.244 OA
ATOM     19  O   UNL     1      -7.825  16.191  66.239  0.00  0.00    -0.244 OA
ENDBRANCH  16  17
ENDBRANCH  15  16
BRANCH  15  20
ATOM     20  C   UNL     1     -11.002  14.959  64.869  0.00  0.00    +0.189 C 
BRANCH  20  21
ATOM     21  C   UNL     1     -12.325  14.426  64.431  0.00  0.00    +0.381 C 
ATOM     22  O   UNL     1     -12.486  13.735  63.226  0.00  0.00    -0.244 OA
ATOM     23  O   UNL     1     -13.226  14.207  65.295  0.00  0.00    -0.244 OA
ENDBRANCH  20  21
ENDBRANCH  15  20
ENDBRANCH  14  15
ENDBRANCH   2  14
TORSDOF 7
ENDMDL
