MODEL 1
REMARK VINA RESULT:      -6.9      0.000      0.000
REMARK  Name = 
REMARK  5 active torsions:
REMARK  status: ('A' for Active; 'I' for Inactive)
REMARK    1  A    between atoms: N_6  and  C_7
REMARK    2  A    between atoms: C_10  and  C_11
REMARK    3  A    between atoms: C_11  and  C_12
REMARK    4  A    between atoms: C_12  and  N_13
REMARK    5  A    between atoms: N_16  and  C_17
REMARK                            x       y       z     vdW  Elec       q    Type
REMARK                         _______ _______ _______ _____ _____    ______ ____
ROOT
ATOM      1  C   UNL     1     -10.521  16.016  65.504  0.00  0.00    +0.072 C 
ENDROOT
BRANCH   1   2
ATOM      2  N   UNL     1     -10.633  14.942  66.466  0.00  0.00    -0.270 NA
ATOM      3  C   UNL     1      -9.458  14.108  66.514  0.00  0.00    +0.094 C 
ATOM      4  C   UNL     1      -9.611  13.180  67.696  0.00  0.00    +0.108 C 
ATOM      5  N   UNL     1     -10.996  13.070  68.077  0.00  0.00    -0.304 N 
ATOM      6  C   UNL     1     -12.059  13.056  67.092  0.00  0.00    +0.108 C 
ATOM      7  C   UNL     1     -11.843  14.223  66.173  0.00  0.00    +0.094 C 
BRANCH   5   8
ATOM      8  C   UNL     1     -11.410  13.079  69.449  0.00  0.00    +0.059 A 
ATOM      9  C   UNL     1     -11.924  11.906  69.959  0.00  0.00    +0.081 A 
ATOM     10 CL   UNL     1     -11.239  10.405  69.379  0.00  0.00    -0.080 Cl
ATOM     11  C   UNL     1     -12.769  11.905  71.062  0.00  0.00    +0.069 A 
ATOM     12 CL   UNL     1     -13.066  10.423  71.948  0.00  0.00    -0.081 Cl
ATOM     13  C   UNL     1     -13.238  13.119  71.550  0.00  0.00    +0.012 A 
ATOM     14  C   UNL     1     -12.606  14.285  71.188  0.00  0.00    +0.002 A 
ATOM     15  C   UNL     1     -11.734  14.237  70.115  0.00  0.00    +0.015 A 
ENDBRANCH   5   8
ENDBRANCH   1   2
BRANCH   1  16
ATOM     16  C   UNL     1      -9.748  17.189  66.030  0.00  0.00    +0.017 C 
BRANCH  16  20
ATOM     17  C   UNL     1      -8.698  20.411  67.575  0.00  0.00    +0.097 C 
ATOM     18  C   UNL     1      -9.129  19.315  68.735  0.00  0.00    +0.022 C 
ATOM     19  C   UNL     1      -8.999  17.972  68.123  0.00  0.00    +0.002 C 
ATOM     20  C   UNL     1     -10.443  17.567  67.467  0.00  0.00    +0.001 C 
ATOM     21  C   UNL     1     -10.786  19.101  66.995  0.00  0.00    +0.002 C 
ATOM     22  C   UNL     1      -9.554  19.656  66.384  0.00  0.00    +0.022 C 
BRANCH  17  26
ATOM     23  C   UNL     1      -4.657  19.942  65.710  0.00  0.00    +0.117 C 
ATOM     24  N   UNL     1      -5.049  19.705  66.534  0.00  0.00    -0.259 N 
ATOM     25  C   UNL     1      -6.230  20.376  66.991  0.00  0.00    +0.323 C 
ATOM     26  N   UNL     1      -7.387  19.615  67.193  0.00  0.00    -0.190 NA
ATOM     27  O   UNL     1      -6.294  21.624  66.865  0.00  0.00    -0.251 OA
ATOM     28  C   UNL     1      -4.316  18.815  67.433  0.00  0.00    +0.117 C 
ENDBRANCH  17  26
ENDBRANCH  16  20
ENDBRANCH   1  16
TORSDOF 5
ENDMDL
MODEL 2
REMARK VINA RESULT:      -6.8      1.491      1.819
REMARK  Name = 
REMARK  5 active torsions:
REMARK  status: ('A' for Active; 'I' for Inactive)
REMARK    1  A    between atoms: N_6  and  C_7
REMARK    2  A    between atoms: C_10  and  C_11
REMARK    3  A    between atoms: C_11  and  C_12
REMARK    4  A    between atoms: C_12  and  N_13
REMARK    5  A    between atoms: N_16  and  C_17
REMARK                            x       y       z     vdW  Elec       q    Type
REMARK                         _______ _______ _______ _____ _____    ______ ____
ROOT
ATOM      1  C   UNL     1      -9.759  15.667  65.700  0.00  0.00    +0.072 C 
ENDROOT
BRANCH   1   2
ATOM      2  N   UNL     1     -10.004  14.483  66.494  0.00  0.00    -0.270 NA
ATOM      3  C   UNL     1      -8.817  13.998  67.155  0.00  0.00    +0.094 C 
ATOM      4  C   UNL     1      -9.247  12.913  68.114  0.00  0.00    +0.108 C 
ATOM      5  N   UNL     1     -10.533  12.383  67.735  0.00  0.00    -0.304 N 
ATOM      6  C   UNL     1     -10.909  12.216  66.347  0.00  0.00    +0.108 C 
ATOM      7  C   UNL     1     -10.630  13.510  65.640  0.00  0.00    +0.094 C 
BRANCH   5   8
ATOM      8  C   UNL     1     -11.551  12.095  68.702  0.00  0.00    +0.059 A 
ATOM      9  C   UNL     1     -11.907  13.111  69.562  0.00  0.00    +0.081 A 
ATOM     10 CL   UNL     1     -11.891  14.743  68.935  0.00  0.00    -0.080 Cl
ATOM     11  C   UNL     1     -12.492  12.845  70.794  0.00  0.00    +0.069 A 
ATOM     12 CL   UNL     1     -13.316  14.115  71.676  0.00  0.00    -0.081 Cl
ATOM     13  C   UNL     1     -12.561  11.528  71.235  0.00  0.00    +0.012 A 
ATOM     14  C   UNL     1     -12.390  10.503  70.336  0.00  0.00    +0.002 A 
ATOM     15  C   UNL     1     -11.850  10.814  69.101  0.00  0.00    +0.015 A 
ENDBRANCH   5   8
ENDBRANCH   1   2
BRANCH   1  16
ATOM     16  C   UNL     1      -9.191  16.799  66.503  0.00  0.00    +0.017 C 
BRANCH  16  20
ATOM     17  C   UNL     1      -8.907  20.402  67.402  0.00  0.00    +0.097 C 
ATOM     18  C   UNL     1      -9.847  19.596  68.496  0.00  0.00    +0.022 C 
ATOM     19  C   UNL     1      -9.477  18.163  68.404  0.00  0.00    +0.002 C 
ATOM     20  C   UNL     1     -10.463  17.450  67.309  0.00  0.00    +0.001 C 
ATOM     21  C   UNL     1     -10.517  18.768  66.332  0.00  0.00    +0.002 C 
ATOM     22  C   UNL     1      -9.132  19.281  66.213  0.00  0.00    +0.022 C 
BRANCH  17  26
ATOM     23  C   UNL     1      -4.477  19.793  67.585  0.00  0.00    +0.117 C 
ATOM     24  N   UNL     1      -5.179  19.814  68.213  0.00  0.00    -0.259 N 
ATOM     25  C   UNL     1      -6.418  20.457  67.890  0.00  0.00    +0.323 C 
ATOM     26  N   UNL     1      -7.584  19.683  67.885  0.00  0.00    -0.190 NA
ATOM     27  O   UNL     1      -6.379  21.567  67.302  0.00  0.00    -0.251 OA
ATOM     28  C   UNL     1      -4.910  19.386  69.584  0.00  0.00    +0.117 C 
ENDBRANCH  17  26
ENDBRANCH  16  20
ENDBRANCH   1  16
TORSDOF 5
ENDMDL
MODEL 3
REMARK VINA RESULT:      -6.7      2.570      4.198
REMARK  Name = 
REMARK  5 active torsions:
REMARK  status: ('A' for Active; 'I' for Inactive)
REMARK    1  A    between atoms: N_6  and  C_7
REMARK    2  A    between atoms: C_10  and  C_11
REMARK    3  A    between atoms: C_11  and  C_12
REMARK    4  A    between atoms: C_12  and  N_13
REMARK    5  A    between atoms: N_16  and  C_17
REMARK                            x       y       z     vdW  Elec       q    Type
REMARK                         _______ _______ _______ _____ _____    ______ ____
ROOT
ATOM      1  C   UNL     1     -11.253  16.292  68.921  0.00  0.00    +0.072 C 
ENDROOT
BRANCH   1   2
ATOM      2  N   UNL     1     -11.166  14.944  68.406  0.00  0.00    -0.270 NA
ATOM      3  C   UNL     1     -11.718  13.962  69.307  0.00  0.00    +0.094 C 
ATOM      4  C   UNL     1     -11.770  12.647  68.566  0.00  0.00    +0.108 C 
ATOM      5  N   UNL     1     -10.855  12.657  67.453  0.00  0.00    -0.304 N 
ATOM      6  C   UNL     1      -9.566  13.313  67.532  0.00  0.00    +0.108 C 
ATOM      7  C   UNL     1      -9.793  14.702  68.056  0.00  0.00    +0.094 C 
BRANCH   5   8
ATOM      8  C   UNL     1     -11.209  12.118  66.173  0.00  0.00    +0.059 A 
ATOM      9  C   UNL     1     -10.298  11.276  65.572  0.00  0.00    +0.081 A 
ATOM     10 CL   UNL     1      -9.360  10.226  66.608  0.00  0.00    -0.080 Cl
ATOM     11  C   UNL     1     -10.291  11.082  64.196  0.00  0.00    +0.069 A 
ATOM     12 CL   UNL     1      -9.438   9.720  63.498  0.00  0.00    -0.081 Cl
ATOM     13  C   UNL     1     -11.105  11.880  63.400  0.00  0.00    +0.012 A 
ATOM     14  C   UNL     1     -12.138  12.580  63.975  0.00  0.00    +0.002 A 
ATOM     15  C   UNL     1     -12.138  12.711  65.352  0.00  0.00    +0.015 A 
ENDBRANCH   5   8
ENDBRANCH   1   2
BRANCH   1  16
ATOM     16  C   UNL     1     -10.061  17.129  68.563  0.00  0.00    +0.017 C 
BRANCH  16  20
ATOM     17  C   UNL     1      -7.534  19.460  67.131  0.00  0.00    +0.097 C 
ATOM     18  C   UNL     1      -8.975  20.232  67.374  0.00  0.00    +0.022 C 
ATOM     19  C   UNL     1      -9.709  19.454  68.400  0.00  0.00    +0.002 C 
ATOM     20  C   UNL     1     -10.642  18.349  67.633  0.00  0.00    +0.001 C 
ATOM     21  C   UNL     1      -9.543  18.080  66.444  0.00  0.00    +0.002 C 
ATOM     22  C   UNL     1      -8.217  17.959  67.094  0.00  0.00    +0.022 C 
BRANCH  17  26
ATOM     23  C   UNL     1      -5.203  18.123  70.709  0.00  0.00    +0.117 C 
ATOM     24  N   UNL     1      -5.617  18.925  70.438  0.00  0.00    -0.259 N 
ATOM     25  C   UNL     1      -5.908  19.155  69.054  0.00  0.00    +0.323 C 
ATOM     26  N   UNL     1      -7.245  19.335  68.680  0.00  0.00    -0.190 NA
ATOM     27  O   UNL     1      -5.037  18.850  68.202  0.00  0.00    -0.251 OA
ATOM     28  C   UNL     1      -5.749  20.012  71.406  0.00  0.00    +0.117 C 
ENDBRANCH  17  26
ENDBRANCH  16  20
ENDBRANCH   1  16
TORSDOF 5
ENDMDL
MODEL 4
REMARK VINA RESULT:      -6.7      3.406      5.810
REMARK  Name = 
REMARK  5 active torsions:
REMARK  status: ('A' for Active; 'I' for Inactive)
REMARK    1  A    between atoms: N_6  and  C_7
REMARK    2  A    between atoms: C_10  and  C_11
REMARK    3  A    between atoms: C_11  and  C_12
REMARK    4  A    between atoms: C_12  and  N_13
REMARK    5  A    between atoms: N_16  and  C_17
REMARK                            x       y       z     vdW  Elec       q    Type
REMARK                         _______ _______ _______ _____ _____    ______ ____
ROOT
ATOM      1  C   UNL     1      -8.878  10.449  65.984  0.00  0.00    +0.072 C 
ENDROOT
BRANCH   1   2
ATOM      2  N   UNL     1      -9.164   9.650  67.155  0.00  0.00    -0.270 NA
ATOM      3  C   UNL     1      -8.083   9.647  68.109  0.00  0.00    +0.094 C 
ATOM      4  C   UNL     1      -8.589   8.974  69.363  0.00  0.00    +0.108 C 
ATOM      5  N   UNL     1      -9.735   8.151  69.068  0.00  0.00    -0.304 N 
ATOM      6  C   UNL     1      -9.836   7.398  67.835  0.00  0.00    +0.108 C 
ATOM      7  C   UNL     1      -9.541   8.338  66.702  0.00  0.00    +0.094 C 
BRANCH   5   8
ATOM      8  C   UNL     1     -10.885   8.117  69.922  0.00  0.00    +0.059 A 
ATOM      9  C   UNL     1     -11.385   9.326  70.355  0.00  0.00    +0.081 A 
ATOM     10 CL   UNL     1     -11.297  10.678  69.250  0.00  0.00    -0.080 Cl
ATOM     11  C   UNL     1     -12.148   9.421  71.512  0.00  0.00    +0.069 A 
ATOM     12 CL   UNL     1     -13.117  10.849  71.818  0.00  0.00    -0.081 Cl
ATOM     13  C   UNL     1     -12.264   8.307  72.335  0.00  0.00    +0.012 A 
ATOM     14  C   UNL     1     -11.942   7.065  71.843  0.00  0.00    +0.002 A 
ATOM     15  C   UNL     1     -11.223   7.008  70.663  0.00  0.00    +0.015 A 
ENDBRANCH   5   8
ENDBRANCH   1   2
BRANCH   1  16
ATOM     16  C   UNL     1      -9.636  11.743  65.965  0.00  0.00    +0.017 C 
BRANCH  16  20
ATOM     17  C   UNL     1     -11.841  14.333  64.448  0.00  0.00    +0.097 C 
ATOM     18  C   UNL     1     -12.699  13.351  65.463  0.00  0.00    +0.022 C 
ATOM     19  C   UNL     1     -11.723  12.748  66.401  0.00  0.00    +0.002 C 
ATOM     20  C   UNL     1     -11.210  11.330  65.763  0.00  0.00    +0.001 C 
ATOM     21  C   UNL     1     -11.246  11.883  64.218  0.00  0.00    +0.002 C 
ATOM     22  C   UNL     1     -10.633  13.233  64.223  0.00  0.00    +0.022 C 
BRANCH  17  26
ATOM     23  C   UNL     1      -9.268  17.488  66.307  0.00  0.00    +0.117 C 
ATOM     24  N   UNL     1     -10.058  17.035  66.551  0.00  0.00    -0.259 N 
ATOM     25  C   UNL     1     -10.862  16.397  65.551  0.00  0.00    +0.323 C 
ATOM     26  N   UNL     1     -11.053  15.014  65.638  0.00  0.00    -0.190 NA
ATOM     27  O   UNL     1     -11.072  17.010  64.474  0.00  0.00    -0.251 OA
ATOM     28  C   UNL     1     -10.563  17.183  67.915  0.00  0.00    +0.117 C 
ENDBRANCH  17  26
ENDBRANCH  16  20
ENDBRANCH   1  16
TORSDOF 5
ENDMDL
MODEL 5
REMARK VINA RESULT:      -6.7      4.213      6.227
REMARK  Name = 
REMARK  5 active torsions:
REMARK  status: ('A' for Active; 'I' for Inactive)
REMARK    1  A    between atoms: N_6  and  C_7
REMARK    2  A    between atoms: C_10  and  C_11
REMARK    3  A    between atoms: C_11  and  C_12
REMARK    4  A    between atoms: C_12  and  N_13
REMARK    5  A    between atoms: N_16  and  C_17
REMARK                            x       y       z     vdW  Elec       q    Type
REMARK                         _______ _______ _______ _____ _____    ______ ____
ROOT
ATOM      1  C   UNL     1      -9.147  10.380  65.971  0.00  0.00    +0.072 C 
ENDROOT
BRANCH   1   2
ATOM      2  N   UNL     1      -9.398   9.483  67.077  0.00  0.00    -0.270 NA
ATOM      3  C   UNL     1      -8.219   9.221  67.865  0.00  0.00    +0.094 C 
ATOM      4  C   UNL     1      -8.659   8.466  69.097  0.00  0.00    +0.108 C 
ATOM      5  N   UNL     1      -9.939   7.841  68.878  0.00  0.00    -0.304 N 
ATOM      6  C   UNL     1     -10.298   7.269  67.597  0.00  0.00    +0.108 C 
ATOM      7  C   UNL     1     -10.013   8.298  66.542  0.00  0.00    +0.094 C 
BRANCH   5   8
ATOM      8  C   UNL     1     -10.968   7.847  69.875  0.00  0.00    +0.059 A 
ATOM      9  C   UNL     1     -11.435   9.075  70.290  0.00  0.00    +0.081 A 
ATOM     10 CL   UNL     1     -11.522  10.351  69.098  0.00  0.00    -0.080 Cl
ATOM     11  C   UNL     1     -12.044   9.237  71.529  0.00  0.00    +0.069 A 
ATOM     12 CL   UNL     1     -12.998  10.668  71.865  0.00  0.00    -0.081 Cl
ATOM     13  C   UNL     1     -12.027   8.179  72.430  0.00  0.00    +0.012 A 
ATOM     14  C   UNL     1     -11.742   6.911  71.982  0.00  0.00    +0.002 A 
ATOM     15  C   UNL     1     -11.180   6.786  70.724  0.00  0.00    +0.015 A 
ENDBRANCH   5   8
ENDBRANCH   1   2
BRANCH   1  16
ATOM     16  C   UNL     1      -9.677  11.762  66.212  0.00  0.00    +0.017 C 
BRANCH  16  20
ATOM     17  C   UNL     1     -11.391  15.069  66.251  0.00  0.00    +0.097 C 
ATOM     18  C   UNL     1     -12.414  13.883  65.722  0.00  0.00    +0.022 C 
ATOM     19  C   UNL     1     -11.881  12.599  66.236  0.00  0.00    +0.002 C 
ATOM     20  C   UNL     1     -10.871  11.975  65.108  0.00  0.00    +0.001 C 
ATOM     21  C   UNL     1     -10.300  13.443  64.646  0.00  0.00    +0.002 C 
ATOM     22  C   UNL     1     -10.029  14.215  65.882  0.00  0.00    +0.022 C 
BRANCH  17  26
ATOM     23  C   UNL     1     -10.955  15.422  70.691  0.00  0.00    +0.117 C 
ATOM     24  N   UNL     1     -11.566  15.006  70.107  0.00  0.00    -0.259 N 
ATOM     25  C   UNL     1     -11.672  15.439  68.745  0.00  0.00    +0.323 C 
ATOM     26  N   UNL     1     -11.384  14.516  67.733  0.00  0.00    -0.190 NA
ATOM     27  O   UNL     1     -11.676  16.673  68.510  0.00  0.00    -0.251 OA
ATOM     28  C   UNL     1     -12.550  14.078  70.661  0.00  0.00    +0.117 C 
ENDBRANCH  17  26
ENDBRANCH  16  20
ENDBRANCH   1  16
TORSDOF 5
ENDMDL
MODEL 6
REMARK VINA RESULT:      -6.6      5.221      9.188
REMARK  Name = 
REMARK  5 active torsions:
REMARK  status: ('A' for Active; 'I' for Inactive)
REMARK    1  A    between atoms: N_6  and  C_7
REMARK    2  A    between atoms: C_10  and  C_11
REMARK    3  A    between atoms: C_11  and  C_12
REMARK    4  A    between atoms: C_12  and  N_13
REMARK    5  A    between atoms: N_16  and  C_17
REMARK                            x       y       z     vdW  Elec       q    Type
REMARK                         _______ _______ _______ _____ _____    ______ ____
ROOT
ATOM      1  C   UNL     1     -10.278  10.486  66.404  0.00  0.00    +0.072 C 
ENDROOT
BRANCH   1   2
ATOM      2  N   UNL     1     -10.566  11.771  67.004  0.00  0.00    -0.270 NA
ATOM      3  C   UNL     1     -11.550  12.525  66.267  0.00  0.00    +0.094 C 
ATOM      4  C   UNL     1     -11.919  13.726  67.106  0.00  0.00    +0.108 C 
ATOM      5  N   UNL     1     -10.888  14.003  68.074  0.00  0.00    -0.304 N 
ATOM      6  C   UNL     1      -9.484  13.829  67.763  0.00  0.00    +0.108 C 
ATOM      7  C   UNL     1      -9.315  12.459  67.172  0.00  0.00    +0.094 C 
BRANCH   5   8
ATOM      8  C   UNL     1     -11.192  14.359  69.428  0.00  0.00    +0.059 A 
ATOM      9  C   UNL     1     -12.078  13.550  70.108  0.00  0.00    +0.081 A 
ATOM     10 CL   UNL     1     -12.036  11.837  69.761  0.00  0.00    -0.080 Cl
ATOM     11  C   UNL     1     -12.800  14.023  71.197  0.00  0.00    +0.069 A 
ATOM     12 CL   UNL     1     -13.581  12.902  72.294  0.00  0.00    -0.081 Cl
ATOM     13  C   UNL     1     -12.754  15.380  71.496  0.00  0.00    +0.012 A 
ATOM     14  C   UNL     1     -11.754  16.158  70.964  0.00  0.00    +0.002 A 
ATOM     15  C   UNL     1     -11.024  15.635  69.913  0.00  0.00    +0.015 A 
ENDBRANCH   5   8
ENDBRANCH   1   2
BRANCH   1  16
ATOM     16  C   UNL     1     -10.433   9.348  67.368  0.00  0.00    +0.017 C 
BRANCH  16  20
ATOM     17  C   UNL     1     -10.190   6.740  70.016  0.00  0.00    +0.097 C 
ATOM     18  C   UNL     1      -9.136   7.978  70.312  0.00  0.00    +0.022 C 
ATOM     19  C   UNL     1      -9.653   9.162  69.584  0.00  0.00    +0.002 C 
ATOM     20  C   UNL     1      -8.972   9.184  68.095  0.00  0.00    +0.001 C 
ATOM     21  C   UNL     1      -8.983   7.550  67.943  0.00  0.00    +0.002 C 
ATOM     22  C   UNL     1     -10.309   7.077  68.406  0.00  0.00    +0.022 C 
BRANCH  17  26
ATOM     23  C   UNL     1     -14.304   7.485  71.612  0.00  0.00    +0.117 C 
ATOM     24  N   UNL     1     -13.474   7.929  71.660  0.00  0.00    -0.259 N 
ATOM     25  C   UNL     1     -12.257   7.215  71.406  0.00  0.00    +0.323 C 
ATOM     26  N   UNL     1     -11.456   7.631  70.338  0.00  0.00    -0.190 NA
ATOM     27  O   UNL     1     -12.124   6.069  71.904  0.00  0.00    -0.251 OA
ATOM     28  C   UNL     1     -13.429   9.283  72.209  0.00  0.00    +0.117 C 
ENDBRANCH  17  26
ENDBRANCH  16  20
ENDBRANCH   1  16
TORSDOF 5
ENDMDL
MODEL 7
REMARK VINA RESULT:      -6.6      4.498      8.905
REMARK  Name = 
REMARK  5 active torsions:
REMARK  status: ('A' for Active; 'I' for Inactive)
REMARK    1  A    between atoms: N_6  and  C_7
REMARK    2  A    between atoms: C_10  and  C_11
REMARK    3  A    between atoms: C_11  and  C_12
REMARK    4  A    between atoms: C_12  and  N_13
REMARK    5  A    between atoms: N_16  and  C_17
REMARK                            x       y       z     vdW  Elec       q    Type
REMARK                         _______ _______ _______ _____ _____    ______ ____
ROOT
ATOM      1  C   UNL     1     -11.402  12.161  65.538  0.00  0.00    +0.072 C 
ENDROOT
BRANCH   1   2
ATOM      2  N   UNL     1     -11.105  13.508  65.975  0.00  0.00    -0.270 NA
ATOM      3  C   UNL     1     -12.001  13.972  67.006  0.00  0.00    +0.094 C 
ATOM      4  C   UNL     1     -11.453  15.280  67.525  0.00  0.00    +0.108 C 
ATOM      5  N   UNL     1     -10.560  15.872  66.561  0.00  0.00    -0.304 N 
ATOM      6  C   UNL     1     -10.810  15.786  65.137  0.00  0.00    +0.108 C 
ATOM      7  C   UNL     1     -11.081  14.347  64.808  0.00  0.00    +0.094 C 
BRANCH   5   8
ATOM      8  C   UNL     1      -9.322  16.482  66.946  0.00  0.00    +0.059 A 
ATOM      9  C   UNL     1      -9.239  17.855  66.847  0.00  0.00    +0.081 A 
ATOM     10 CL   UNL     1     -10.683  18.778  67.192  0.00  0.00    -0.080 Cl
ATOM     11  C   UNL     1      -8.013  18.498  66.726  0.00  0.00    +0.069 A 
ATOM     12 CL   UNL     1      -7.884  20.220  67.027  0.00  0.00    -0.081 Cl
ATOM     13  C   UNL     1      -6.869  17.734  66.529  0.00  0.00    +0.012 A 
ATOM     14  C   UNL     1      -6.896  16.389  66.807  0.00  0.00    +0.002 A 
ATOM     15  C   UNL     1      -8.133  15.791  66.969  0.00  0.00    +0.015 A 
ENDBRANCH   5   8
ENDBRANCH   1   2
BRANCH   1  16
ATOM     16  C   UNL     1     -11.184  11.140  66.614  0.00  0.00    +0.017 C 
BRANCH  16  20
ATOM     17  C   UNL     1     -10.001   8.881  69.329  0.00  0.00    +0.097 C 
ATOM     18  C   UNL     1      -9.129  10.285  69.310  0.00  0.00    +0.022 C 
ATOM     19  C   UNL     1      -9.966  11.299  68.626  0.00  0.00    +0.002 C 
ATOM     20  C   UNL     1      -9.602  11.269  67.030  0.00  0.00    +0.001 C 
ATOM     21  C   UNL     1      -9.373   9.644  66.998  0.00  0.00    +0.002 C 
ATOM     22  C   UNL     1     -10.486   9.030  67.759  0.00  0.00    +0.022 C 
BRANCH  17  26
ATOM     23  C   UNL     1     -13.459   9.474  72.107  0.00  0.00    +0.117 C 
ATOM     24  N   UNL     1     -12.821  10.035  71.698  0.00  0.00    -0.259 N 
ATOM     25  C   UNL     1     -11.588   9.491  71.211  0.00  0.00    +0.323 C 
ATOM     26  N   UNL     1     -11.310   9.604  69.844  0.00  0.00    -0.190 NA
ATOM     27  O   UNL     1     -10.981   8.655  71.926  0.00  0.00    -0.251 OA
ATOM     28  C   UNL     1     -13.007  11.483  71.771  0.00  0.00    +0.117 C 
ENDBRANCH  17  26
ENDBRANCH  16  20
ENDBRANCH   1  16
TORSDOF 5
ENDMDL
MODEL 8
REMARK VINA RESULT:      -6.4      4.712      7.551
REMARK  Name = 
REMARK  5 active torsions:
REMARK  status: ('A' for Active; 'I' for Inactive)
REMARK    1  A    between atoms: N_6  and  C_7
REMARK    2  A    between atoms: C_10  and  C_11
REMARK    3  A    between atoms: C_11  and  C_12
REMARK    4  A    between atoms: C_12  and  N_13
REMARK    5  A    between atoms: N_16  and  C_17
REMARK                            x       y       z     vdW  Elec       q    Type
REMARK                         _______ _______ _______ _____ _____    ______ ____
ROOT
ATOM      1  C   UNL     1     -11.700  10.868  69.354  0.00  0.00    +0.072 C 
ENDROOT
BRANCH   1   2
ATOM      2  N   UNL     1     -11.512   9.651  70.114  0.00  0.00    -0.270 NA
ATOM      3  C   UNL     1     -12.424   9.539  71.225  0.00  0.00    +0.094 C 
ATOM      4  C   UNL     1     -12.277   8.145  71.790  0.00  0.00    +0.108 C 
ATOM      5  N   UNL     1     -11.012   7.574  71.405  0.00  0.00    -0.304 N 
ATOM      6  C   UNL     1      -9.809   8.375  71.319  0.00  0.00    +0.108 C 
ATOM      7  C   UNL     1     -10.126   9.588  70.493  0.00  0.00    +0.094 C 
BRANCH   5   8
ATOM      8  C   UNL     1     -10.891   6.211  70.979  0.00  0.00    +0.059 A 
ATOM      9  C   UNL     1     -10.426   5.302  71.904  0.00  0.00    +0.081 A 
ATOM     10 CL   UNL     1     -10.885   5.541  73.574  0.00  0.00    -0.080 Cl
ATOM     11  C   UNL     1      -9.828   4.110  71.511  0.00  0.00    +0.069 A 
ATOM     12 CL   UNL     1      -9.632   2.798  72.655  0.00  0.00    -0.081 Cl
ATOM     13  C   UNL     1      -9.543   3.914  70.165  0.00  0.00    +0.012 A 
ATOM     14  C   UNL     1     -10.154   4.703  69.220  0.00  0.00    +0.002 A 
ATOM     15  C   UNL     1     -10.781   5.857  69.655  0.00  0.00    +0.015 A 
ENDBRANCH   5   8
ENDBRANCH   1   2
BRANCH   1  16
ATOM     16  C   UNL     1     -10.448  11.320  68.663  0.00  0.00    +0.017 C 
BRANCH  16  20
ATOM     17  C   UNL     1     -10.528  14.957  67.863  0.00  0.00    +0.097 C 
ATOM     18  C   UNL     1     -11.641  14.132  66.962  0.00  0.00    +0.022 C 
ATOM     19  C   UNL     1     -11.930  12.873  67.688  0.00  0.00    +0.002 C 
ATOM     20  C   UNL     1     -10.905  11.720  67.139  0.00  0.00    +0.001 C 
ATOM     21  C   UNL     1      -9.654  12.764  66.946  0.00  0.00    +0.002 C 
ATOM     22  C   UNL     1      -9.608  13.619  68.156  0.00  0.00    +0.022 C 
BRANCH  17  26
ATOM     23  C   UNL     1     -11.880  16.072  71.981  0.00  0.00    +0.117 C 
ATOM     24  N   UNL     1     -12.297  15.745  71.201  0.00  0.00    -0.259 N 
ATOM     25  C   UNL     1     -11.665  15.900  69.925  0.00  0.00    +0.323 C 
ATOM     26  N   UNL     1     -11.335  14.745  69.206  0.00  0.00    -0.190 NA
ATOM     27  O   UNL     1     -11.128  17.003  69.654  0.00  0.00    -0.251 OA
ATOM     28  C   UNL     1     -13.683  15.287  71.284  0.00  0.00    +0.117 C 
ENDBRANCH  17  26
ENDBRANCH  16  20
ENDBRANCH   1  16
TORSDOF 5
ENDMDL
MODEL 9
REMARK VINA RESULT:      -6.4      2.637      4.110
REMARK  Name = 
REMARK  5 active torsions:
REMARK  status: ('A' for Active; 'I' for Inactive)
REMARK    1  A    between atoms: N_6  and  C_7
REMARK    2  A    between atoms: C_10  and  C_11
REMARK    3  A    between atoms: C_11  and  C_12
REMARK    4  A    between atoms: C_12  and  N_13
REMARK    5  A    between atoms: N_16  and  C_17
REMARK                            x       y       z     vdW  Elec       q    Type
REMARK                         _______ _______ _______ _____ _____    ______ ____
ROOT
ATOM      1  C   UNL     1     -10.591  16.237  65.375  0.00  0.00    +0.072 C 
ENDROOT
BRANCH   1   2
ATOM      2  N   UNL     1     -10.710  14.815  65.610  0.00  0.00    -0.270 NA
ATOM      3  C   UNL     1     -11.982  14.446  66.181  0.00  0.00    +0.094 C 
ATOM      4  C   UNL     1     -12.062  12.937  66.167  0.00  0.00    +0.108 C 
ATOM      5  N   UNL     1     -10.745  12.361  66.071  0.00  0.00    -0.304 N 
ATOM      6  C   UNL     1      -9.605  12.949  66.743  0.00  0.00    +0.108 C 
ATOM      7  C   UNL     1      -9.580  14.411  66.403  0.00  0.00    +0.094 C 
BRANCH   5   8
ATOM      8  C   UNL     1     -10.466  11.243  65.220  0.00  0.00    +0.059 A 
ATOM      9  C   UNL     1      -9.989  10.098  65.822  0.00  0.00    +0.081 A 
ATOM     10 CL   UNL     1     -10.595   9.711  67.415  0.00  0.00    -0.080 Cl
ATOM     11  C   UNL     1      -9.254   9.158  65.109  0.00  0.00    +0.069 A 
ATOM     12 CL   UNL     1      -9.025   7.543  65.750  0.00  0.00    -0.081 Cl
ATOM     13  C   UNL     1      -8.850   9.462  63.815  0.00  0.00    +0.012 A 
ATOM     14  C   UNL     1      -9.458  10.492  63.138  0.00  0.00    +0.002 A 
ATOM     15  C   UNL     1     -10.222  11.381  63.874  0.00  0.00    +0.015 A 
ENDBRANCH   5   8
ENDBRANCH   1   2
BRANCH   1  16
ATOM     16  C   UNL     1      -9.795  16.937  66.436  0.00  0.00    +0.017 C 
BRANCH  16  20
ATOM     17  C   UNL     1      -8.542  20.236  67.625  0.00  0.00    +0.097 C 
ATOM     18  C   UNL     1      -9.733  19.666  68.620  0.00  0.00    +0.022 C 
ATOM     19  C   UNL     1      -9.783  18.198  68.427  0.00  0.00    +0.002 C 
ATOM     20  C   UNL     1     -10.871  17.874  67.247  0.00  0.00    +0.001 C 
ATOM     21  C   UNL     1     -10.491  19.212  66.375  0.00  0.00    +0.002 C 
ATOM     22  C   UNL     1      -9.013  19.309  66.345  0.00  0.00    +0.022 C 
BRANCH  17  26
ATOM     23  C   UNL     1      -4.483  18.727  68.753  0.00  0.00    +0.117 C 
ATOM     24  N   UNL     1      -5.354  18.640  69.104  0.00  0.00    -0.259 N 
ATOM     25  C   UNL     1      -6.368  19.594  68.761  0.00  0.00    +0.323 C 
ATOM     26  N   UNL     1      -7.509  19.135  68.094  0.00  0.00    -0.190 NA
ATOM     27  O   UNL     1      -6.062  20.812  68.753  0.00  0.00    -0.251 OA
ATOM     28  C   UNL     1      -5.592  17.664  70.165  0.00  0.00    +0.117 C 
ENDBRANCH  17  26
ENDBRANCH  16  20
ENDBRANCH   1  16
TORSDOF 5
ENDMDL
