MODEL 1
REMARK VINA RESULT:      -6.0      0.000      0.000
REMARK  Name = 
REMARK  2 active torsions:
REMARK  status: ('A' for Active; 'I' for Inactive)
REMARK    1  A    between atoms: S_2  and  C_5
REMARK    2  A    between atoms: C_5  and  C_6
REMARK                            x       y       z     vdW  Elec       q    Type
REMARK                         _______ _______ _______ _____ _____    ______ ____
ROOT
ATOM      1  C   UNL     1     -11.174  15.543  65.167  0.00  0.00    +0.126 A 
ATOM      2  C   UNL     1     -10.361  16.103  66.149  0.00  0.00    +0.056 A 
ATOM      3  C   UNL     1     -10.520  17.480  66.053  0.00  0.00    +0.177 A 
ATOM      4  C   UNL     1     -10.009  18.243  67.077  0.00  0.00    +0.040 A 
ATOM      5  C   UNL     1      -8.979  17.707  67.841  0.00  0.00    +0.003 A 
ATOM      6  C   UNL     1      -8.936  16.345  68.065  0.00  0.00    +0.000 A 
ATOM      7  O   UNL     1     -10.942  17.683  64.827  0.00  0.00    -0.354 OA
ATOM      8  C   UNL     1      -9.741  15.568  67.246  0.00  0.00    +0.004 A 
ATOM      9  N   UNL     1     -11.313  16.556  64.277  0.00  0.00    -0.080 NA
ENDROOT
BRANCH   1  10
ATOM     10  C   UNL     1     -10.937  14.133  64.727  0.00  0.00    +0.221 C 
BRANCH  10  12
ATOM     11  N   UNL     1     -12.810  12.224  63.599  0.00  0.00    +0.035 NA
ATOM     12  S   UNL     1     -12.314  13.084  65.022  0.00  0.00    +0.080 S 
ATOM     13  O   UNL     1     -12.120  12.132  66.150  0.00  0.00    -0.154 OA
ATOM     14  O   UNL     1     -13.478  13.971  65.398  0.00  0.00    -0.154 OA
ENDBRANCH  10  12
ENDBRANCH   1  10
TORSDOF 2
ENDMDL
MODEL 2
REMARK VINA RESULT:      -5.7      2.901      5.066
REMARK  Name = 
REMARK  2 active torsions:
REMARK  status: ('A' for Active; 'I' for Inactive)
REMARK    1  A    between atoms: S_2  and  C_5
REMARK    2  A    between atoms: C_5  and  C_6
REMARK                            x       y       z     vdW  Elec       q    Type
REMARK                         _______ _______ _______ _____ _____    ______ ____
ROOT
ATOM      1  C   UNL     1     -10.524  16.411  65.592  0.00  0.00    +0.126 A 
ATOM      2  C   UNL     1     -11.151  15.168  65.643  0.00  0.00    +0.056 A 
ATOM      3  C   UNL     1     -11.712  14.960  64.389  0.00  0.00    +0.177 A 
ATOM      4  C   UNL     1     -12.176  13.695  64.112  0.00  0.00    +0.040 A 
ATOM      5  C   UNL     1     -12.522  12.877  65.181  0.00  0.00    +0.003 A 
ATOM      6  C   UNL     1     -11.834  12.987  66.373  0.00  0.00    +0.000 A 
ATOM      7  O   UNL     1     -11.847  16.161  63.879  0.00  0.00    -0.354 OA
ATOM      8  C   UNL     1     -11.058  14.126  66.525  0.00  0.00    +0.004 A 
ATOM      9  N   UNL     1     -11.175  17.036  64.582  0.00  0.00    -0.080 NA
ENDROOT
BRANCH   1  10
ATOM     10  C   UNL     1     -10.180  17.117  66.865  0.00  0.00    +0.221 C 
BRANCH  10  12
ATOM     11  N   UNL     1      -7.655  17.937  65.691  0.00  0.00    +0.035 NA
ATOM     12  S   UNL     1      -9.029  18.423  66.633  0.00  0.00    +0.080 S 
ATOM     13  O   UNL     1      -9.624  19.662  66.063  0.00  0.00    -0.154 OA
ATOM     14  O   UNL     1      -8.488  18.789  67.996  0.00  0.00    -0.154 OA
ENDBRANCH  10  12
ENDBRANCH   1  10
TORSDOF 2
ENDMDL
MODEL 3
REMARK VINA RESULT:      -5.6      3.656      4.947
REMARK  Name = 
REMARK  2 active torsions:
REMARK  status: ('A' for Active; 'I' for Inactive)
REMARK    1  A    between atoms: S_2  and  C_5
REMARK    2  A    between atoms: C_5  and  C_6
REMARK                            x       y       z     vdW  Elec       q    Type
REMARK                         _______ _______ _______ _____ _____    ______ ____
ROOT
ATOM      1  C   UNL     1     -11.545  12.875  67.363  0.00  0.00    +0.126 A 
ATOM      2  C   UNL     1     -11.952  12.900  68.694  0.00  0.00    +0.056 A 
ATOM      3  C   UNL     1     -11.884  11.589  69.150  0.00  0.00    +0.177 A 
ATOM      4  C   UNL     1     -12.001  11.390  70.506  0.00  0.00    +0.040 A 
ATOM      5  C   UNL     1     -12.654  12.361  71.256  0.00  0.00    +0.003 A 
ATOM      6  C   UNL     1     -12.568  13.685  70.876  0.00  0.00    +0.000 A 
ATOM      7  O   UNL     1     -11.954  10.853  68.066  0.00  0.00    -0.354 OA
ATOM      8  C   UNL     1     -12.102  13.922  69.592  0.00  0.00    +0.004 A 
ATOM      9  N   UNL     1     -11.779  11.590  66.999  0.00  0.00    -0.080 NA
ENDROOT
BRANCH   1  10
ATOM     10  C   UNL     1     -11.885  14.023  66.465  0.00  0.00    +0.221 C 
BRANCH  10  12
ATOM     11  N   UNL     1     -10.733  12.949  64.026  0.00  0.00    +0.035 NA
ATOM     12  S   UNL     1     -12.171  13.530  64.803  0.00  0.00    +0.080 S 
ATOM     13  O   UNL     1     -13.271  12.540  64.646  0.00  0.00    -0.154 OA
ATOM     14  O   UNL     1     -12.586  14.765  64.038  0.00  0.00    -0.154 OA
ENDBRANCH  10  12
ENDBRANCH   1  10
TORSDOF 2
ENDMDL
MODEL 4
REMARK VINA RESULT:      -5.4      3.308      3.735
REMARK  Name = 
REMARK  2 active torsions:
REMARK  status: ('A' for Active; 'I' for Inactive)
REMARK    1  A    between atoms: S_2  and  C_5
REMARK    2  A    between atoms: C_5  and  C_6
REMARK                            x       y       z     vdW  Elec       q    Type
REMARK                         _______ _______ _______ _____ _____    ______ ____
ROOT
ATOM      1  C   UNL     1     -11.323  15.006  67.593  0.00  0.00    +0.126 A 
ATOM      2  C   UNL     1     -11.684  14.614  68.879  0.00  0.00    +0.056 A 
ATOM      3  C   UNL     1     -11.989  15.778  69.574  0.00  0.00    +0.177 A 
ATOM      4  C   UNL     1     -12.609  15.636  70.793  0.00  0.00    +0.040 A 
ATOM      5  C   UNL     1     -12.449  14.435  71.473  0.00  0.00    +0.003 A 
ATOM      6  C   UNL     1     -12.314  13.261  70.759  0.00  0.00    +0.000 A 
ATOM      7  O   UNL     1     -11.358  16.729  68.927  0.00  0.00    -0.354 OA
ATOM      8  C   UNL     1     -12.028  13.400  69.409  0.00  0.00    +0.004 A 
ATOM      9  N   UNL     1     -10.938  16.294  67.767  0.00  0.00    -0.080 NA
ENDROOT
BRANCH   1  10
ATOM     10  C   UNL     1     -10.554  14.064  66.722  0.00  0.00    +0.221 C 
BRANCH  10  12
ATOM     11  N   UNL     1     -13.044  14.079  65.231  0.00  0.00    +0.035 NA
ATOM     12  S   UNL     1     -11.569  13.227  65.558  0.00  0.00    +0.080 S 
ATOM     13  O   UNL     1     -10.879  12.894  64.282  0.00  0.00    -0.154 OA
ATOM     14  O   UNL     1     -11.977  11.915  66.185  0.00  0.00    -0.154 OA
ENDBRANCH  10  12
ENDBRANCH   1  10
TORSDOF 2
ENDMDL
MODEL 5
REMARK VINA RESULT:      -5.3      4.508      4.947
REMARK  Name = 
REMARK  2 active torsions:
REMARK  status: ('A' for Active; 'I' for Inactive)
REMARK    1  A    between atoms: S_2  and  C_5
REMARK    2  A    between atoms: C_5  and  C_6
REMARK                            x       y       z     vdW  Elec       q    Type
REMARK                         _______ _______ _______ _____ _____    ______ ____
ROOT
ATOM      1  C   UNL     1     -11.621  14.383  69.049  0.00  0.00    +0.126 A 
ATOM      2  C   UNL     1     -12.265  14.156  70.262  0.00  0.00    +0.056 A 
ATOM      3  C   UNL     1     -12.769  15.383  70.675  0.00  0.00    +0.177 A 
ATOM      4  C   UNL     1     -13.658  15.376  71.724  0.00  0.00    +0.040 A 
ATOM      5  C   UNL     1     -13.623  14.300  72.604  0.00  0.00    +0.003 A 
ATOM      6  C   UNL     1     -13.279  13.048  72.134  0.00  0.00    +0.000 A 
ATOM      7  O   UNL     1     -12.036  16.274  70.050  0.00  0.00    -0.354 OA
ATOM      8  C   UNL     1     -12.683  13.010  70.883  0.00  0.00    +0.004 A 
ATOM      9  N   UNL     1     -11.335  15.707  69.102  0.00  0.00    -0.080 NA
ENDROOT
BRANCH   1  10
ATOM     10  C   UNL     1     -10.633  13.382  68.539  0.00  0.00    +0.221 C 
BRANCH  10  12
ATOM     11  N   UNL     1     -10.053  11.817  66.164  0.00  0.00    +0.035 NA
ATOM     12  S   UNL     1     -11.282  12.373  67.256  0.00  0.00    +0.080 S 
ATOM     13  O   UNL     1     -12.092  11.223  67.740  0.00  0.00    -0.154 OA
ATOM     14  O   UNL     1     -12.206  13.239  66.433  0.00  0.00    -0.154 OA
ENDBRANCH  10  12
ENDBRANCH   1  10
TORSDOF 2
ENDMDL
MODEL 6
REMARK VINA RESULT:      -5.3      1.168      1.347
REMARK  Name = 
REMARK  2 active torsions:
REMARK  status: ('A' for Active; 'I' for Inactive)
REMARK    1  A    between atoms: S_2  and  C_5
REMARK    2  A    between atoms: C_5  and  C_6
REMARK                            x       y       z     vdW  Elec       q    Type
REMARK                         _______ _______ _______ _____ _____    ______ ____
ROOT
ATOM      1  C   UNL     1     -10.675  16.394  65.677  0.00  0.00    +0.126 A 
ATOM      2  C   UNL     1      -9.928  17.200  66.531  0.00  0.00    +0.056 A 
ATOM      3  C   UNL     1     -10.376  18.501  66.338  0.00  0.00    +0.177 A 
ATOM      4  C   UNL     1      -9.963  19.449  67.244  0.00  0.00    +0.040 A 
ATOM      5  C   UNL     1      -8.792  19.209  67.954  0.00  0.00    +0.003 A 
ATOM      6  C   UNL     1      -8.450  17.913  68.283  0.00  0.00    +0.000 A 
ATOM      7  O   UNL     1     -10.920  18.492  65.143  0.00  0.00    -0.354 OA
ATOM      8  C   UNL     1      -9.132  16.912  67.607  0.00  0.00    +0.004 A 
ATOM      9  N   UNL     1     -11.086  17.265  64.723  0.00  0.00    -0.080 NA
ENDROOT
BRANCH   1  10
ATOM     10  C   UNL     1     -10.181  15.024  65.334  0.00  0.00    +0.221 C 
BRANCH  10  12
ATOM     11  N   UNL     1     -12.489  14.091  63.841  0.00  0.00    +0.035 NA
ATOM     12  S   UNL     1     -11.474  13.839  65.225  0.00  0.00    +0.080 S 
ATOM     13  O   UNL     1     -11.006  12.427  65.263  0.00  0.00    -0.154 OA
ATOM     14  O   UNL     1     -12.361  14.035  66.432  0.00  0.00    -0.154 OA
ENDBRANCH  10  12
ENDBRANCH   1  10
TORSDOF 2
ENDMDL
MODEL 7
REMARK VINA RESULT:      -5.3      3.488      4.348
REMARK  Name = 
REMARK  2 active torsions:
REMARK  status: ('A' for Active; 'I' for Inactive)
REMARK    1  A    between atoms: S_2  and  C_5
REMARK    2  A    between atoms: C_5  and  C_6
REMARK                            x       y       z     vdW  Elec       q    Type
REMARK                         _______ _______ _______ _____ _____    ______ ____
ROOT
ATOM      1  C   UNL     1     -11.641  14.618  67.433  0.00  0.00    +0.126 A 
ATOM      2  C   UNL     1     -11.689  13.487  68.245  0.00  0.00    +0.056 A 
ATOM      3  C   UNL     1     -12.027  13.931  69.517  0.00  0.00    +0.177 A 
ATOM      4  C   UNL     1     -12.377  12.976  70.443  0.00  0.00    +0.040 A 
ATOM      5  C   UNL     1     -11.913  11.680  70.252  0.00  0.00    +0.003 A 
ATOM      6  C   UNL     1     -11.743  11.200  68.968  0.00  0.00    +0.000 A 
ATOM      7  O   UNL     1     -11.679  15.197  69.533  0.00  0.00    -0.354 OA
ATOM      8  C   UNL     1     -11.742  12.150  67.958  0.00  0.00    +0.004 A 
ATOM      9  N   UNL     1     -11.426  15.618  68.322  0.00  0.00    -0.080 NA
ENDROOT
BRANCH   1  10
ATOM     10  C   UNL     1     -10.920  14.557  66.124  0.00  0.00    +0.221 C 
BRANCH  10  12
ATOM     11  N   UNL     1     -12.162  15.938  63.893  0.00  0.00    +0.035 NA
ATOM     12  S   UNL     1     -12.007  14.437  64.749  0.00  0.00    +0.080 S 
ATOM     13  O   UNL     1     -11.666  13.343  63.800  0.00  0.00    -0.154 OA
ATOM     14  O   UNL     1     -13.381  14.127  65.294  0.00  0.00    -0.154 OA
ENDBRANCH  10  12
ENDBRANCH   1  10
TORSDOF 2
ENDMDL
MODEL 8
REMARK VINA RESULT:      -5.2      3.329      5.110
REMARK  Name = 
REMARK  2 active torsions:
REMARK  status: ('A' for Active; 'I' for Inactive)
REMARK    1  A    between atoms: S_2  and  C_5
REMARK    2  A    between atoms: C_5  and  C_6
REMARK                            x       y       z     vdW  Elec       q    Type
REMARK                         _______ _______ _______ _____ _____    ______ ____
ROOT
ATOM      1  C   UNL     1     -11.929  13.835  66.088  0.00  0.00    +0.126 A 
ATOM      2  C   UNL     1     -11.270  12.724  65.567  0.00  0.00    +0.056 A 
ATOM      3  C   UNL     1     -11.709  12.585  64.256  0.00  0.00    +0.177 A 
ATOM      4  C   UNL     1     -11.019  11.707  63.454  0.00  0.00    +0.040 A 
ATOM      5  C   UNL     1     -10.304  10.685  64.066  0.00  0.00    +0.003 A 
ATOM      6  C   UNL     1      -9.731  10.902  65.303  0.00  0.00    +0.000 A 
ATOM      7  O   UNL     1     -12.865  13.206  64.223  0.00  0.00    -0.354 OA
ATOM      8  C   UNL     1     -10.177  12.019  65.993  0.00  0.00    +0.004 A 
ATOM      9  N   UNL     1     -13.027  13.931  65.299  0.00  0.00    -0.080 NA
ENDROOT
BRANCH   1  10
ATOM     10  C   UNL     1     -12.003  14.022  67.570  0.00  0.00    +0.221 C 
BRANCH  10  12
ATOM     11  N   UNL     1     -10.465  16.365  66.813  0.00  0.00    +0.035 NA
ATOM     12  S   UNL     1     -11.142  15.450  68.123  0.00  0.00    +0.080 S 
ATOM     13  O   UNL     1     -11.946  16.340  69.003  0.00  0.00    -0.154 OA
ATOM     14  O   UNL     1      -9.968  14.972  68.945  0.00  0.00    -0.154 OA
ENDBRANCH  10  12
ENDBRANCH   1  10
TORSDOF 2
ENDMDL
MODEL 9
REMARK VINA RESULT:      -5.0      1.897      2.549
REMARK  Name = 
REMARK  2 active torsions:
REMARK  status: ('A' for Active; 'I' for Inactive)
REMARK    1  A    between atoms: S_2  and  C_5
REMARK    2  A    between atoms: C_5  and  C_6
REMARK                            x       y       z     vdW  Elec       q    Type
REMARK                         _______ _______ _______ _____ _____    ______ ____
ROOT
ATOM      1  C   UNL     1     -10.208  16.284  66.001  0.00  0.00    +0.126 A 
ATOM      2  C   UNL     1     -10.222  17.552  66.575  0.00  0.00    +0.056 A 
ATOM      3  C   UNL     1      -9.659  17.418  67.838  0.00  0.00    +0.177 A 
ATOM      4  C   UNL     1      -9.337  18.575  68.508  0.00  0.00    +0.040 A 
ATOM      5  C   UNL     1     -10.009  19.741  68.159  0.00  0.00    +0.003 A 
ATOM      6  C   UNL     1     -10.413  19.928  66.852  0.00  0.00    +0.000 A 
ATOM      7  O   UNL     1      -9.812  16.150  68.139  0.00  0.00    -0.354 OA
ATOM      8  C   UNL     1     -10.406  18.801  66.045  0.00  0.00    +0.004 A 
ATOM      9  N   UNL     1     -10.155  15.465  67.079  0.00  0.00    -0.080 NA
ENDROOT
BRANCH   1  10
ATOM     10  C   UNL     1     -11.095  15.992  64.832  0.00  0.00    +0.221 C 
BRANCH  10  12
ATOM     11  N   UNL     1     -10.463  13.164  64.671  0.00  0.00    +0.035 NA
ATOM     12  S   UNL     1     -11.718  14.350  64.839  0.00  0.00    +0.080 S 
ATOM     13  O   UNL     1     -12.568  14.029  66.017  0.00  0.00    -0.154 OA
ATOM     14  O   UNL     1     -12.595  14.201  63.618  0.00  0.00    -0.154 OA
ENDBRANCH  10  12
ENDBRANCH   1  10
TORSDOF 2
ENDMDL
