MODEL 1
REMARK VINA RESULT:      -4.5      0.000      0.000
REMARK  Name = 
REMARK  1 active torsions:
REMARK  status: ('A' for Active; 'I' for Inactive)
REMARK    1  A    between atoms: C_2  and  C_4
REMARK                            x       y       z     vdW  Elec       q    Type
REMARK                         _______ _______ _______ _____ _____    ______ ____
ROOT
ATOM      1  C   UNL     1     -10.416  15.611  65.685  0.00  0.00    +0.095 A 
ATOM      2  C   UNL     1     -11.364  15.522  64.669  0.00  0.00    +0.200 A 
ATOM      3  O   UNL     1     -11.564  16.663  63.908  0.00  0.00    -0.286 OA
ATOM      4  C   UNL     1     -12.221  14.442  64.551  0.00  0.00    +0.042 A 
ATOM      5  C   UNL     1     -12.407  13.629  65.664  0.00  0.00    +0.003 A 
ATOM      6  C   UNL     1     -11.309  13.508  66.504  0.00  0.00    +0.000 A 
ATOM      7  C   UNL     1     -10.319  14.473  66.477  0.00  0.00    +0.008 A 
ENDROOT
BRANCH   1   9
ATOM      8  N   UNL     1     -10.461  17.287  67.528  0.00  0.00    -0.084 NA
ATOM      9  C   UNL     1     -10.006  16.913  66.226  0.00  0.00    +0.287 C 
ATOM     10  O   UNL     1      -8.901  17.360  65.858  0.00  0.00    -0.267 OA
ENDBRANCH   1   9
TORSDOF 1
ENDMDL
MODEL 2
REMARK VINA RESULT:      -4.4      5.615      6.404
REMARK  Name = 
REMARK  1 active torsions:
REMARK  status: ('A' for Active; 'I' for Inactive)
REMARK    1  A    between atoms: C_2  and  C_4
REMARK                            x       y       z     vdW  Elec       q    Type
REMARK                         _______ _______ _______ _____ _____    ______ ____
ROOT
ATOM      1  C   UNL     1     -12.585  14.573  71.238  0.00  0.00    +0.095 A 
ATOM      2  C   UNL     1     -11.752  15.687  71.272  0.00  0.00    +0.200 A 
ATOM      3  O   UNL     1     -11.897  16.536  72.359  0.00  0.00    -0.286 OA
ATOM      4  C   UNL     1     -10.973  16.061  70.191  0.00  0.00    +0.042 A 
ATOM      5  C   UNL     1     -11.310  15.560  68.938  0.00  0.00    +0.003 A 
ATOM      6  C   UNL     1     -11.873  14.293  68.935  0.00  0.00    +0.000 A 
ATOM      7  C   UNL     1     -12.466  13.806  70.085  0.00  0.00    +0.008 A 
ENDROOT
BRANCH   1   9
ATOM      8  N   UNL     1     -14.926  15.353  71.587  0.00  0.00    -0.084 NA
ATOM      9  C   UNL     1     -13.832  14.537  72.012  0.00  0.00    +0.287 C 
ATOM     10  O   UNL     1     -14.111  13.468  72.592  0.00  0.00    -0.267 OA
ENDBRANCH   1   9
TORSDOF 1
ENDMDL
MODEL 3
REMARK VINA RESULT:      -4.3      1.861      2.622
REMARK  Name = 
REMARK  1 active torsions:
REMARK  status: ('A' for Active; 'I' for Inactive)
REMARK    1  A    between atoms: C_2  and  C_4
REMARK                            x       y       z     vdW  Elec       q    Type
REMARK                         _______ _______ _______ _____ _____    ______ ____
ROOT
ATOM      1  C   UNL     1     -11.609  14.632  65.339  0.00  0.00    +0.095 A 
ATOM      2  C   UNL     1     -11.806  14.127  66.621  0.00  0.00    +0.200 A 
ATOM      3  O   UNL     1     -11.751  15.041  67.662  0.00  0.00    -0.286 OA
ATOM      4  C   UNL     1     -11.839  12.768  66.883  0.00  0.00    +0.042 A 
ATOM      5  C   UNL     1     -11.287  11.907  65.940  0.00  0.00    +0.003 A 
ATOM      6  C   UNL     1     -11.387  12.324  64.621  0.00  0.00    +0.000 A 
ATOM      7  C   UNL     1     -11.581  13.664  64.342  0.00  0.00    +0.008 A 
ENDROOT
BRANCH   1   9
ATOM      8  N   UNL     1      -9.539  16.016  65.449  0.00  0.00    -0.084 NA
ATOM      9  C   UNL     1     -10.928  15.916  65.128  0.00  0.00    +0.287 C 
ATOM     10  O   UNL     1     -11.353  16.641  64.206  0.00  0.00    -0.267 OA
ENDBRANCH   1   9
TORSDOF 1
ENDMDL
MODEL 4
REMARK VINA RESULT:      -4.3      2.269      3.436
REMARK  Name = 
REMARK  1 active torsions:
REMARK  status: ('A' for Active; 'I' for Inactive)
REMARK    1  A    between atoms: C_2  and  C_4
REMARK                            x       y       z     vdW  Elec       q    Type
REMARK                         _______ _______ _______ _____ _____    ______ ____
ROOT
ATOM      1  C   UNL     1     -11.225  14.824  65.729  0.00  0.00    +0.095 A 
ATOM      2  C   UNL     1     -10.658  16.048  65.387  0.00  0.00    +0.200 A 
ATOM      3  O   UNL     1     -11.243  16.728  64.329  0.00  0.00    -0.286 OA
ATOM      4  C   UNL     1      -9.451  16.476  65.912  0.00  0.00    +0.042 A 
ATOM      5  C   UNL     1      -8.610  15.524  66.478  0.00  0.00    +0.003 A 
ATOM      6  C   UNL     1      -9.247  14.451  67.084  0.00  0.00    +0.000 A 
ATOM      7  C   UNL     1     -10.547  14.140  66.732  0.00  0.00    +0.008 A 
ENDROOT
BRANCH   1   9
ATOM      8  N   UNL     1     -11.438  13.074  63.968  0.00  0.00    -0.084 NA
ATOM      9  C   UNL     1     -12.056  14.081  64.772  0.00  0.00    +0.287 C 
ATOM     10  O   UNL     1     -13.256  13.916  65.069  0.00  0.00    -0.267 OA
ENDBRANCH   1   9
TORSDOF 1
ENDMDL
MODEL 5
REMARK VINA RESULT:      -4.3      5.366      5.920
REMARK  Name = 
REMARK  1 active torsions:
REMARK  status: ('A' for Active; 'I' for Inactive)
REMARK    1  A    between atoms: C_2  and  C_4
REMARK                            x       y       z     vdW  Elec       q    Type
REMARK                         _______ _______ _______ _____ _____    ______ ____
ROOT
ATOM      1  C   UNL     1     -11.622  15.312  71.075  0.00  0.00    +0.095 A 
ATOM      2  C   UNL     1     -12.214  14.060  70.932  0.00  0.00    +0.200 A 
ATOM      3  O   UNL     1     -11.874  13.341  69.797  0.00  0.00    -0.286 OA
ATOM      4  C   UNL     1     -13.249  13.634  71.747  0.00  0.00    +0.042 A 
ATOM      5  C   UNL     1     -13.962  14.596  72.454  0.00  0.00    +0.003 A 
ATOM      6  C   UNL     1     -13.235  15.711  72.844  0.00  0.00    +0.000 A 
ATOM      7  C   UNL     1     -12.066  16.031  72.179  0.00  0.00    +0.008 A 
ENDROOT
BRANCH   1   9
ATOM      8  N   UNL     1      -9.731  15.723  69.506  0.00  0.00    -0.084 NA
ATOM      9  C   UNL     1     -11.066  16.023  69.917  0.00  0.00    +0.287 C 
ATOM     10  O   UNL     1     -11.868  16.382  69.031  0.00  0.00    -0.267 OA
ENDBRANCH   1   9
TORSDOF 1
ENDMDL
MODEL 6
REMARK VINA RESULT:      -4.2      3.425      3.816
REMARK  Name = 
REMARK  1 active torsions:
REMARK  status: ('A' for Active; 'I' for Inactive)
REMARK    1  A    between atoms: C_2  and  C_4
REMARK                            x       y       z     vdW  Elec       q    Type
REMARK                         _______ _______ _______ _____ _____    ______ ____
ROOT
ATOM      1  C   UNL     1     -11.329  12.746  65.949  0.00  0.00    +0.095 A 
ATOM      2  C   UNL     1     -12.153  13.199  64.924  0.00  0.00    +0.200 A 
ATOM      3  O   UNL     1     -13.243  13.969  65.299  0.00  0.00    -0.286 OA
ATOM      4  C   UNL     1     -12.036  12.739  63.623  0.00  0.00    +0.042 A 
ATOM      5  C   UNL     1     -11.360  11.542  63.412  0.00  0.00    +0.003 A 
ATOM      6  C   UNL     1     -10.327  11.276  64.299  0.00  0.00    +0.000 A 
ATOM      7  C   UNL     1     -10.306  11.903  65.531  0.00  0.00    +0.008 A 
ENDROOT
BRANCH   1   9
ATOM      8  N   UNL     1     -12.015  11.384  67.920  0.00  0.00    -0.084 NA
ATOM      9  C   UNL     1     -11.814  12.672  67.333  0.00  0.00    +0.287 C 
ATOM     10  O   UNL     1     -11.495  13.603  68.099  0.00  0.00    -0.267 OA
ENDBRANCH   1   9
TORSDOF 1
ENDMDL
MODEL 7
REMARK VINA RESULT:      -4.2      3.291      4.033
REMARK  Name = 
REMARK  1 active torsions:
REMARK  status: ('A' for Active; 'I' for Inactive)
REMARK    1  A    between atoms: C_2  and  C_4
REMARK                            x       y       z     vdW  Elec       q    Type
REMARK                         _______ _______ _______ _____ _____    ______ ____
ROOT
ATOM      1  C   UNL     1     -11.836  13.168  66.488  0.00  0.00    +0.095 A 
ATOM      2  C   UNL     1     -12.439  13.464  65.269  0.00  0.00    +0.200 A 
ATOM      3  O   UNL     1     -13.134  12.434  64.656  0.00  0.00    -0.286 OA
ATOM      4  C   UNL     1     -12.188  14.642  64.586  0.00  0.00    +0.042 A 
ATOM      5  C   UNL     1     -11.043  15.359  64.917  0.00  0.00    +0.003 A 
ATOM      6  C   UNL     1     -10.647  15.270  66.244  0.00  0.00    +0.000 A 
ATOM      7  C   UNL     1     -11.074  14.205  67.015  0.00  0.00    +0.008 A 
ENDROOT
BRANCH   1   9
ATOM      8  N   UNL     1     -10.266  11.234  66.536  0.00  0.00    -0.084 NA
ATOM      9  C   UNL     1     -11.543  11.781  66.870  0.00  0.00    +0.287 C 
ATOM     10  O   UNL     1     -12.098  11.346  67.900  0.00  0.00    -0.267 OA
ENDBRANCH   1   9
TORSDOF 1
ENDMDL
MODEL 8
REMARK VINA RESULT:      -4.2      3.282      4.224
REMARK  Name = 
REMARK  1 active torsions:
REMARK  status: ('A' for Active; 'I' for Inactive)
REMARK    1  A    between atoms: C_2  and  C_4
REMARK                            x       y       z     vdW  Elec       q    Type
REMARK                         _______ _______ _______ _____ _____    ______ ____
ROOT
ATOM      1  C   UNL     1     -12.050  12.516  65.272  0.00  0.00    +0.095 A 
ATOM      2  C   UNL     1     -12.412  13.766  65.766  0.00  0.00    +0.200 A 
ATOM      3  O   UNL     1     -13.029  14.629  64.875  0.00  0.00    -0.286 OA
ATOM      4  C   UNL     1     -11.994  14.220  67.005  0.00  0.00    +0.042 A 
ATOM      5  C   UNL     1     -10.897  13.599  67.594  0.00  0.00    +0.003 A 
ATOM      6  C   UNL     1     -10.749  12.250  67.304  0.00  0.00    +0.000 A 
ATOM      7  C   UNL     1     -11.352  11.724  66.176  0.00  0.00    +0.008 A 
ENDROOT
BRANCH   1   9
ATOM      8  N   UNL     1     -10.593  11.954  63.330  0.00  0.00    -0.084 NA
ATOM      9  C   UNL     1     -11.889  12.290  63.830  0.00  0.00    +0.287 C 
ATOM     10  O   UNL     1     -12.873  11.837  63.212  0.00  0.00    -0.267 OA
ENDBRANCH   1   9
TORSDOF 1
ENDMDL
MODEL 9
REMARK VINA RESULT:      -4.1      5.913      6.519
REMARK  Name = 
REMARK  1 active torsions:
REMARK  status: ('A' for Active; 'I' for Inactive)
REMARK    1  A    between atoms: C_2  and  C_4
REMARK                            x       y       z     vdW  Elec       q    Type
REMARK                         _______ _______ _______ _____ _____    ______ ____
ROOT
ATOM      1  C   UNL     1     -13.070  14.982  71.273  0.00  0.00    +0.095 A 
ATOM      2  C   UNL     1     -12.948  13.597  71.201  0.00  0.00    +0.200 A 
ATOM      3  O   UNL     1     -13.448  12.875  72.274  0.00  0.00    -0.286 OA
ATOM      4  C   UNL     1     -12.184  12.972  70.231  0.00  0.00    +0.042 A 
ATOM      5  C   UNL     1     -11.224  13.728  69.567  0.00  0.00    +0.003 A 
ATOM      6  C   UNL     1     -11.535  15.069  69.396  0.00  0.00    +0.000 A 
ATOM      7  C   UNL     1     -12.472  15.663  70.220  0.00  0.00    +0.008 A 
ENDROOT
BRANCH   1   9
ATOM      8  N   UNL     1     -12.135  16.260  73.197  0.00  0.00    -0.084 NA
ATOM      9  C   UNL     1     -13.265  15.658  72.562  0.00  0.00    +0.287 C 
ATOM     10  O   UNL     1     -14.380  16.179  72.768  0.00  0.00    -0.267 OA
ENDBRANCH   1   9
TORSDOF 1
ENDMDL
