MODEL 1
REMARK VINA RESULT:      -6.9      0.000      0.000
REMARK  Name = 
REMARK  5 active torsions:
REMARK  status: ('A' for Active; 'I' for Inactive)
REMARK    1  A    between atoms: N_2  and  S_3
REMARK    2  A    between atoms: S_3  and  C_6
REMARK    3  A    between atoms: C_6  and  C_7
REMARK    4  A    between atoms: C_7  and  C_8
REMARK    5  A    between atoms: C_14  and  C_15
REMARK                            x       y       z     vdW  Elec       q    Type
REMARK                         _______ _______ _______ _____ _____    ______ ____
ROOT
ATOM      1  C   UNL     1     -11.940  13.624  69.312  0.00  0.00    -0.020 A 
ATOM      2  C   UNL     1     -11.752  12.554  70.171  0.00  0.00    -0.003 A 
ATOM      3  C   UNL     1     -11.571  11.312  69.587  0.00  0.00    +0.015 A 
ATOM      4  C   UNL     1     -11.295  11.194  68.246  0.00  0.00    +0.081 A 
ATOM      5  N   UNL     1     -10.607  10.041  68.051  0.00  0.00    -0.244 NA
ATOM      6  C   UNL     1     -10.661   9.338  69.192  0.00  0.00    +0.095 A 
ATOM      7  C   UNL     1     -11.652  12.212  67.396  0.00  0.00    +0.019 A 
ATOM      8  C   UNL     1     -11.469  10.022  70.091  0.00  0.00    -0.002 A 
ATOM      9  C   UNL     1     -12.128  13.387  67.957  0.00  0.00    -0.003 A 
ENDROOT
BRANCH   8  10
ATOM     10  C   UNL     1     -11.808   9.573  71.457  0.00  0.00    +0.027 C 
ATOM     11  C   UNL     1     -13.072   8.751  71.509  0.00  0.00    +0.022 C 
ATOM     12  C   UNL     1     -12.860   7.304  71.180  0.00  0.00    +0.072 C 
ATOM     13  N   UNL     1     -11.793   6.680  71.907  0.00  0.00    -0.271 NA
ATOM     14  C   UNL     1     -10.991   5.783  71.113  0.00  0.00    +0.090 C 
ATOM     15  C   UNL     1     -11.024   7.574  72.724  0.00  0.00    +0.072 C 
ATOM     16  C   UNL     1     -10.620   8.841  72.030  0.00  0.00    +0.022 C 
ENDBRANCH   8  10
BRANCH   1  17
ATOM     17  C   UNL     1     -12.077  15.017  69.840  0.00  0.00    +0.053 C 
BRANCH  17  18
ATOM     18  C   UNL     1     -11.895  14.958  71.333  0.00  0.00    +0.175 C 
BRANCH  18  19
ATOM     19  S   UNL     1     -13.411  15.033  72.226  0.00  0.00    +0.058 S 
ATOM     20  O   UNL     1     -13.854  13.694  72.735  0.00  0.00    -0.156 OA
ATOM     21  O   UNL     1     -14.462  15.591  71.297  0.00  0.00    -0.156 OA
BRANCH  19  23
ATOM     22  C   UNL     1     -12.431  15.661  74.598  0.00  0.00    +0.136 C 
ATOM     23  N   UNL     1     -13.332  16.126  73.569  0.00  0.00    -0.080 NA
ENDBRANCH  19  23
ENDBRANCH  18  19
ENDBRANCH  17  18
ENDBRANCH   1  17
TORSDOF 5
ENDMDL
MODEL 2
REMARK VINA RESULT:      -6.9      4.026      5.624
REMARK  Name = 
REMARK  5 active torsions:
REMARK  status: ('A' for Active; 'I' for Inactive)
REMARK    1  A    between atoms: N_2  and  S_3
REMARK    2  A    between atoms: S_3  and  C_6
REMARK    3  A    between atoms: C_6  and  C_7
REMARK    4  A    between atoms: C_7  and  C_8
REMARK    5  A    between atoms: C_14  and  C_15
REMARK                            x       y       z     vdW  Elec       q    Type
REMARK                         _______ _______ _______ _____ _____    ______ ____
ROOT
ATOM      1  C   UNL     1     -11.050  15.282  69.635  0.00  0.00    -0.020 A 
ATOM      2  C   UNL     1     -11.074  14.250  68.712  0.00  0.00    -0.003 A 
ATOM      3  C   UNL     1     -10.901  14.599  67.384  0.00  0.00    +0.015 A 
ATOM      4  C   UNL     1     -10.438  15.843  67.034  0.00  0.00    +0.081 A 
ATOM      5  N   UNL     1      -9.817  15.746  65.831  0.00  0.00    -0.244 NA
ATOM      6  C   UNL     1     -10.095  14.533  65.328  0.00  0.00    +0.095 A 
ATOM      7  C   UNL     1     -10.586  16.887  67.915  0.00  0.00    +0.019 A 
ATOM      8  C   UNL     1     -10.974  13.892  66.190  0.00  0.00    -0.002 A 
ATOM      9  C   UNL     1     -11.050  16.597  69.189  0.00  0.00    -0.003 A 
ENDROOT
BRANCH   8  10
ATOM     10  C   UNL     1     -11.546  12.545  65.990  0.00  0.00    +0.027 C 
ATOM     11  C   UNL     1     -12.425  12.455  64.766  0.00  0.00    +0.022 C 
ATOM     12  C   UNL     1     -11.663  12.226  63.497  0.00  0.00    +0.072 C 
ATOM     13  N   UNL     1     -10.725  11.142  63.554  0.00  0.00    -0.271 NA
ATOM     14  C   UNL     1      -9.474  11.416  62.895  0.00  0.00    +0.090 C 
ATOM     15  C   UNL     1     -10.577  10.549  64.852  0.00  0.00    +0.072 C 
ATOM     16  C   UNL     1     -10.419  11.543  65.964  0.00  0.00    +0.022 C 
ENDBRANCH   8  10
BRANCH   1  17
ATOM     17  C   UNL     1     -11.159  15.004  71.101  0.00  0.00    +0.053 C 
BRANCH  17  18
ATOM     18  C   UNL     1     -11.869  16.170  71.734  0.00  0.00    +0.175 C 
BRANCH  18  19
ATOM     19  S   UNL     1     -13.138  15.690  72.857  0.00  0.00    +0.058 S 
ATOM     20  O   UNL     1     -14.510  16.053  72.374  0.00  0.00    -0.156 OA
ATOM     21  O   UNL     1     -12.869  16.380  74.173  0.00  0.00    -0.156 OA
BRANCH  19  23
ATOM     22  C   UNL     1     -13.915  13.236  72.260  0.00  0.00    +0.136 C 
ATOM     23  N   UNL     1     -13.112  13.990  73.196  0.00  0.00    -0.080 NA
ENDBRANCH  19  23
ENDBRANCH  18  19
ENDBRANCH  17  18
ENDBRANCH   1  17
TORSDOF 5
ENDMDL
MODEL 3
REMARK VINA RESULT:      -6.9      4.526      7.972
REMARK  Name = 
REMARK  5 active torsions:
REMARK  status: ('A' for Active; 'I' for Inactive)
REMARK    1  A    between atoms: N_2  and  S_3
REMARK    2  A    between atoms: S_3  and  C_6
REMARK    3  A    between atoms: C_6  and  C_7
REMARK    4  A    between atoms: C_7  and  C_8
REMARK    5  A    between atoms: C_14  and  C_15
REMARK                            x       y       z     vdW  Elec       q    Type
REMARK                         _______ _______ _______ _____ _____    ______ ____
ROOT
ATOM      1  C   UNL     1     -11.708  14.551  68.797  0.00  0.00    -0.020 A 
ATOM      2  C   UNL     1     -11.174  15.826  68.713  0.00  0.00    -0.003 A 
ATOM      3  C   UNL     1     -10.593  16.179  67.507  0.00  0.00    +0.015 A 
ATOM      4  C   UNL     1     -10.799  15.428  66.376  0.00  0.00    +0.081 A 
ATOM      5  N   UNL     1     -10.659  16.235  65.294  0.00  0.00    -0.244 NA
ATOM      6  C   UNL     1     -10.141  17.398  65.721  0.00  0.00    +0.095 A 
ATOM      7  C   UNL     1     -11.166  14.110  66.503  0.00  0.00    +0.019 A 
ATOM      8  C   UNL     1      -9.873  17.287  67.078  0.00  0.00    -0.002 A 
ATOM      9  C   UNL     1     -11.473  13.644  67.772  0.00  0.00    -0.003 A 
ENDROOT
BRANCH   8  10
ATOM     10  C   UNL     1      -9.274  18.339  67.926  0.00  0.00    +0.027 C 
ATOM     11  C   UNL     1      -7.873  18.004  68.374  0.00  0.00    +0.022 C 
ATOM     12  C   UNL     1      -6.822  18.342  67.362  0.00  0.00    +0.072 C 
ATOM     13  N   UNL     1      -6.906  19.676  66.841  0.00  0.00    -0.271 NA
ATOM     14  C   UNL     1      -6.656  19.768  65.425  0.00  0.00    +0.090 C 
ATOM     15  C   UNL     1      -8.057  20.415  67.275  0.00  0.00    +0.072 C 
ATOM     16  C   UNL     1      -9.344  19.650  67.184  0.00  0.00    +0.022 C 
ENDBRANCH   8  10
BRANCH   1  17
ATOM     17  C   UNL     1     -12.417  14.096  70.033  0.00  0.00    +0.053 C 
BRANCH  17  18
ATOM     18  C   UNL     1     -12.545  15.283  70.948  0.00  0.00    +0.175 C 
BRANCH  18  19
ATOM     19  S   UNL     1     -13.824  15.108  72.146  0.00  0.00    +0.058 S 
ATOM     20  O   UNL     1     -13.995  13.694  72.612  0.00  0.00    -0.156 OA
ATOM     21  O   UNL     1     -15.109  15.590  71.517  0.00  0.00    -0.156 OA
BRANCH  19  23
ATOM     22  C   UNL     1     -12.445  15.668  74.329  0.00  0.00    +0.136 C 
ATOM     23  N   UNL     1     -13.568  16.112  73.536  0.00  0.00    -0.080 NA
ENDBRANCH  19  23
ENDBRANCH  18  19
ENDBRANCH  17  18
ENDBRANCH   1  17
TORSDOF 5
ENDMDL
MODEL 4
REMARK VINA RESULT:      -6.9      3.466      5.028
REMARK  Name = 
REMARK  5 active torsions:
REMARK  status: ('A' for Active; 'I' for Inactive)
REMARK    1  A    between atoms: N_2  and  S_3
REMARK    2  A    between atoms: S_3  and  C_6
REMARK    3  A    between atoms: C_6  and  C_7
REMARK    4  A    between atoms: C_7  and  C_8
REMARK    5  A    between atoms: C_14  and  C_15
REMARK                            x       y       z     vdW  Elec       q    Type
REMARK                         _______ _______ _______ _____ _____    ______ ____
ROOT
ATOM      1  C   UNL     1     -11.406  13.216  68.631  0.00  0.00    -0.020 A 
ATOM      2  C   UNL     1     -11.283  11.851  68.828  0.00  0.00    -0.003 A 
ATOM      3  C   UNL     1     -11.686  11.360  70.058  0.00  0.00    +0.015 A 
ATOM      4  C   UNL     1     -12.435  12.129  70.915  0.00  0.00    +0.081 A 
ATOM      5  N   UNL     1     -13.165  11.301  71.704  0.00  0.00    -0.244 NA
ATOM      6  C   UNL     1     -12.707  10.053  71.517  0.00  0.00    +0.095 A 
ATOM      7  C   UNL     1     -12.399  13.497  70.796  0.00  0.00    +0.019 A 
ATOM      8  C   UNL     1     -11.616  10.111  70.661  0.00  0.00    -0.002 A 
ATOM      9  C   UNL     1     -11.732  14.034  69.705  0.00  0.00    -0.003 A 
ENDROOT
BRANCH   8  10
ATOM     10  C   UNL     1     -10.807   8.956  70.220  0.00  0.00    +0.027 C 
ATOM     11  C   UNL     1      -9.383   9.012  70.717  0.00  0.00    +0.022 C 
ATOM     12  C   UNL     1      -9.214   8.487  72.111  0.00  0.00    +0.072 C 
ATOM     13  N   UNL     1      -9.803   7.200  72.336  0.00  0.00    -0.271 NA
ATOM     14  C   UNL     1     -10.466   7.074  73.609  0.00  0.00    +0.090 C 
ATOM     15  C   UNL     1     -10.568   6.691  71.233  0.00  0.00    +0.072 C 
ATOM     16  C   UNL     1     -11.513   7.690  70.633  0.00  0.00    +0.022 C 
ENDBRANCH   8  10
BRANCH   1  17
ATOM     17  C   UNL     1     -11.062  13.836  67.314  0.00  0.00    +0.053 C 
BRANCH  17  18
ATOM     18  C   UNL     1     -12.346  14.030  66.553  0.00  0.00    +0.175 C 
BRANCH  18  19
ATOM     19  S   UNL     1     -12.210  13.641  64.841  0.00  0.00    +0.058 S 
ATOM     20  O   UNL     1     -12.615  14.778  63.952  0.00  0.00    -0.156 OA
ATOM     21  O   UNL     1     -13.097  12.449  64.571  0.00  0.00    -0.156 OA
BRANCH  19  23
ATOM     22  C   UNL     1     -10.608  11.974  63.563  0.00  0.00    +0.136 C 
ATOM     23  N   UNL     1     -10.606  13.151  64.401  0.00  0.00    -0.080 NA
ENDBRANCH  19  23
ENDBRANCH  18  19
ENDBRANCH  17  18
ENDBRANCH   1  17
TORSDOF 5
ENDMDL
MODEL 5
REMARK VINA RESULT:      -6.6      3.602      4.759
REMARK  Name = 
REMARK  5 active torsions:
REMARK  status: ('A' for Active; 'I' for Inactive)
REMARK    1  A    between atoms: N_2  and  S_3
REMARK    2  A    between atoms: S_3  and  C_6
REMARK    3  A    between atoms: C_6  and  C_7
REMARK    4  A    between atoms: C_7  and  C_8
REMARK    5  A    between atoms: C_14  and  C_15
REMARK                            x       y       z     vdW  Elec       q    Type
REMARK                         _______ _______ _______ _____ _____    ______ ____
ROOT
ATOM      1  C   UNL     1     -11.568  12.103  68.128  0.00  0.00    -0.020 A 
ATOM      2  C   UNL     1     -11.549  10.783  68.546  0.00  0.00    -0.003 A 
ATOM      3  C   UNL     1     -11.795  10.551  69.889  0.00  0.00    +0.015 A 
ATOM      4  C   UNL     1     -12.319  11.535  70.692  0.00  0.00    +0.081 A 
ATOM      5  N   UNL     1     -12.990  10.942  71.711  0.00  0.00    -0.244 NA
ATOM      6  C   UNL     1     -12.692   9.634  71.687  0.00  0.00    +0.095 A 
ATOM      7  C   UNL     1     -12.168  12.851  70.326  0.00  0.00    +0.019 A 
ATOM      8  C   UNL     1     -11.752   9.417  70.689  0.00  0.00    -0.002 A 
ATOM      9  C   UNL     1     -11.636  13.118  69.074  0.00  0.00    -0.003 A 
ENDROOT
BRANCH   8  10
ATOM     10  C   UNL     1     -11.141   8.115  70.351  0.00  0.00    +0.027 C 
ATOM     11  C   UNL     1      -9.651   8.086  70.587  0.00  0.00    +0.022 C 
ATOM     12  C   UNL     1      -9.274   7.796  72.008  0.00  0.00    +0.072 C 
ATOM     13  N   UNL     1      -9.921   6.647  72.571  0.00  0.00    -0.271 NA
ATOM     14  C   UNL     1     -10.346   6.825  73.936  0.00  0.00    +0.090 C 
ATOM     15  C   UNL     1     -10.917   6.049  71.728  0.00  0.00    +0.072 C 
ATOM     16  C   UNL     1     -11.866   7.033  71.112  0.00  0.00    +0.022 C 
ENDBRANCH   8  10
BRANCH   1  17
ATOM     17  C   UNL     1     -11.381  12.455  66.686  0.00  0.00    +0.053 C 
BRANCH  17  18
ATOM     18  C   UNL     1     -11.923  13.844  66.483  0.00  0.00    +0.175 C 
BRANCH  18  19
ATOM     19  S   UNL     1     -11.460  14.556  64.940  0.00  0.00    +0.058 S 
ATOM     20  O   UNL     1     -12.632  14.805  64.039  0.00  0.00    -0.156 OA
ATOM     21  O   UNL     1     -10.501  13.603  64.267  0.00  0.00    -0.156 OA
BRANCH  19  23
ATOM     22  C   UNL     1      -9.431  15.894  65.974  0.00  0.00    +0.136 C 
ATOM     23  N   UNL     1     -10.595  16.046  65.133  0.00  0.00    -0.080 NA
ENDBRANCH  19  23
ENDBRANCH  18  19
ENDBRANCH  17  18
ENDBRANCH   1  17
TORSDOF 5
ENDMDL
MODEL 6
REMARK VINA RESULT:      -6.4      5.479      8.811
REMARK  Name = 
REMARK  5 active torsions:
REMARK  status: ('A' for Active; 'I' for Inactive)
REMARK    1  A    between atoms: N_2  and  S_3
REMARK    2  A    between atoms: S_3  and  C_6
REMARK    3  A    between atoms: C_6  and  C_7
REMARK    4  A    between atoms: C_7  and  C_8
REMARK    5  A    between atoms: C_14  and  C_15
REMARK                            x       y       z     vdW  Elec       q    Type
REMARK                         _______ _______ _______ _____ _____    ______ ____
ROOT
ATOM      1  C   UNL     1     -10.968  16.310  69.493  0.00  0.00    -0.020 A 
ATOM      2  C   UNL     1     -10.202  17.453  69.339  0.00  0.00    -0.003 A 
ATOM      3  C   UNL     1      -9.696  17.698  68.074  0.00  0.00    +0.015 A 
ATOM      4  C   UNL     1     -10.168  17.017  66.979  0.00  0.00    +0.081 A 
ATOM      5  N   UNL     1      -9.987  17.793  65.881  0.00  0.00    -0.244 NA
ATOM      6  C   UNL     1      -9.205  18.824  66.238  0.00  0.00    +0.095 A 
ATOM      7  C   UNL     1     -10.776  15.797  67.158  0.00  0.00    +0.019 A 
ATOM      8  C   UNL     1      -8.819  18.645  67.559  0.00  0.00    -0.002 A 
ATOM      9  C   UNL     1     -11.031  15.387  68.457  0.00  0.00    -0.003 A 
ENDROOT
BRANCH   8  10
ATOM     10  C   UNL     1      -7.934  19.545  68.326  0.00  0.00    +0.027 C 
ATOM     11  C   UNL     1      -6.779  18.822  68.974  0.00  0.00    +0.022 C 
ATOM     12  C   UNL     1      -5.616  18.605  68.054  0.00  0.00    +0.072 C 
ATOM     13  N   UNL     1      -5.181  19.781  67.359  0.00  0.00    -0.271 NA
ATOM     14  C   UNL     1      -4.828  19.549  65.981  0.00  0.00    +0.090 C 
ATOM     15  C   UNL     1      -6.012  20.934  67.557  0.00  0.00    +0.072 C 
ATOM     16  C   UNL     1      -7.480  20.660  67.418  0.00  0.00    +0.022 C 
ENDBRANCH   8  10
BRANCH   1  17
ATOM     17  C   UNL     1     -11.616  15.991  70.803  0.00  0.00    +0.053 C 
BRANCH  17  18
ATOM     18  C   UNL     1     -12.800  15.107  70.520  0.00  0.00    +0.175 C 
BRANCH  18  19
ATOM     19  S   UNL     1     -13.984  15.086  71.824  0.00  0.00    +0.058 S 
ATOM     20  O   UNL     1     -15.347  15.524  71.380  0.00  0.00    -0.156 OA
ATOM     21  O   UNL     1     -13.486  16.012  72.908  0.00  0.00    -0.156 OA
BRANCH  19  23
ATOM     22  C   UNL     1     -13.272  12.544  71.931  0.00  0.00    +0.136 C 
ATOM     23  N   UNL     1     -14.128  13.523  72.561  0.00  0.00    -0.080 NA
ENDBRANCH  19  23
ENDBRANCH  18  19
ENDBRANCH  17  18
ENDBRANCH   1  17
TORSDOF 5
ENDMDL
MODEL 7
REMARK VINA RESULT:      -6.4      3.296      4.917
REMARK  Name = 
REMARK  5 active torsions:
REMARK  status: ('A' for Active; 'I' for Inactive)
REMARK    1  A    between atoms: N_2  and  S_3
REMARK    2  A    between atoms: S_3  and  C_6
REMARK    3  A    between atoms: C_6  and  C_7
REMARK    4  A    between atoms: C_7  and  C_8
REMARK    5  A    between atoms: C_14  and  C_15
REMARK                            x       y       z     vdW  Elec       q    Type
REMARK                         _______ _______ _______ _____ _____    ______ ____
ROOT
ATOM      1  C   UNL     1     -11.938  12.881  69.497  0.00  0.00    -0.020 A 
ATOM      2  C   UNL     1     -11.619  11.534  69.537  0.00  0.00    -0.003 A 
ATOM      3  C   UNL     1     -12.014  10.833  70.663  0.00  0.00    +0.015 A 
ATOM      4  C   UNL     1     -12.923  11.366  71.545  0.00  0.00    +0.081 A 
ATOM      5  N   UNL     1     -13.563  10.345  72.169  0.00  0.00    -0.244 NA
ATOM      6  C   UNL     1     -12.909   9.212  71.869  0.00  0.00    +0.095 A 
ATOM      7  C   UNL     1     -13.090  12.729  71.595  0.00  0.00    +0.019 A 
ATOM      8  C   UNL     1     -11.790   9.539  71.115  0.00  0.00    -0.002 A 
ATOM      9  C   UNL     1     -12.449  13.495  70.634  0.00  0.00    -0.003 A 
ENDROOT
BRANCH   8  10
ATOM     10  C   UNL     1     -10.788   8.581  70.602  0.00  0.00    +0.027 C 
ATOM     11  C   UNL     1      -9.397   8.855  71.117  0.00  0.00    +0.022 C 
ATOM     12  C   UNL     1      -9.133   8.272  72.472  0.00  0.00    +0.072 C 
ATOM     13  N   UNL     1      -9.482   6.887  72.601  0.00  0.00    -0.271 NA
ATOM     14  C   UNL     1     -10.109   6.556  73.855  0.00  0.00    +0.090 C 
ATOM     15  C   UNL     1     -10.146   6.329  71.457  0.00  0.00    +0.072 C 
ATOM     16  C   UNL     1     -11.256   7.183  70.919  0.00  0.00    +0.022 C 
ENDBRANCH   8  10
BRANCH   1  17
ATOM     17  C   UNL     1     -11.616  13.712  68.296  0.00  0.00    +0.053 C 
BRANCH  17  18
ATOM     18  C   UNL     1     -11.654  12.807  67.094  0.00  0.00    +0.175 C 
BRANCH  18  19
ATOM     19  S   UNL     1     -11.749  13.678  65.566  0.00  0.00    +0.058 S 
ATOM     20  O   UNL     1     -10.968  14.957  65.575  0.00  0.00    -0.156 OA
ATOM     21  O   UNL     1     -13.206  13.979  65.302  0.00  0.00    -0.156 OA
BRANCH  19  23
ATOM     22  C   UNL     1     -12.311  12.131  63.499  0.00  0.00    +0.136 C 
ATOM     23  N   UNL     1     -11.210  12.720  64.226  0.00  0.00    -0.080 NA
ENDBRANCH  19  23
ENDBRANCH  18  19
ENDBRANCH  17  18
ENDBRANCH   1  17
TORSDOF 5
ENDMDL
MODEL 8
REMARK VINA RESULT:      -6.4      3.124      6.793
REMARK  Name = 
REMARK  5 active torsions:
REMARK  status: ('A' for Active; 'I' for Inactive)
REMARK    1  A    between atoms: N_2  and  S_3
REMARK    2  A    between atoms: S_3  and  C_6
REMARK    3  A    between atoms: C_6  and  C_7
REMARK    4  A    between atoms: C_7  and  C_8
REMARK    5  A    between atoms: C_14  and  C_15
REMARK                            x       y       z     vdW  Elec       q    Type
REMARK                         _______ _______ _______ _____ _____    ______ ____
ROOT
ATOM      1  C   UNL     1     -13.035  12.821  71.376  0.00  0.00    -0.020 A 
ATOM      2  C   UNL     1     -12.201  12.854  70.271  0.00  0.00    -0.003 A 
ATOM      3  C   UNL     1     -12.018  14.086  69.665  0.00  0.00    +0.015 A 
ATOM      4  C   UNL     1     -12.395  15.247  70.295  0.00  0.00    +0.081 A 
ATOM      5  N   UNL     1     -11.622  16.258  69.827  0.00  0.00    -0.244 NA
ATOM      6  C   UNL     1     -10.949  15.795  68.762  0.00  0.00    +0.095 A 
ATOM      7  C   UNL     1     -13.355  15.196  71.278  0.00  0.00    +0.019 A 
ATOM      8  C   UNL     1     -11.371  14.498  68.507  0.00  0.00    -0.002 A 
ATOM      9  C   UNL     1     -13.780  13.947  71.703  0.00  0.00    -0.003 A 
ENDROOT
BRANCH   8  10
ATOM     10  C   UNL     1     -10.894  13.639  67.404  0.00  0.00    +0.027 C 
ATOM     11  C   UNL     1     -12.018  13.085  66.562  0.00  0.00    +0.022 C 
ATOM     12  C   UNL     1     -12.497  14.031  65.504  0.00  0.00    +0.072 C 
ATOM     13  N   UNL     1     -11.455  14.591  64.692  0.00  0.00    -0.271 NA
ATOM     14  C   UNL     1     -11.636  15.989  64.391  0.00  0.00    +0.090 C 
ATOM     15  C   UNL     1     -10.125  14.258  65.114  0.00  0.00    +0.072 C 
ATOM     16  C   UNL     1      -9.893  14.418  66.588  0.00  0.00    +0.022 C 
ENDBRANCH   8  10
BRANCH   1  17
ATOM     17  C   UNL     1     -13.245  11.553  72.142  0.00  0.00    +0.053 C 
BRANCH  17  18
ATOM     18  C   UNL     1     -13.025  10.407  71.193  0.00  0.00    +0.175 C 
BRANCH  18  19
ATOM     19  S   UNL     1     -13.214   8.827  71.948  0.00  0.00    +0.058 S 
ATOM     20  O   UNL     1     -13.849   7.819  71.038  0.00  0.00    -0.156 OA
ATOM     21  O   UNL     1     -14.074   9.009  73.176  0.00  0.00    -0.156 OA
BRANCH  19  23
ATOM     22  C   UNL     1     -10.575   8.786  71.852  0.00  0.00    +0.136 C 
ATOM     23  N   UNL     1     -11.708   8.180  72.512  0.00  0.00    -0.080 NA
ENDBRANCH  19  23
ENDBRANCH  18  19
ENDBRANCH  17  18
ENDBRANCH   1  17
TORSDOF 5
ENDMDL
MODEL 9
REMARK VINA RESULT:      -6.3      5.751      9.498
REMARK  Name = 
REMARK  5 active torsions:
REMARK  status: ('A' for Active; 'I' for Inactive)
REMARK    1  A    between atoms: N_2  and  S_3
REMARK    2  A    between atoms: S_3  and  C_6
REMARK    3  A    between atoms: C_6  and  C_7
REMARK    4  A    between atoms: C_7  and  C_8
REMARK    5  A    between atoms: C_14  and  C_15
REMARK                            x       y       z     vdW  Elec       q    Type
REMARK                         _______ _______ _______ _____ _____    ______ ____
ROOT
ATOM      1  C   UNL     1     -11.079  13.768  67.214  0.00  0.00    -0.020 A 
ATOM      2  C   UNL     1     -10.438  14.944  66.857  0.00  0.00    -0.003 A 
ATOM      3  C   UNL     1     -10.650  16.041  67.674  0.00  0.00    +0.015 A 
ATOM      4  C   UNL     1     -11.213  15.898  68.919  0.00  0.00    +0.081 A 
ATOM      5  N   UNL     1     -10.785  16.920  69.702  0.00  0.00    -0.244 NA
ATOM      6  C   UNL     1     -10.170  17.809  68.908  0.00  0.00    +0.095 A 
ATOM      7  C   UNL     1     -11.987  14.793  69.182  0.00  0.00    +0.019 A 
ATOM      8  C   UNL     1     -10.290  17.380  67.593  0.00  0.00    -0.002 A 
ATOM      9  C   UNL     1     -12.028  13.789  68.228  0.00  0.00    -0.003 A 
ENDROOT
BRANCH   8  10
ATOM     10  C   UNL     1      -9.770  18.089  66.406  0.00  0.00    +0.027 C 
ATOM     11  C   UNL     1     -10.140  19.551  66.386  0.00  0.00    +0.022 C 
ATOM     12  C   UNL     1      -9.220  20.414  67.196  0.00  0.00    +0.072 C 
ATOM     13  N   UNL     1      -7.827  20.217  66.921  0.00  0.00    -0.271 NA
ATOM     14  C   UNL     1      -6.992  20.227  68.095  0.00  0.00    +0.090 C 
ATOM     15  C   UNL     1      -7.542  19.138  66.018  0.00  0.00    +0.072 C 
ATOM     16  C   UNL     1      -8.280  17.870  66.330  0.00  0.00    +0.022 C 
ENDBRANCH   8  10
BRANCH   1  17
ATOM     17  C   UNL     1     -10.862  12.509  66.436  0.00  0.00    +0.053 C 
BRANCH  17  18
ATOM     18  C   UNL     1     -12.115  12.240  65.648  0.00  0.00    +0.175 C 
BRANCH  18  19
ATOM     19  S   UNL     1     -11.997  12.726  63.959  0.00  0.00    +0.058 S 
ATOM     20  O   UNL     1     -12.416  14.147  63.731  0.00  0.00    -0.156 OA
ATOM     21  O   UNL     1     -12.884  11.805  63.156  0.00  0.00    -0.156 OA
BRANCH  19  23
ATOM     22  C   UNL     1     -10.054  11.128  63.152  0.00  0.00    +0.136 C 
ATOM     23  N   UNL     1     -10.397  12.521  63.323  0.00  0.00    -0.080 NA
ENDBRANCH  19  23
ENDBRANCH  18  19
ENDBRANCH  17  18
ENDBRANCH   1  17
TORSDOF 5
ENDMDL
