MODEL 1
REMARK VINA RESULT:      -6.4      0.000      0.000
REMARK  Name = 
REMARK  4 active torsions:
REMARK  status: ('A' for Active; 'I' for Inactive)
REMARK    1  A    between atoms: N_2  and  C_4
REMARK    2  A    between atoms: C_4  and  C_5
REMARK    3  A    between atoms: C_5  and  C_6
REMARK    4  A    between atoms: C_6  and  N_7
REMARK                            x       y       z     vdW  Elec       q    Type
REMARK                         _______ _______ _______ _____ _____    ______ ____
ROOT
ATOM      1  N   UNL     1     -10.468  15.383  67.872  0.00  0.00    -0.286 N 
ATOM      2  C   UNL     1     -10.025  16.669  67.506  0.00  0.00    +0.058 A 
ATOM      3  C   UNL     1     -10.318  17.315  66.337  0.00  0.00    +0.043 A 
ATOM      4  C   UNL     1     -10.401  18.680  66.250  0.00  0.00    +0.009 A 
ATOM      5  C   UNL     1      -9.800  19.395  67.280  0.00  0.00    +0.012 A 
ATOM      6  C   UNL     1      -9.027  18.752  68.238  0.00  0.00    +0.059 A 
ATOM      7 CL   UNL     1      -7.779  19.596  69.118  0.00  0.00    -0.082 Cl
ATOM      8  S   UNL     1     -10.770  16.272  64.947  0.00  0.00    -0.084 S 
ATOM      9  C   UNL     1     -11.435  14.787  65.681  0.00  0.00    +0.043 A 
ATOM     10  C   UNL     1     -12.369  14.022  65.046  0.00  0.00    +0.008 A 
ATOM     11  C   UNL     1     -12.395  12.672  65.380  0.00  0.00    +0.001 A 
ATOM     12  C   UNL     1     -11.729  12.205  66.507  0.00  0.00    +0.001 A 
ATOM     13  C   UNL     1     -11.177  13.160  67.353  0.00  0.00    +0.015 A 
ATOM     14  C   UNL     1      -9.323  17.410  68.451  0.00  0.00    +0.027 A 
ATOM     15  C   UNL     1     -11.021  14.481  66.949  0.00  0.00    +0.058 A 
ENDROOT
BRANCH   1  16
ATOM     16  C   UNL     1     -10.626  15.103  69.299  0.00  0.00    +0.097 C 
BRANCH  16  17
ATOM     17  C   UNL     1     -11.971  15.514  69.818  0.00  0.00    +0.039 C 
BRANCH  17  18
ATOM     18  C   UNL     1     -11.829  15.914  71.269  0.00  0.00    +0.074 C 
BRANCH  18  20
ATOM     19  C   UNL     1     -13.086  15.914  73.328  0.00  0.00    +0.090 C 
ATOM     20  N   UNL     1     -13.131  15.949  71.884  0.00  0.00    -0.270 NA
ATOM     21  C   UNL     1     -13.953  14.881  71.372  0.00  0.00    +0.090 C 
ENDBRANCH  18  20
ENDBRANCH  17  18
ENDBRANCH  16  17
ENDBRANCH   1  16
TORSDOF 4
ENDMDL
MODEL 2
REMARK VINA RESULT:      -6.0      3.716      5.665
REMARK  Name = 
REMARK  4 active torsions:
REMARK  status: ('A' for Active; 'I' for Inactive)
REMARK    1  A    between atoms: N_2  and  C_4
REMARK    2  A    between atoms: C_4  and  C_5
REMARK    3  A    between atoms: C_5  and  C_6
REMARK    4  A    between atoms: C_6  and  N_7
REMARK                            x       y       z     vdW  Elec       q    Type
REMARK                         _______ _______ _______ _____ _____    ______ ____
ROOT
ATOM      1  N   UNL     1     -12.009  13.013  68.659  0.00  0.00    -0.286 N 
ATOM      2  C   UNL     1     -11.671  13.523  67.390  0.00  0.00    +0.058 A 
ATOM      3  C   UNL     1     -11.103  14.742  67.142  0.00  0.00    +0.043 A 
ATOM      4  C   UNL     1     -10.275  14.965  66.073  0.00  0.00    +0.009 A 
ATOM      5  C   UNL     1     -10.342  14.034  65.043  0.00  0.00    +0.012 A 
ATOM      6  C   UNL     1     -11.313  13.040  65.043  0.00  0.00    +0.059 A 
ATOM      7 CL   UNL     1     -11.849  12.291  63.562  0.00  0.00    -0.082 Cl
ATOM      8  S   UNL     1     -11.353  16.003  68.395  0.00  0.00    -0.084 S 
ATOM      9  C   UNL     1     -11.608  15.100  69.915  0.00  0.00    +0.043 A 
ATOM     10  C   UNL     1     -11.281  15.624  71.130  0.00  0.00    +0.008 A 
ATOM     11  C   UNL     1     -12.002  15.153  72.222  0.00  0.00    +0.001 A 
ATOM     12  C   UNL     1     -12.779  14.005  72.119  0.00  0.00    +0.001 A 
ATOM     13  C   UNL     1     -12.678  13.279  70.938  0.00  0.00    +0.015 A 
ATOM     14  C   UNL     1     -11.809  12.681  66.292  0.00  0.00    +0.027 A 
ATOM     15  C   UNL     1     -12.082  13.821  69.805  0.00  0.00    +0.058 A 
ENDROOT
BRANCH   1  16
ATOM     16  C   UNL     1     -11.990  11.561  68.831  0.00  0.00    +0.097 C 
BRANCH  16  17
ATOM     17  C   UNL     1     -10.629  11.044  69.186  0.00  0.00    +0.039 C 
BRANCH  17  18
ATOM     18  C   UNL     1     -10.761   9.612  69.654  0.00  0.00    +0.074 C 
BRANCH  18  20
ATOM     19  C   UNL     1      -9.640   8.791  71.626  0.00  0.00    +0.090 C 
ATOM     20  N   UNL     1     -10.730   9.576  71.094  0.00  0.00    -0.270 NA
ATOM     21  C   UNL     1     -11.994   9.112  71.608  0.00  0.00    +0.090 C 
ENDBRANCH  18  20
ENDBRANCH  17  18
ENDBRANCH  16  17
ENDBRANCH   1  16
TORSDOF 4
ENDMDL
MODEL 3
REMARK VINA RESULT:      -5.8      3.823      6.045
REMARK  Name = 
REMARK  4 active torsions:
REMARK  status: ('A' for Active; 'I' for Inactive)
REMARK    1  A    between atoms: N_2  and  C_4
REMARK    2  A    between atoms: C_4  and  C_5
REMARK    3  A    between atoms: C_5  and  C_6
REMARK    4  A    between atoms: C_6  and  N_7
REMARK                            x       y       z     vdW  Elec       q    Type
REMARK                         _______ _______ _______ _____ _____    ______ ____
ROOT
ATOM      1  N   UNL     1     -11.673  12.005  67.308  0.00  0.00    -0.286 N 
ATOM      2  C   UNL     1     -11.511  11.039  68.320  0.00  0.00    +0.058 A 
ATOM      3  C   UNL     1     -10.666   9.965  68.274  0.00  0.00    +0.043 A 
ATOM      4  C   UNL     1     -10.096   9.428  69.398  0.00  0.00    +0.009 A 
ATOM      5  C   UNL     1     -10.701   9.754  70.606  0.00  0.00    +0.012 A 
ATOM      6  C   UNL     1     -11.904  10.447  70.636  0.00  0.00    +0.059 A 
ATOM      7 CL   UNL     1     -12.992  10.325  71.994  0.00  0.00    -0.082 Cl
ATOM      8  S   UNL     1     -10.194   9.397  66.637  0.00  0.00    -0.084 S 
ATOM      9  C   UNL     1     -10.343  10.835  65.589  0.00  0.00    +0.043 A 
ATOM     10  C   UNL     1      -9.583  10.995  64.468  0.00  0.00    +0.008 A 
ATOM     11  C   UNL     1     -10.128  11.778  63.456  0.00  0.00    +0.001 A 
ATOM     12  C   UNL     1     -11.228  12.592  63.701  0.00  0.00    +0.001 A 
ATOM     13  C   UNL     1     -11.651  12.700  65.020  0.00  0.00    +0.015 A 
ATOM     14  C   UNL     1     -12.170  11.244  69.528  0.00  0.00    +0.027 A 
ATOM     15  C   UNL     1     -11.208  11.814  65.997  0.00  0.00    +0.058 A 
ENDROOT
BRANCH   1  16
ATOM     16  C   UNL     1     -12.072  13.352  67.716  0.00  0.00    +0.097 C 
BRANCH  16  17
ATOM     17  C   UNL     1     -10.911  14.175  68.187  0.00  0.00    +0.039 C 
BRANCH  17  18
ATOM     18  C   UNL     1     -10.967  15.525  67.509  0.00  0.00    +0.074 C 
BRANCH  18  20
ATOM     19  C   UNL     1     -10.371  17.738  68.265  0.00  0.00    +0.090 C 
ATOM     20  N   UNL     1     -11.158  16.550  68.504  0.00  0.00    -0.270 NA
ATOM     21  C   UNL     1     -10.901  16.022  69.820  0.00  0.00    +0.090 C 
ENDBRANCH  18  20
ENDBRANCH  17  18
ENDBRANCH  16  17
ENDBRANCH   1  16
TORSDOF 4
ENDMDL
MODEL 4
REMARK VINA RESULT:      -5.7      2.689      4.946
REMARK  Name = 
REMARK  4 active torsions:
REMARK  status: ('A' for Active; 'I' for Inactive)
REMARK    1  A    between atoms: N_2  and  C_4
REMARK    2  A    between atoms: C_4  and  C_5
REMARK    3  A    between atoms: C_5  and  C_6
REMARK    4  A    between atoms: C_6  and  N_7
REMARK                            x       y       z     vdW  Elec       q    Type
REMARK                         _______ _______ _______ _____ _____    ______ ____
ROOT
ATOM      1  N   UNL     1     -10.495  15.949  68.091  0.00  0.00    -0.286 N 
ATOM      2  C   UNL     1      -9.942  14.682  67.823  0.00  0.00    +0.058 A 
ATOM      3  C   UNL     1      -8.616  14.412  67.623  0.00  0.00    +0.043 A 
ATOM      4  C   UNL     1      -8.052  13.208  67.953  0.00  0.00    +0.009 A 
ATOM      5  C   UNL     1      -8.933  12.147  68.130  0.00  0.00    +0.012 A 
ATOM      6  C   UNL     1     -10.282  12.283  67.824  0.00  0.00    +0.059 A 
ATOM      7 CL   UNL     1     -11.265  10.902  67.415  0.00  0.00    -0.082 Cl
ATOM      8  S   UNL     1      -7.603  15.786  67.067  0.00  0.00    -0.084 S 
ATOM      9  C   UNL     1      -8.440  17.247  67.661  0.00  0.00    +0.043 A 
ATOM     10  C   UNL     1      -7.768  18.398  67.949  0.00  0.00    +0.008 A 
ATOM     11  C   UNL     1      -8.490  19.581  67.838  0.00  0.00    +0.001 A 
ATOM     12  C   UNL     1      -9.877  19.562  67.747  0.00  0.00    +0.001 A 
ATOM     13  C   UNL     1     -10.503  18.334  67.925  0.00  0.00    +0.015 A 
ATOM     14  C   UNL     1     -10.786  13.578  67.879  0.00  0.00    +0.027 A 
ATOM     15  C   UNL     1      -9.786  17.143  67.886  0.00  0.00    +0.058 A 
ENDROOT
BRANCH   1  16
ATOM     16  C   UNL     1     -11.726  15.997  68.879  0.00  0.00    +0.097 C 
BRANCH  16  17
ATOM     17  C   UNL     1     -11.461  16.044  70.354  0.00  0.00    +0.039 C 
BRANCH  17  18
ATOM     18  C   UNL     1     -12.352  15.033  71.039  0.00  0.00    +0.074 C 
BRANCH  18  20
ATOM     19  C   UNL     1     -13.177  15.875  73.144  0.00  0.00    +0.090 C 
ATOM     20  N   UNL     1     -13.414  15.722  71.727  0.00  0.00    -0.270 NA
ATOM     21  C   UNL     1     -14.674  15.065  71.486  0.00  0.00    +0.090 C 
ENDBRANCH  18  20
ENDBRANCH  17  18
ENDBRANCH  16  17
ENDBRANCH   1  16
TORSDOF 4
ENDMDL
MODEL 5
REMARK VINA RESULT:      -5.7      4.455      6.403
REMARK  Name = 
REMARK  4 active torsions:
REMARK  status: ('A' for Active; 'I' for Inactive)
REMARK    1  A    between atoms: N_2  and  C_4
REMARK    2  A    between atoms: C_4  and  C_5
REMARK    3  A    between atoms: C_5  and  C_6
REMARK    4  A    between atoms: C_6  and  N_7
REMARK                            x       y       z     vdW  Elec       q    Type
REMARK                         _______ _______ _______ _____ _____    ______ ____
ROOT
ATOM      1  N   UNL     1     -11.890  12.267  69.874  0.00  0.00    -0.286 N 
ATOM      2  C   UNL     1     -11.297  12.383  68.602  0.00  0.00    +0.058 A 
ATOM      3  C   UNL     1     -10.842  13.541  68.033  0.00  0.00    +0.043 A 
ATOM      4  C   UNL     1      -9.797  13.564  67.148  0.00  0.00    +0.009 A 
ATOM      5  C   UNL     1      -9.472  12.351  66.552  0.00  0.00    +0.012 A 
ATOM      6  C   UNL     1     -10.275  11.231  66.731  0.00  0.00    +0.059 A 
ATOM      7 CL   UNL     1     -10.303   9.935  65.565  0.00  0.00    -0.082 Cl
ATOM      8  S   UNL     1     -11.571  15.064  68.643  0.00  0.00    -0.084 S 
ATOM      9  C   UNL     1     -12.101  14.688  70.307  0.00  0.00    +0.043 A 
ATOM     10  C   UNL     1     -12.175  15.644  71.276  0.00  0.00    +0.008 A 
ATOM     11  C   UNL     1     -13.093  15.423  72.297  0.00  0.00    +0.001 A 
ATOM     12  C   UNL     1     -13.664  14.169  72.479  0.00  0.00    +0.001 A 
ATOM     13  C   UNL     1     -13.165  13.130  71.703  0.00  0.00    +0.015 A 
ATOM     14  C   UNL     1     -11.034  11.214  67.897  0.00  0.00    +0.027 A 
ATOM     15  C   UNL     1     -12.365  13.376  70.593  0.00  0.00    +0.058 A 
ENDROOT
BRANCH   1  16
ATOM     16  C   UNL     1     -11.735  10.995  70.580  0.00  0.00    +0.097 C 
BRANCH  16  17
ATOM     17  C   UNL     1     -13.028  10.247  70.705  0.00  0.00    +0.039 C 
BRANCH  17  18
ATOM     18  C   UNL     1     -12.893   9.227  71.812  0.00  0.00    +0.074 C 
BRANCH  18  20
ATOM     19  C   UNL     1     -14.799   7.748  71.857  0.00  0.00    +0.090 C 
ATOM     20  N   UNL     1     -13.455   7.974  71.377  0.00  0.00    -0.270 NA
ATOM     21  C   UNL     1     -12.589   6.883  71.747  0.00  0.00    +0.090 C 
ENDBRANCH  18  20
ENDBRANCH  17  18
ENDBRANCH  16  17
ENDBRANCH   1  16
TORSDOF 4
ENDMDL
MODEL 6
REMARK VINA RESULT:      -5.7      2.840      4.918
REMARK  Name = 
REMARK  4 active torsions:
REMARK  status: ('A' for Active; 'I' for Inactive)
REMARK    1  A    between atoms: N_2  and  C_4
REMARK    2  A    between atoms: C_4  and  C_5
REMARK    3  A    between atoms: C_5  and  C_6
REMARK    4  A    between atoms: C_6  and  N_7
REMARK                            x       y       z     vdW  Elec       q    Type
REMARK                         _______ _______ _______ _____ _____    ______ ____
ROOT
ATOM      1  N   UNL     1     -10.988  14.950  68.953  0.00  0.00    -0.286 N 
ATOM      2  C   UNL     1     -11.111  13.571  68.699  0.00  0.00    +0.058 A 
ATOM      3  C   UNL     1     -10.566  12.899  67.639  0.00  0.00    +0.043 A 
ATOM      4  C   UNL     1     -10.190  11.584  67.716  0.00  0.00    +0.009 A 
ATOM      5  C   UNL     1     -10.734  10.853  68.765  0.00  0.00    +0.012 A 
ATOM      6  C   UNL     1     -11.723  11.397  69.576  0.00  0.00    +0.059 A 
ATOM      7 CL   UNL     1     -12.852  10.384  70.438  0.00  0.00    -0.082 Cl
ATOM      8  S   UNL     1     -10.197  13.883  66.183  0.00  0.00    -0.084 S 
ATOM      9  C   UNL     1      -9.940  15.540  66.797  0.00  0.00    +0.043 A 
ATOM     10  C   UNL     1      -9.125  16.429  66.161  0.00  0.00    +0.008 A 
ATOM     11  C   UNL     1      -9.418  17.776  66.340  0.00  0.00    +0.001 A 
ATOM     12  C   UNL     1     -10.283  18.187  67.348  0.00  0.00    +0.001 A 
ATOM     13  C   UNL     1     -10.710  17.217  68.247  0.00  0.00    +0.015 A 
ATOM     14  C   UNL     1     -11.738  12.784  69.660  0.00  0.00    +0.027 A 
ATOM     15  C   UNL     1     -10.541  15.862  67.983  0.00  0.00    +0.058 A 
ENDROOT
BRANCH   1  16
ATOM     16  C   UNL     1     -11.045  15.389  70.347  0.00  0.00    +0.097 C 
BRANCH  16  17
ATOM     17  C   UNL     1     -12.440  15.713  70.789  0.00  0.00    +0.039 C 
BRANCH  17  18
ATOM     18  C   UNL     1     -12.574  15.378  72.257  0.00  0.00    +0.074 C 
BRANCH  18  20
ATOM     19  C   UNL     1     -13.711  13.259  72.454  0.00  0.00    +0.090 C 
ATOM     20  N   UNL     1     -13.826  14.699  72.478  0.00  0.00    -0.270 NA
ATOM     21  C   UNL     1     -14.813  15.151  71.530  0.00  0.00    +0.090 C 
ENDBRANCH  18  20
ENDBRANCH  17  18
ENDBRANCH  16  17
ENDBRANCH   1  16
TORSDOF 4
ENDMDL
MODEL 7
REMARK VINA RESULT:      -5.4      4.380      5.645
REMARK  Name = 
REMARK  4 active torsions:
REMARK  status: ('A' for Active; 'I' for Inactive)
REMARK    1  A    between atoms: N_2  and  C_4
REMARK    2  A    between atoms: C_4  and  C_5
REMARK    3  A    between atoms: C_5  and  C_6
REMARK    4  A    between atoms: C_6  and  N_7
REMARK                            x       y       z     vdW  Elec       q    Type
REMARK                         _______ _______ _______ _____ _____    ______ ____
ROOT
ATOM      1  N   UNL     1     -11.933  11.780  69.785  0.00  0.00    -0.286 N 
ATOM      2  C   UNL     1     -12.009  13.114  70.230  0.00  0.00    +0.058 A 
ATOM      3  C   UNL     1     -11.794  14.227  69.465  0.00  0.00    +0.043 A 
ATOM      4  C   UNL     1     -12.420  15.422  69.710  0.00  0.00    +0.009 A 
ATOM      5  C   UNL     1     -12.971  15.574  70.977  0.00  0.00    +0.012 A 
ATOM      6  C   UNL     1     -12.746  14.629  71.971  0.00  0.00    +0.059 A 
ATOM      7 CL   UNL     1     -12.843  15.046  73.662  0.00  0.00    -0.082 Cl
ATOM      8  S   UNL     1     -10.778  14.000  68.002  0.00  0.00    -0.084 S 
ATOM      9  C   UNL     1     -10.977  12.280  67.564  0.00  0.00    +0.043 A 
ATOM     10  C   UNL     1     -10.859  11.843  66.279  0.00  0.00    +0.008 A 
ATOM     11  C   UNL     1     -10.460  10.522  66.108  0.00  0.00    +0.001 A 
ATOM     12  C   UNL     1     -10.488   9.627  67.172  0.00  0.00    +0.001 A 
ATOM     13  C   UNL     1     -11.071  10.071  68.353  0.00  0.00    +0.015 A 
ATOM     14  C   UNL     1     -12.456  13.344  71.527  0.00  0.00    +0.027 A 
ATOM     15  C   UNL     1     -11.329  11.420  68.570  0.00  0.00    +0.058 A 
ENDROOT
BRANCH   1  16
ATOM     16  C   UNL     1     -12.767  10.791  70.467  0.00  0.00    +0.097 C 
BRANCH  16  17
ATOM     17  C   UNL     1     -11.972   9.898  71.372  0.00  0.00    +0.039 C 
BRANCH  17  18
ATOM     18  C   UNL     1     -12.887   8.829  71.925  0.00  0.00    +0.074 C 
BRANCH  18  20
ATOM     19  C   UNL     1     -11.022   7.652  72.902  0.00  0.00    +0.090 C 
ATOM     20  N   UNL     1     -12.164   7.586  72.020  0.00  0.00    -0.270 NA
ATOM     21  C   UNL     1     -11.773   7.135  70.709  0.00  0.00    +0.090 C 
ENDBRANCH  18  20
ENDBRANCH  17  18
ENDBRANCH  16  17
ENDBRANCH   1  16
TORSDOF 4
ENDMDL
MODEL 8
REMARK VINA RESULT:      -5.4      4.084      5.904
REMARK  Name = 
REMARK  4 active torsions:
REMARK  status: ('A' for Active; 'I' for Inactive)
REMARK    1  A    between atoms: N_2  and  C_4
REMARK    2  A    between atoms: C_4  and  C_5
REMARK    3  A    between atoms: C_5  and  C_6
REMARK    4  A    between atoms: C_6  and  N_7
REMARK                            x       y       z     vdW  Elec       q    Type
REMARK                         _______ _______ _______ _____ _____    ______ ____
ROOT
ATOM      1  N   UNL     1     -11.923  12.534  69.064  0.00  0.00    -0.286 N 
ATOM      2  C   UNL     1     -11.638  11.280  69.640  0.00  0.00    +0.058 A 
ATOM      3  C   UNL     1     -10.553  10.498  69.358  0.00  0.00    +0.043 A 
ATOM      4  C   UNL     1      -9.994   9.653  70.282  0.00  0.00    +0.009 A 
ATOM      5  C   UNL     1     -10.791   9.327  71.373  0.00  0.00    +0.012 A 
ATOM      6  C   UNL     1     -12.126   9.713  71.422  0.00  0.00    +0.059 A 
ATOM      7 CL   UNL     1     -13.291   8.837  72.379  0.00  0.00    -0.082 Cl
ATOM      8  S   UNL     1      -9.777  10.763  67.761  0.00  0.00    -0.084 S 
ATOM      9  C   UNL     1     -10.162  12.454  67.336  0.00  0.00    +0.043 A 
ATOM     10  C   UNL     1      -9.347  13.204  66.541  0.00  0.00    +0.008 A 
ATOM     11  C   UNL     1      -9.954  14.225  65.818  0.00  0.00    +0.001 A 
ATOM     12  C   UNL     1     -11.242  14.646  66.128  0.00  0.00    +0.001 A 
ATOM     13  C   UNL     1     -11.821  14.114  67.273  0.00  0.00    +0.015 A 
ATOM     14  C   UNL     1     -12.456  10.837  70.674  0.00  0.00    +0.027 A 
ATOM     15  C   UNL     1     -11.283  12.997  67.904  0.00  0.00    +0.058 A 
ENDROOT
BRANCH   1  16
ATOM     16  C   UNL     1     -12.687  13.489  69.867  0.00  0.00    +0.097 C 
BRANCH  16  17
ATOM     17  C   UNL     1     -11.826  14.239  70.838  0.00  0.00    +0.039 C 
BRANCH  17  18
ATOM     18  C   UNL     1     -12.415  15.615  71.046  0.00  0.00    +0.074 C 
BRANCH  18  20
ATOM     19  C   UNL     1     -12.125  16.428  73.299  0.00  0.00    +0.090 C 
ATOM     20  N   UNL     1     -12.966  15.702  72.374  0.00  0.00    -0.270 NA
ATOM     21  C   UNL     1     -13.264  14.385  72.878  0.00  0.00    +0.090 C 
ENDBRANCH  18  20
ENDBRANCH  17  18
ENDBRANCH  16  17
ENDBRANCH   1  16
TORSDOF 4
ENDMDL
MODEL 9
REMARK VINA RESULT:      -5.4      4.288      6.856
REMARK  Name = 
REMARK  4 active torsions:
REMARK  status: ('A' for Active; 'I' for Inactive)
REMARK    1  A    between atoms: N_2  and  C_4
REMARK    2  A    between atoms: C_4  and  C_5
REMARK    3  A    between atoms: C_5  and  C_6
REMARK    4  A    between atoms: C_6  and  N_7
REMARK                            x       y       z     vdW  Elec       q    Type
REMARK                         _______ _______ _______ _____ _____    ______ ____
ROOT
ATOM      1  N   UNL     1     -11.051  11.271  67.055  0.00  0.00    -0.286 N 
ATOM      2  C   UNL     1     -11.199  10.527  68.241  0.00  0.00    +0.058 A 
ATOM      3  C   UNL     1     -10.625   9.313  68.502  0.00  0.00    +0.043 A 
ATOM      4  C   UNL     1     -10.288   8.915  69.769  0.00  0.00    +0.009 A 
ATOM      5  C   UNL     1     -10.897   9.608  70.810  0.00  0.00    +0.012 A 
ATOM      6  C   UNL     1     -11.905  10.530  70.558  0.00  0.00    +0.059 A 
ATOM      7 CL   UNL     1     -13.098  10.927  71.768  0.00  0.00    -0.082 Cl
ATOM      8  S   UNL     1     -10.167   8.329  67.072  0.00  0.00    -0.084 S 
ATOM      9  C   UNL     1      -9.894   9.513  65.764  0.00  0.00    +0.043 A 
ATOM     10  C   UNL     1      -9.029   9.271  64.739  0.00  0.00    +0.008 A 
ATOM     11  C   UNL     1      -9.293   9.921  63.538  0.00  0.00    +0.001 A 
ATOM     12  C   UNL     1     -10.191  10.982  63.487  0.00  0.00    +0.001 A 
ATOM     13  C   UNL     1     -10.682  11.451  64.699  0.00  0.00    +0.015 A 
ATOM     14  C   UNL     1     -11.888  11.114  69.297  0.00  0.00    +0.027 A 
ATOM     15  C   UNL     1     -10.538  10.716  65.871  0.00  0.00    +0.058 A 
ENDROOT
BRANCH   1  16
ATOM     16  C   UNL     1     -11.158  12.727  67.151  0.00  0.00    +0.097 C 
BRANCH  16  17
ATOM     17  C   UNL     1      -9.854  13.375  67.509  0.00  0.00    +0.039 C 
BRANCH  17  18
ATOM     18  C   UNL     1     -10.005  14.873  67.378  0.00  0.00    +0.074 C 
BRANCH  18  20
ATOM     19  C   UNL     1      -8.490  16.297  66.155  0.00  0.00    +0.090 C 
ATOM     20  N   UNL     1      -9.523  15.290  66.086  0.00  0.00    -0.270 NA
ATOM     21  C   UNL     1     -10.620  15.737  65.265  0.00  0.00    +0.090 C 
ENDBRANCH  18  20
ENDBRANCH  17  18
ENDBRANCH  16  17
ENDBRANCH   1  16
TORSDOF 4
ENDMDL
