MODEL 1
REMARK VINA RESULT:      -8.1      0.000      0.000
REMARK  Name = 
REMARK  6 active torsions:
REMARK  status: ('A' for Active; 'I' for Inactive)
REMARK    1  A    between atoms: C_2  and  C_3
REMARK    2  A    between atoms: C_2  and  C_19
REMARK    3  A    between atoms: C_3  and  N_4
REMARK    4  A    between atoms: N_4  and  C_5
REMARK    5  A    between atoms: C_5  and  C_6
REMARK    6  A    between atoms: C_6  and  C_8
REMARK                            x       y       z     vdW  Elec       q    Type
REMARK                         _______ _______ _______ _____ _____    ______ ____
ROOT
ATOM      1  N   UNL     1     -12.062  12.179  65.968  0.00  0.00    -0.212 NA
ENDROOT
BRANCH   1   2
ATOM      2  C   UNL     1     -12.339  13.575  66.134  0.00  0.00    +0.125 C 
BRANCH   2   4
ATOM      3  O   UNL     1     -10.901  15.333  66.224  0.00  0.00    -0.218 OA
ATOM      4  C   UNL     1     -11.010  14.033  66.979  0.00  0.00    +0.209 C 
BRANCH   4   5
ATOM      5  C   UNL     1     -11.836  14.808  68.280  0.00  0.00    +0.198 C 
ATOM      6  O   UNL     1     -12.013  13.563  69.151  0.00  0.00    -0.477 OA
ATOM      7  C   UNL     1     -12.107  13.901  70.502  0.00  0.00    +0.135 A 
ATOM      8  C   UNL     1     -11.783  15.168  70.977  0.00  0.00    +0.014 A 
ATOM      9  C   UNL     1     -12.682  15.865  71.777  0.00  0.00    +0.028 A 
ATOM     10  C   UNL     1     -13.860  15.259  72.208  0.00  0.00    +0.140 A 
ATOM     11  C   UNL     1     -13.775  13.869  72.263  0.00  0.00    +0.033 A 
ATOM     12  F   UNL     1     -15.059  15.911  72.186  0.00  0.00    -0.204 F 
ATOM     13  C   UNL     1     -10.765  15.968  70.250  0.00  0.00    +0.033 C 
ATOM     14  C   UNL     1     -12.917  13.201  71.392  0.00  0.00    +0.039 A 
ATOM     15  C   UNL     1     -10.437  15.231  69.002  0.00  0.00    +0.051 C 
ENDBRANCH   4   5
ENDBRANCH   2   4
ENDBRANCH   1   2
BRANCH   1  16
ATOM     16  C   UNL     1     -10.812  11.872  66.481  0.00  0.00    +0.125 C 
BRANCH  16  17
ATOM     17  C   UNL     1     -10.652  10.310  66.903  0.00  0.00    +0.209 C 
ATOM     18  O   UNL     1      -9.803  10.062  65.679  0.00  0.00    -0.218 OA
BRANCH  17  19
ATOM     19  C   UNL     1      -9.278  10.591  67.901  0.00  0.00    +0.198 C 
ATOM     20  O   UNL     1     -10.185  10.926  69.075  0.00  0.00    -0.477 OA
ATOM     21  C   UNL     1     -10.647   9.996  69.935  0.00  0.00    +0.135 A 
ATOM     22  C   UNL     1      -9.643   9.239  70.538  0.00  0.00    +0.014 A 
ATOM     23  C   UNL     1     -10.050   8.183  71.327  0.00  0.00    +0.028 A 
ATOM     24  C   UNL     1     -11.183   8.356  72.100  0.00  0.00    +0.140 A 
ATOM     25  C   UNL     1     -12.101   9.286  71.695  0.00  0.00    +0.033 A 
ATOM     26  F   UNL     1     -11.204   7.763  73.330  0.00  0.00    -0.204 F 
ATOM     27  C   UNL     1      -8.476   9.020  69.620  0.00  0.00    +0.033 C 
ATOM     28  C   UNL     1     -11.846  10.128  70.630  0.00  0.00    +0.039 A 
ATOM     29  C   UNL     1      -9.110   9.002  68.238  0.00  0.00    +0.051 C 
ENDBRANCH  17  19
ENDBRANCH  16  17
ENDBRANCH   1  16
TORSDOF 6
ENDMDL
MODEL 2
REMARK VINA RESULT:      -7.9      2.957      6.248
REMARK  Name = 
REMARK  6 active torsions:
REMARK  status: ('A' for Active; 'I' for Inactive)
REMARK    1  A    between atoms: C_2  and  C_3
REMARK    2  A    between atoms: C_2  and  C_19
REMARK    3  A    between atoms: C_3  and  N_4
REMARK    4  A    between atoms: N_4  and  C_5
REMARK    5  A    between atoms: C_5  and  C_6
REMARK    6  A    between atoms: C_6  and  C_8
REMARK                            x       y       z     vdW  Elec       q    Type
REMARK                         _______ _______ _______ _____ _____    ______ ____
ROOT
ATOM      1  N   UNL     1      -9.858  16.656  67.555  0.00  0.00    -0.212 NA
ENDROOT
BRANCH   1   2
ATOM      2  C   UNL     1      -9.514  16.004  66.327  0.00  0.00    +0.125 C 
BRANCH   2   4
ATOM      3  O   UNL     1     -10.938  16.490  64.624  0.00  0.00    -0.218 OA
ATOM      4  C   UNL     1     -11.005  15.561  65.809  0.00  0.00    +0.209 C 
BRANCH   4   5
ATOM      5  C   UNL     1     -10.511  14.222  64.840  0.00  0.00    +0.198 C 
ATOM      6  O   UNL     1     -10.511  13.179  65.959  0.00  0.00    -0.477 OA
ATOM      7  C   UNL     1     -10.732  11.896  65.454  0.00  0.00    +0.135 A 
ATOM      8  C   UNL     1     -11.179  11.674  64.155  0.00  0.00    +0.014 A 
ATOM      9  C   UNL     1     -10.498  10.793  63.323  0.00  0.00    +0.028 A 
ATOM     10  C   UNL     1      -9.438  10.035  63.814  0.00  0.00    +0.140 A 
ATOM     11  C   UNL     1      -9.506   9.820  65.189  0.00  0.00    +0.033 A 
ATOM     12  F   UNL     1      -8.277   9.876  63.113  0.00  0.00    -0.204 F 
ATOM     13  C   UNL     1     -12.022  12.708  63.500  0.00  0.00    +0.033 C 
ATOM     14  C   UNL     1     -10.132  10.765  66.000  0.00  0.00    +0.039 A 
ATOM     15  C   UNL     1     -12.045  13.890  64.400  0.00  0.00    +0.051 C 
ENDBRANCH   4   5
ENDBRANCH   2   4
ENDBRANCH   1   2
BRANCH   1  16
ATOM     16  C   UNL     1     -10.939  16.023  68.149  0.00  0.00    +0.125 C 
BRANCH  16  17
ATOM     17  C   UNL     1     -10.709  15.696  69.726  0.00  0.00    +0.209 C 
ATOM     18  O   UNL     1     -10.702  17.174  70.034  0.00  0.00    -0.218 OA
BRANCH  17  19
ATOM     19  C   UNL     1     -12.390  15.549  70.067  0.00  0.00    +0.198 C 
ATOM     20  O   UNL     1     -12.438  14.226  69.319  0.00  0.00    -0.477 OA
ATOM     21  C   UNL     1     -12.191  13.039  69.910  0.00  0.00    +0.135 A 
ATOM     22  C   UNL     1     -12.995  12.786  71.020  0.00  0.00    +0.014 A 
ATOM     23  C   UNL     1     -12.707  11.650  71.750  0.00  0.00    +0.028 A 
ATOM     24  C   UNL     1     -12.311  10.522  71.056  0.00  0.00    +0.140 A 
ATOM     25  C   UNL     1     -11.741  10.693  69.825  0.00  0.00    +0.033 A 
ATOM     26  F   UNL     1     -12.722   9.311  71.534  0.00  0.00    -0.204 F 
ATOM     27  C   UNL     1     -13.325  14.040  71.775  0.00  0.00    +0.033 C 
ATOM     28  C   UNL     1     -11.689  11.936  69.225  0.00  0.00    +0.039 A 
ATOM     29  C   UNL     1     -12.105  14.921  71.548  0.00  0.00    +0.051 C 
ENDBRANCH  17  19
ENDBRANCH  16  17
ENDBRANCH   1  16
TORSDOF 6
ENDMDL
MODEL 3
REMARK VINA RESULT:      -7.7      4.554      6.493
REMARK  Name = 
REMARK  6 active torsions:
REMARK  status: ('A' for Active; 'I' for Inactive)
REMARK    1  A    between atoms: C_2  and  C_3
REMARK    2  A    between atoms: C_2  and  C_19
REMARK    3  A    between atoms: C_3  and  N_4
REMARK    4  A    between atoms: N_4  and  C_5
REMARK    5  A    between atoms: C_5  and  C_6
REMARK    6  A    between atoms: C_6  and  C_8
REMARK                            x       y       z     vdW  Elec       q    Type
REMARK                         _______ _______ _______ _____ _____    ______ ____
ROOT
ATOM      1  N   UNL     1     -10.369  17.155  65.790  0.00  0.00    -0.212 NA
ENDROOT
BRANCH   1   2
ATOM      2  C   UNL     1      -9.945  17.916  66.927  0.00  0.00    +0.125 C 
BRANCH   2   4
ATOM      3  O   UNL     1     -10.174  20.091  66.309  0.00  0.00    -0.218 OA
ATOM      4  C   UNL     1      -9.064  19.079  66.181  0.00  0.00    +0.209 C 
BRANCH   4   5
ATOM      5  C   UNL     1      -8.281  19.697  67.589  0.00  0.00    +0.198 C 
ATOM      6  O   UNL     1      -7.415  18.468  67.870  0.00  0.00    -0.477 OA
ATOM      7  C   UNL     1      -6.254  18.815  68.562  0.00  0.00    +0.135 A 
ATOM      8  C   UNL     1      -5.835  20.136  68.697  0.00  0.00    +0.014 A 
ATOM      9  C   UNL     1      -5.531  20.646  69.955  0.00  0.00    +0.028 A 
ATOM     10  C   UNL     1      -5.527  19.815  71.072  0.00  0.00    +0.140 A 
ATOM     11  C   UNL     1      -5.288  18.477  70.762  0.00  0.00    +0.033 A 
ATOM     12  F   UNL     1      -6.087  20.194  72.258  0.00  0.00    -0.204 F 
ATOM     13  C   UNL     1      -6.193  21.114  67.639  0.00  0.00    +0.033 C 
ATOM     14  C   UNL     1      -5.677  17.984  69.517  0.00  0.00    +0.039 A 
ATOM     15  C   UNL     1      -7.124  20.429  66.705  0.00  0.00    +0.051 C 
ENDBRANCH   4   5
ENDBRANCH   2   4
ENDBRANCH   1   2
BRANCH   1  16
ATOM     16  C   UNL     1     -10.043  15.818  65.957  0.00  0.00    +0.125 C 
BRANCH  16  17
ATOM     17  C   UNL     1     -11.322  14.883  66.325  0.00  0.00    +0.209 C 
ATOM     18  O   UNL     1     -11.107  14.086  65.060  0.00  0.00    -0.218 OA
BRANCH  17  19
ATOM     19  C   UNL     1     -10.400  13.781  67.273  0.00  0.00    +0.198 C 
ATOM     20  O   UNL     1     -10.463  14.731  68.459  0.00  0.00    -0.477 OA
ATOM     21  C   UNL     1     -11.462  14.710  69.365  0.00  0.00    +0.135 A 
ATOM     22  C   UNL     1     -11.649  13.466  69.967  0.00  0.00    +0.014 A 
ATOM     23  C   UNL     1     -12.738  13.339  70.805  0.00  0.00    +0.028 A 
ATOM     24  C   UNL     1     -13.066  14.420  71.602  0.00  0.00    +0.140 A 
ATOM     25  C   UNL     1     -12.676  15.664  71.189  0.00  0.00    +0.033 A 
ATOM     26  F   UNL     1     -13.546  14.158  72.853  0.00  0.00    -0.204 F 
ATOM     27  C   UNL     1     -11.352  12.335  69.026  0.00  0.00    +0.033 C 
ATOM     28  C   UNL     1     -11.860  15.831  70.088  0.00  0.00    +0.039 A 
ATOM     29  C   UNL     1     -11.720  12.902  67.663  0.00  0.00    +0.051 C 
ENDBRANCH  17  19
ENDBRANCH  16  17
ENDBRANCH   1  16
TORSDOF 6
ENDMDL
MODEL 4
REMARK VINA RESULT:      -7.4      4.519      6.534
REMARK  Name = 
REMARK  6 active torsions:
REMARK  status: ('A' for Active; 'I' for Inactive)
REMARK    1  A    between atoms: C_2  and  C_3
REMARK    2  A    between atoms: C_2  and  C_19
REMARK    3  A    between atoms: C_3  and  N_4
REMARK    4  A    between atoms: N_4  and  C_5
REMARK    5  A    between atoms: C_5  and  C_6
REMARK    6  A    between atoms: C_6  and  C_8
REMARK                            x       y       z     vdW  Elec       q    Type
REMARK                         _______ _______ _______ _____ _____    ______ ____
ROOT
ATOM      1  N   UNL     1     -10.293  14.889  65.316  0.00  0.00    -0.212 NA
ENDROOT
BRANCH   1   2
ATOM      2  C   UNL     1      -9.338  15.667  66.046  0.00  0.00    +0.125 C 
BRANCH   2   4
ATOM      3  O   UNL     1     -10.782  16.765  67.416  0.00  0.00    -0.218 OA
ATOM      4  C   UNL     1     -10.123  17.106  66.104  0.00  0.00    +0.209 C 
BRANCH   4   5
ATOM      5  C   UNL     1      -8.885  17.998  66.908  0.00  0.00    +0.198 C 
ATOM      6  O   UNL     1      -8.013  18.249  65.678  0.00  0.00    -0.477 OA
ATOM      7  C   UNL     1      -7.251  19.410  65.826  0.00  0.00    +0.135 A 
ATOM      8  C   UNL     1      -7.498  20.338  66.834  0.00  0.00    +0.014 A 
ATOM      9  C   UNL     1      -6.464  20.759  67.662  0.00  0.00    +0.028 A 
ATOM     10  C   UNL     1      -5.154  20.353  67.420  0.00  0.00    +0.140 A 
ATOM     11  C   UNL     1      -4.919  20.023  66.087  0.00  0.00    +0.033 A 
ATOM     12  F   UNL     1      -4.326  19.942  68.425  0.00  0.00    -0.204 F 
ATOM     13  C   UNL     1      -8.882  20.482  67.353  0.00  0.00    +0.033 C 
ATOM     14  C   UNL     1      -5.965  19.531  65.308  0.00  0.00    +0.039 A 
ATOM     15  C   UNL     1      -9.696  19.402  66.740  0.00  0.00    +0.051 C 
ENDBRANCH   4   5
ENDBRANCH   2   4
ENDBRANCH   1   2
BRANCH   1  16
ATOM     16  C   UNL     1     -10.332  13.593  65.804  0.00  0.00    +0.125 C 
BRANCH  16  17
ATOM     17  C   UNL     1     -11.645  13.285  66.714  0.00  0.00    +0.209 C 
ATOM     18  O   UNL     1     -11.872  11.999  65.956  0.00  0.00    -0.218 OA
BRANCH  17  19
ATOM     19  C   UNL     1     -10.752  12.492  67.954  0.00  0.00    +0.198 C 
ATOM     20  O   UNL     1     -10.793  13.753  68.805  0.00  0.00    -0.477 OA
ATOM     21  C   UNL     1     -11.793  14.025  69.667  0.00  0.00    +0.135 A 
ATOM     22  C   UNL     1     -12.012  13.021  70.609  0.00  0.00    +0.014 A 
ATOM     23  C   UNL     1     -13.105  13.175  71.437  0.00  0.00    +0.028 A 
ATOM     24  C   UNL     1     -13.406  14.451  71.876  0.00  0.00    +0.140 A 
ATOM     25  C   UNL     1     -12.985  15.506  71.116  0.00  0.00    +0.033 A 
ATOM     26  F   UNL     1     -13.895  14.583  73.144  0.00  0.00    -0.204 F 
ATOM     27  C   UNL     1     -11.744  11.655  70.048  0.00  0.00    +0.033 C 
ATOM     28  C   UNL     1     -12.163  15.319  70.022  0.00  0.00    +0.039 A 
ATOM     29  C   UNL     1     -12.095  11.801  68.575  0.00  0.00    +0.051 C 
ENDBRANCH  17  19
ENDBRANCH  16  17
ENDBRANCH   1  16
TORSDOF 6
ENDMDL
MODEL 5
REMARK VINA RESULT:      -7.4      1.703      2.088
REMARK  Name = 
REMARK  6 active torsions:
REMARK  status: ('A' for Active; 'I' for Inactive)
REMARK    1  A    between atoms: C_2  and  C_3
REMARK    2  A    between atoms: C_2  and  C_19
REMARK    3  A    between atoms: C_3  and  N_4
REMARK    4  A    between atoms: N_4  and  C_5
REMARK    5  A    between atoms: C_5  and  C_6
REMARK    6  A    between atoms: C_6  and  C_8
REMARK                            x       y       z     vdW  Elec       q    Type
REMARK                         _______ _______ _______ _____ _____    ______ ____
ROOT
ATOM      1  N   UNL     1     -10.029  10.872  66.791  0.00  0.00    -0.212 NA
ENDROOT
BRANCH   1   2
ATOM      2  C   UNL     1     -11.028  11.523  67.583  0.00  0.00    +0.125 C 
BRANCH   2   4
ATOM      3  O   UNL     1     -10.954  13.393  66.295  0.00  0.00    -0.218 OA
ATOM      4  C   UNL     1     -10.401  13.036  67.651  0.00  0.00    +0.209 C 
BRANCH   4   5
ATOM      5  C   UNL     1     -11.736  13.790  68.441  0.00  0.00    +0.198 C 
ATOM      6  O   UNL     1     -11.649  12.996  69.745  0.00  0.00    -0.477 OA
ATOM      7  C   UNL     1     -12.177  13.720  70.815  0.00  0.00    +0.135 A 
ATOM      8  C   UNL     1     -12.460  15.080  70.726  0.00  0.00    +0.014 A 
ATOM      9  C   UNL     1     -13.714  15.557  71.092  0.00  0.00    +0.028 A 
ATOM     10  C   UNL     1     -14.655  14.704  71.662  0.00  0.00    +0.140 A 
ATOM     11  C   UNL     1     -14.085  13.609  72.309  0.00  0.00    +0.033 A 
ATOM     12  F   UNL     1     -15.968  14.720  71.285  0.00  0.00    -0.204 F 
ATOM     13  C   UNL     1     -11.662  15.919  69.796  0.00  0.00    +0.033 C 
ATOM     14  C   UNL     1     -12.862  13.111  71.862  0.00  0.00    +0.039 A 
ATOM     15  C   UNL     1     -10.802  15.002  69.005  0.00  0.00    +0.051 C 
ENDBRANCH   4   5
ENDBRANCH   2   4
ENDBRANCH   1   2
BRANCH   1  16
ATOM     16  C   UNL     1      -9.554   9.746  67.445  0.00  0.00    +0.125 C 
BRANCH  16  17
ATOM     17  C   UNL     1     -10.542   8.460  67.317  0.00  0.00    +0.209 C 
ATOM     18  O   UNL     1      -9.601   7.834  66.315  0.00  0.00    -0.218 OA
BRANCH  17  19
ATOM     19  C   UNL     1      -9.824   7.622  68.638  0.00  0.00    +0.198 C 
ATOM     20  O   UNL     1     -10.344   8.675  69.604  0.00  0.00    -0.477 OA
ATOM     21  C   UNL     1     -11.557   8.603  70.187  0.00  0.00    +0.135 A 
ATOM     22  C   UNL     1     -11.772   7.418  70.891  0.00  0.00    +0.014 A 
ATOM     23  C   UNL     1     -13.039   7.221  71.401  0.00  0.00    +0.028 A 
ATOM     24  C   UNL     1     -13.710   8.320  71.905  0.00  0.00    +0.140 A 
ATOM     25  C   UNL     1     -13.359   9.555  71.436  0.00  0.00    +0.033 A 
ATOM     26  F   UNL     1     -14.507   8.126  72.996  0.00  0.00    -0.204 F 
ATOM     27  C   UNL     1     -11.084   6.249  70.250  0.00  0.00    +0.033 C 
ATOM     28  C   UNL     1     -12.276   9.723  70.595  0.00  0.00    +0.039 A 
ATOM     29  C   UNL     1     -11.092   6.601  68.770  0.00  0.00    +0.051 C 
ENDBRANCH  17  19
ENDBRANCH  16  17
ENDBRANCH   1  16
TORSDOF 6
ENDMDL
MODEL 6
REMARK VINA RESULT:      -7.2      5.398      7.548
REMARK  Name = 
REMARK  6 active torsions:
REMARK  status: ('A' for Active; 'I' for Inactive)
REMARK    1  A    between atoms: C_2  and  C_3
REMARK    2  A    between atoms: C_2  and  C_19
REMARK    3  A    between atoms: C_3  and  N_4
REMARK    4  A    between atoms: N_4  and  C_5
REMARK    5  A    between atoms: C_5  and  C_6
REMARK    6  A    between atoms: C_6  and  C_8
REMARK                            x       y       z     vdW  Elec       q    Type
REMARK                         _______ _______ _______ _____ _____    ______ ____
ROOT
ATOM      1  N   UNL     1     -10.931  17.735  68.014  0.00  0.00    -0.212 NA
ENDROOT
BRANCH   1   2
ATOM      2  C   UNL     1     -10.148  18.890  68.340  0.00  0.00    +0.125 C 
BRANCH   2   4
ATOM      3  O   UNL     1      -9.945  20.281  66.555  0.00  0.00    -0.218 OA
ATOM      4  C   UNL     1      -9.243  19.016  66.979  0.00  0.00    +0.209 C 
BRANCH   4   5
ATOM      5  C   UNL     1      -7.942  19.918  67.665  0.00  0.00    +0.198 C 
ATOM      6  O   UNL     1      -7.374  18.791  68.528  0.00  0.00    -0.477 OA
ATOM      7  C   UNL     1      -6.010  18.971  68.762  0.00  0.00    +0.135 A 
ATOM      8  C   UNL     1      -5.248  19.893  68.050  0.00  0.00    +0.014 A 
ATOM      9  C   UNL     1      -4.460  20.818  68.726  0.00  0.00    +0.028 A 
ATOM     10  C   UNL     1      -4.330  20.756  70.111  0.00  0.00    +0.140 A 
ATOM     11  C   UNL     1      -4.545  19.480  70.628  0.00  0.00    +0.033 A 
ATOM     12  F   UNL     1      -4.391  21.874  70.894  0.00  0.00    -0.204 F 
ATOM     13  C   UNL     1      -5.648  20.233  66.660  0.00  0.00    +0.033 C 
ATOM     14  C   UNL     1      -5.403  18.607  69.961  0.00  0.00    +0.039 A 
ATOM     15  C   UNL     1      -6.959  19.582  66.409  0.00  0.00    +0.051 C 
ENDBRANCH   4   5
ENDBRANCH   2   4
ENDBRANCH   1   2
BRANCH   1  16
ATOM     16  C   UNL     1     -10.662  16.706  68.901  0.00  0.00    +0.125 C 
BRANCH  16  17
ATOM     17  C   UNL     1      -9.853  15.466  68.226  0.00  0.00    +0.209 C 
ATOM     18  O   UNL     1      -9.016  15.328  69.475  0.00  0.00    -0.218 OA
BRANCH  17  19
ATOM     19  C   UNL     1     -10.983  14.279  68.755  0.00  0.00    +0.198 C 
ATOM     20  O   UNL     1     -11.866  14.567  67.550  0.00  0.00    -0.477 OA
ATOM     21  C   UNL     1     -11.722  13.936  66.367  0.00  0.00    +0.135 A 
ATOM     22  C   UNL     1     -11.784  12.546  66.460  0.00  0.00    +0.014 A 
ATOM     23  C   UNL     1     -11.513  11.834  65.309  0.00  0.00    +0.028 A 
ATOM     24  C   UNL     1     -11.966  12.352  64.110  0.00  0.00    +0.140 A 
ATOM     25  C   UNL     1     -12.177  13.701  64.032  0.00  0.00    +0.033 A 
ATOM     26  F   UNL     1     -12.393  11.467  63.162  0.00  0.00    -0.204 F 
ATOM     27  C   UNL     1     -11.206  12.042  67.749  0.00  0.00    +0.033 C 
ATOM     28  C   UNL     1     -12.081  14.507  65.149  0.00  0.00    +0.039 A 
ATOM     29  C   UNL     1     -10.128  13.063  68.079  0.00  0.00    +0.051 C 
ENDBRANCH  17  19
ENDBRANCH  16  17
ENDBRANCH   1  16
TORSDOF 6
ENDMDL
MODEL 7
REMARK VINA RESULT:      -7.2      4.768      6.424
REMARK  Name = 
REMARK  6 active torsions:
REMARK  status: ('A' for Active; 'I' for Inactive)
REMARK    1  A    between atoms: C_2  and  C_3
REMARK    2  A    between atoms: C_2  and  C_19
REMARK    3  A    between atoms: C_3  and  N_4
REMARK    4  A    between atoms: N_4  and  C_5
REMARK    5  A    between atoms: C_5  and  C_6
REMARK    6  A    between atoms: C_6  and  C_8
REMARK                            x       y       z     vdW  Elec       q    Type
REMARK                         _______ _______ _______ _____ _____    ______ ____
ROOT
ATOM      1  N   UNL     1     -10.684  16.469  65.176  0.00  0.00    -0.212 NA
ENDROOT
BRANCH   1   2
ATOM      2  C   UNL     1     -10.462  16.855  66.538  0.00  0.00    +0.125 C 
BRANCH   2   4
ATOM      3  O   UNL     1     -10.882  18.778  67.673  0.00  0.00    -0.218 OA
ATOM      4  C   UNL     1     -10.238  18.467  66.347  0.00  0.00    +0.209 C 
BRANCH   4   5
ATOM      5  C   UNL     1      -8.662  18.553  67.043  0.00  0.00    +0.198 C 
ATOM      6  O   UNL     1      -7.880  18.283  65.757  0.00  0.00    -0.477 OA
ATOM      7  C   UNL     1      -6.604  18.847  65.814  0.00  0.00    +0.135 A 
ATOM      8  C   UNL     1      -6.240  19.768  66.792  0.00  0.00    +0.014 A 
ATOM      9  C   UNL     1      -5.088  19.569  67.544  0.00  0.00    +0.028 A 
ATOM     10  C   UNL     1      -4.225  18.516  67.249  0.00  0.00    +0.140 A 
ATOM     11  C   UNL     1      -4.298  18.101  65.921  0.00  0.00    +0.033 A 
ATOM     12  F   UNL     1      -3.684  17.730  68.225  0.00  0.00    -0.204 F 
ATOM     13  C   UNL     1      -7.287  20.644  67.378  0.00  0.00    +0.033 C 
ATOM     14  C   UNL     1      -5.496  18.248  65.222  0.00  0.00    +0.039 A 
ATOM     15  C   UNL     1      -8.596  20.171  66.857  0.00  0.00    +0.051 C 
ENDBRANCH   4   5
ENDBRANCH   2   4
ENDBRANCH   1   2
BRANCH   1  16
ATOM     16  C   UNL     1     -10.337  15.141  64.990  0.00  0.00    +0.125 C 
BRANCH  16  17
ATOM     17  C   UNL     1     -11.440  14.097  65.574  0.00  0.00    +0.209 C 
ATOM     18  O   UNL     1     -11.611  13.502  64.197  0.00  0.00    -0.218 OA
BRANCH  17  19
ATOM     19  C   UNL     1     -10.267  12.919  66.026  0.00  0.00    +0.198 C 
ATOM     20  O   UNL     1     -10.288  13.432  67.458  0.00  0.00    -0.477 OA
ATOM     21  C   UNL     1     -11.144  12.971  68.391  0.00  0.00    +0.135 A 
ATOM     22  C   UNL     1     -11.092  11.589  68.569  0.00  0.00    +0.014 A 
ATOM     23  C   UNL     1     -12.033  11.036  69.412  0.00  0.00    +0.028 A 
ATOM     24  C   UNL     1     -12.382  11.748  70.544  0.00  0.00    +0.140 A 
ATOM     25  C   UNL     1     -12.210  13.105  70.527  0.00  0.00    +0.033 A 
ATOM     26  F   UNL     1     -12.653  11.038  71.678  0.00  0.00    -0.204 F 
ATOM     27  C   UNL     1     -10.787  10.869  67.288  0.00  0.00    +0.033 C 
ATOM     28  C   UNL     1     -11.577  13.734  69.473  0.00  0.00    +0.039 A 
ATOM     29  C   UNL     1     -11.403  11.762  66.223  0.00  0.00    +0.051 C 
ENDBRANCH  17  19
ENDBRANCH  16  17
ENDBRANCH   1  16
TORSDOF 6
ENDMDL
MODEL 8
REMARK VINA RESULT:      -7.2      1.870      2.586
REMARK  Name = 
REMARK  6 active torsions:
REMARK  status: ('A' for Active; 'I' for Inactive)
REMARK    1  A    between atoms: C_2  and  C_3
REMARK    2  A    between atoms: C_2  and  C_19
REMARK    3  A    between atoms: C_3  and  N_4
REMARK    4  A    between atoms: N_4  and  C_5
REMARK    5  A    between atoms: C_5  and  C_6
REMARK    6  A    between atoms: C_6  and  C_8
REMARK                            x       y       z     vdW  Elec       q    Type
REMARK                         _______ _______ _______ _____ _____    ______ ____
ROOT
ATOM      1  N   UNL     1     -12.073  11.875  63.692  0.00  0.00    -0.212 NA
ENDROOT
BRANCH   1   2
ATOM      2  C   UNL     1     -12.642  12.634  64.765  0.00  0.00    +0.125 C 
BRANCH   2   4
ATOM      3  O   UNL     1     -12.556  14.782  64.025  0.00  0.00    -0.218 OA
ATOM      4  C   UNL     1     -11.606  13.904  64.800  0.00  0.00    +0.209 C 
BRANCH   4   5
ATOM      5  C   UNL     1     -12.136  14.578  66.296  0.00  0.00    +0.198 C 
ATOM      6  O   UNL     1     -11.705  13.410  67.185  0.00  0.00    -0.477 OA
ATOM      7  C   UNL     1     -11.441  13.836  68.488  0.00  0.00    +0.135 A 
ATOM      8  C   UNL     1     -11.312  15.182  68.819  0.00  0.00    +0.014 A 
ATOM      9  C   UNL     1     -12.052  15.717  69.868  0.00  0.00    +0.028 A 
ATOM     10  C   UNL     1     -12.835  14.892  70.672  0.00  0.00    +0.140 A 
ATOM     11  C   UNL     1     -12.390  13.572  70.705  0.00  0.00    +0.033 A 
ATOM     12  F   UNL     1     -14.101  15.239  71.046  0.00  0.00    -0.204 F 
ATOM     13  C   UNL     1     -10.818  16.130  67.788  0.00  0.00    +0.033 C 
ATOM     14  C   UNL     1     -11.718  13.049  69.601  0.00  0.00    +0.039 A 
ATOM     15  C   UNL     1     -10.734  15.382  66.508  0.00  0.00    +0.051 C 
ENDBRANCH   4   5
ENDBRANCH   2   4
ENDBRANCH   1   2
BRANCH   1  16
ATOM     16  C   UNL     1     -10.696  11.803  63.831  0.00  0.00    +0.125 C 
BRANCH  16  17
ATOM     17  C   UNL     1     -10.162  10.310  64.197  0.00  0.00    +0.209 C 
ATOM     18  O   UNL     1      -9.450  10.237  62.867  0.00  0.00    -0.218 OA
BRANCH  17  19
ATOM     19  C   UNL     1      -8.756  10.879  65.011  0.00  0.00    +0.198 C 
ATOM     20  O   UNL     1      -9.556  11.059  66.292  0.00  0.00    -0.477 OA
ATOM     21  C   UNL     1      -9.715  10.078  67.203  0.00  0.00    +0.135 A 
ATOM     22  C   UNL     1      -8.514   9.547  67.672  0.00  0.00    +0.014 A 
ATOM     23  C   UNL     1      -8.604   8.452  68.506  0.00  0.00    +0.028 A 
ATOM     24  C   UNL     1      -9.642   8.419  69.418  0.00  0.00    +0.140 A 
ATOM     25  C   UNL     1     -10.768   9.142  69.134  0.00  0.00    +0.033 A 
ATOM     26  F   UNL     1      -9.392   7.864  70.640  0.00  0.00    -0.204 F 
ATOM     27  C   UNL     1      -7.451   9.538  66.613  0.00  0.00    +0.033 C 
ATOM     28  C   UNL     1     -10.819   9.991  68.046  0.00  0.00    +0.039 A 
ATOM     29  C   UNL     1      -8.237   9.362  65.322  0.00  0.00    +0.051 C 
ENDBRANCH  17  19
ENDBRANCH  16  17
ENDBRANCH   1  16
TORSDOF 6
ENDMDL
MODEL 9
REMARK VINA RESULT:      -7.1      5.333      9.278
REMARK  Name = 
REMARK  6 active torsions:
REMARK  status: ('A' for Active; 'I' for Inactive)
REMARK    1  A    between atoms: C_2  and  C_3
REMARK    2  A    between atoms: C_2  and  C_19
REMARK    3  A    between atoms: C_3  and  N_4
REMARK    4  A    between atoms: N_4  and  C_5
REMARK    5  A    between atoms: C_5  and  C_6
REMARK    6  A    between atoms: C_6  and  C_8
REMARK                            x       y       z     vdW  Elec       q    Type
REMARK                         _______ _______ _______ _____ _____    ______ ____
ROOT
ATOM      1  N   UNL     1     -10.394  16.057  67.897  0.00  0.00    -0.212 NA
ENDROOT
BRANCH   1   2
ATOM      2  C   UNL     1      -9.866  15.936  66.571  0.00  0.00    +0.125 C 
BRANCH   2   4
ATOM      3  O   UNL     1     -10.910  16.394  64.604  0.00  0.00    -0.218 OA
ATOM      4  C   UNL     1     -11.218  15.481  65.763  0.00  0.00    +0.209 C 
BRANCH   4   5
ATOM      5  C   UNL     1     -10.534  14.130  64.936  0.00  0.00    +0.198 C 
ATOM      6  O   UNL     1     -10.723  13.113  66.062  0.00  0.00    -0.477 OA
ATOM      7  C   UNL     1     -10.828  11.815  65.559  0.00  0.00    +0.135 A 
ATOM      8  C   UNL     1     -11.026  11.555  64.205  0.00  0.00    +0.014 A 
ATOM      9  C   UNL     1     -10.190  10.669  63.535  0.00  0.00    +0.028 A 
ATOM     10  C   UNL     1      -9.226   9.944  64.230  0.00  0.00    +0.140 A 
ATOM     11  C   UNL     1      -9.541   9.758  65.575  0.00  0.00    +0.033 A 
ATOM     12  F   UNL     1      -7.954   9.793  63.757  0.00  0.00    -0.204 F 
ATOM     13  C   UNL     1     -11.751  12.556  63.382  0.00  0.00    +0.033 C 
ATOM     14  C   UNL     1     -10.319  10.709  66.233  0.00  0.00    +0.039 A 
ATOM     15  C   UNL     1     -11.956  13.757  64.231  0.00  0.00    +0.051 C 
ENDBRANCH   4   5
ENDBRANCH   2   4
ENDBRANCH   1   2
BRANCH   1  16
ATOM     16  C   UNL     1     -10.203  17.343  68.375  0.00  0.00    +0.125 C 
BRANCH  16  17
ATOM     17  C   UNL     1      -9.747  18.399  67.225  0.00  0.00    +0.209 C 
ATOM     18  O   UNL     1     -10.960  19.249  67.521  0.00  0.00    -0.218 OA
BRANCH  17  19
ATOM     19  C   UNL     1      -8.746  19.313  68.287  0.00  0.00    +0.198 C 
ATOM     20  O   UNL     1      -7.593  18.352  68.046  0.00  0.00    -0.477 OA
ATOM     21  C   UNL     1      -6.707  18.506  67.042  0.00  0.00    +0.135 A 
ATOM     22  C   UNL     1      -6.069  19.746  67.039  0.00  0.00    +0.014 A 
ATOM     23  C   UNL     1      -5.248  20.020  65.964  0.00  0.00    +0.028 A 
ATOM     24  C   UNL     1      -4.492  18.983  65.450  0.00  0.00    +0.140 A 
ATOM     25  C   UNL     1      -4.937  17.705  65.647  0.00  0.00    +0.033 A 
ATOM     26  F   UNL     1      -3.243  19.283  64.987  0.00  0.00    -0.204 F 
ATOM     27  C   UNL     1      -6.967  20.841  67.533  0.00  0.00    +0.033 C 
ATOM     28  C   UNL     1      -6.027  17.442  66.454  0.00  0.00    +0.039 A 
ATOM     29  C   UNL     1      -8.355  20.379  67.113  0.00  0.00    +0.051 C 
ENDBRANCH  17  19
ENDBRANCH  16  17
ENDBRANCH   1  16
TORSDOF 6
ENDMDL
