MODEL 1
REMARK VINA RESULT:      -7.6      0.000      0.000
REMARK  Name = 
REMARK  9 active torsions:
REMARK  status: ('A' for Active; 'I' for Inactive)
REMARK    1  A    between atoms: C_2  and  C_4
REMARK    2  A    between atoms: C_4  and  C_6
REMARK    3  A    between atoms: C_6  and  O_8
REMARK    4  A    between atoms: O_8  and  C_9
REMARK    5  A    between atoms: C_9  and  C_10
REMARK    6  A    between atoms: C_10  and  C_11
REMARK    7  A    between atoms: C_10  and  O_13
REMARK    8  A    between atoms: O_13  and  C_14
REMARK    9  A    between atoms: C_14  and  N_15
REMARK                            x       y       z     vdW  Elec       q    Type
REMARK                         _______ _______ _______ _____ _____    ______ ____
ROOT
ATOM      1  O   UNL     1     -10.843  17.228  68.312  0.00  0.00    -0.328 OA
ENDROOT
BRANCH   1   2
ATOM      2  C   UNL     1     -10.584  16.837  69.568  0.00  0.00    +0.258 C 
BRANCH   2   3
ATOM      3  N   UNL     1     -11.416  15.782  70.080  0.00  0.00    -0.268 N 
ATOM      4  C   UNL     1     -12.113  15.714  71.214  0.00  0.00    +0.172 A 
ATOM      5  N   UNL     1     -11.992  16.404  72.363  0.00  0.00    -0.192 NA
ATOM      6  C   UNL     1     -12.546  15.899  73.491  0.00  0.00    +0.261 A 
ATOM      7  N   UNL     1     -13.146  14.685  73.524  0.00  0.00    -0.171 NA
ATOM      8  C   UNL     1     -13.247  13.960  72.386  0.00  0.00    +0.302 A 
ATOM      9  O   UNL     1     -13.805  12.838  72.337  0.00  0.00    -0.263 OA
ATOM     10  N   UNL     1     -12.425  16.606  74.707  0.00  0.00    -0.086 NA
ATOM     11  C   UNL     1     -12.739  14.494  71.207  0.00  0.00    +0.175 A 
ATOM     12  N   UNL     1     -12.519  13.960  69.990  0.00  0.00    -0.217 NA
ATOM     13  C   UNL     1     -11.389  14.527  69.565  0.00  0.00    +0.182 A 
ENDBRANCH   2   3
ENDBRANCH   1   2
BRANCH   1  14
ATOM     14  C   UNL     1      -9.584  17.669  67.594  0.00  0.00    +0.194 C 
BRANCH  14  15
ATOM     15  C   UNL     1      -9.811  19.246  68.027  0.00  0.00    +0.215 C 
ATOM     16  O   UNL     1     -11.038  19.592  67.469  0.00  0.00    -0.218 OA
ENDBRANCH  14  15
BRANCH  14  17
ATOM     17  C   UNL     1     -10.341  17.872  66.142  0.00  0.00    +0.241 C 
BRANCH  17  18
ATOM     18  O   UNL     1     -10.061  16.718  65.398  0.00  0.00    -0.445 OA
BRANCH  18  19
ATOM     19  C   UNL     1     -11.077  15.963  64.799  0.00  0.00    +0.335 C 
ATOM     20  O   UNL     1     -11.717  16.400  63.820  0.00  0.00    -0.248 OA
BRANCH  19  21
ATOM     21  C   UNL     1     -10.566  14.436  64.729  0.00  0.00    +0.190 C 
ATOM     22  N   UNL     1     -10.644  14.253  66.292  0.00  0.00    -0.121 NA
BRANCH  21  24
ATOM     23  C   UNL     1     -11.950  12.847  63.536  0.00  0.00    +0.002 C 
ATOM     24  C   UNL     1     -12.084  13.839  64.511  0.00  0.00    +0.029 C 
ATOM     25  C   UNL     1     -12.328  13.176  65.828  0.00  0.00    +0.002 C 
ENDBRANCH  21  24
ENDBRANCH  19  21
ENDBRANCH  18  19
ENDBRANCH  17  18
ENDBRANCH  14  17
ENDBRANCH   1  14
TORSDOF 9
ENDMDL
MODEL 2
REMARK VINA RESULT:      -7.0      2.261      7.361
REMARK  Name = 
REMARK  9 active torsions:
REMARK  status: ('A' for Active; 'I' for Inactive)
REMARK    1  A    between atoms: C_2  and  C_4
REMARK    2  A    between atoms: C_4  and  C_6
REMARK    3  A    between atoms: C_6  and  O_8
REMARK    4  A    between atoms: O_8  and  C_9
REMARK    5  A    between atoms: C_9  and  C_10
REMARK    6  A    between atoms: C_10  and  C_11
REMARK    7  A    between atoms: C_10  and  O_13
REMARK    8  A    between atoms: O_13  and  C_14
REMARK    9  A    between atoms: C_14  and  N_15
REMARK                            x       y       z     vdW  Elec       q    Type
REMARK                         _______ _______ _______ _____ _____    ______ ____
ROOT
ATOM      1  O   UNL     1     -12.080  11.676  68.009  0.00  0.00    -0.328 OA
ENDROOT
BRANCH   1   2
ATOM      2  C   UNL     1     -11.395  11.627  66.857  0.00  0.00    +0.258 C 
BRANCH   2   3
ATOM      3  N   UNL     1     -11.536  12.768  65.994  0.00  0.00    -0.268 N 
ATOM      4  C   UNL     1     -10.789  13.867  65.897  0.00  0.00    +0.172 A 
ATOM      5  N   UNL     1      -9.924  14.422  66.766  0.00  0.00    -0.192 NA
ATOM      6  C   UNL     1      -9.585  15.723  66.613  0.00  0.00    +0.261 A 
ATOM      7  N   UNL     1     -10.149  16.513  65.666  0.00  0.00    -0.171 NA
ATOM      8  C   UNL     1     -11.047  15.983  64.805  0.00  0.00    +0.302 A 
ATOM      9  O   UNL     1     -11.594  16.647  63.893  0.00  0.00    -0.263 OA
ATOM     10  N   UNL     1      -8.683  16.324  67.518  0.00  0.00    -0.086 NA
ATOM     11  C   UNL     1     -11.356  14.632  64.911  0.00  0.00    +0.175 A 
ATOM     12  N   UNL     1     -12.320  13.875  64.349  0.00  0.00    -0.217 NA
ATOM     13  C   UNL     1     -12.677  13.012  65.302  0.00  0.00    +0.182 A 
ENDBRANCH   2   3
ENDBRANCH   1   2
BRANCH   1  14
ATOM     14  C   UNL     1     -11.162  11.880  69.196  0.00  0.00    +0.194 C 
BRANCH  14  15
ATOM     15  C   UNL     1     -10.811  10.269  69.285  0.00  0.00    +0.215 C 
ATOM     16  O   UNL     1     -10.808   9.984  70.647  0.00  0.00    -0.218 OA
ENDBRANCH  14  15
BRANCH  14  17
ATOM     17  C   UNL     1     -12.376  11.761  70.307  0.00  0.00    +0.241 C 
BRANCH  17  18
ATOM     18  O   UNL     1     -12.321  12.941  71.063  0.00  0.00    -0.445 OA
BRANCH  18  19
ATOM     19  C   UNL     1     -13.482  13.605  71.476  0.00  0.00    +0.335 C 
ATOM     20  O   UNL     1     -13.950  13.440  72.623  0.00  0.00    -0.248 OA
BRANCH  19  21
ATOM     21  C   UNL     1     -13.397  15.116  70.922  0.00  0.00    +0.190 C 
ATOM     22  N   UNL     1     -13.972  15.724  72.257  0.00  0.00    -0.121 NA
BRANCH  21  24
ATOM     23  C   UNL     1     -11.213  16.011  70.385  0.00  0.00    +0.002 C 
ATOM     24  C   UNL     1     -11.841  15.310  71.418  0.00  0.00    +0.029 C 
ATOM     25  C   UNL     1     -12.018  16.238  72.578  0.00  0.00    +0.002 C 
ENDBRANCH  21  24
ENDBRANCH  19  21
ENDBRANCH  18  19
ENDBRANCH  17  18
ENDBRANCH  14  17
ENDBRANCH   1  14
TORSDOF 9
ENDMDL
MODEL 3
REMARK VINA RESULT:      -6.8      2.909      6.216
REMARK  Name = 
REMARK  9 active torsions:
REMARK  status: ('A' for Active; 'I' for Inactive)
REMARK    1  A    between atoms: C_2  and  C_4
REMARK    2  A    between atoms: C_4  and  C_6
REMARK    3  A    between atoms: C_6  and  O_8
REMARK    4  A    between atoms: O_8  and  C_9
REMARK    5  A    between atoms: C_9  and  C_10
REMARK    6  A    between atoms: C_10  and  C_11
REMARK    7  A    between atoms: C_10  and  O_13
REMARK    8  A    between atoms: O_13  and  C_14
REMARK    9  A    between atoms: C_14  and  N_15
REMARK                            x       y       z     vdW  Elec       q    Type
REMARK                         _______ _______ _______ _____ _____    ______ ____
ROOT
ATOM      1  O   UNL     1     -10.890  14.418  69.413  0.00  0.00    -0.328 OA
ENDROOT
BRANCH   1   2
ATOM      2  C   UNL     1     -10.144  13.824  68.470  0.00  0.00    +0.258 C 
BRANCH   2   3
ATOM      3  N   UNL     1     -10.870  13.218  67.387  0.00  0.00    -0.268 N 
ATOM      4  C   UNL     1     -11.094  13.663  66.151  0.00  0.00    +0.172 A 
ATOM      5  N   UNL     1     -11.043  14.908  65.641  0.00  0.00    -0.192 NA
ATOM      6  C   UNL     1     -11.681  15.165  64.475  0.00  0.00    +0.261 A 
ATOM      7  N   UNL     1     -12.440  14.237  63.843  0.00  0.00    -0.171 NA
ATOM      8  C   UNL     1     -12.532  12.989  64.358  0.00  0.00    +0.302 A 
ATOM      9  O   UNL     1     -13.200  12.075  63.819  0.00  0.00    -0.263 OA
ATOM     10  N   UNL     1     -11.643  16.465  63.928  0.00  0.00    -0.086 NA
ATOM     11  C   UNL     1     -11.830  12.693  65.521  0.00  0.00    +0.175 A 
ATOM     12  N   UNL     1     -11.868  11.639  66.360  0.00  0.00    -0.217 NA
ATOM     13  C   UNL     1     -11.699  12.162  67.575  0.00  0.00    +0.182 A 
ENDBRANCH   2   3
ENDBRANCH   1   2
BRANCH   1  14
ATOM     14  C   UNL     1     -10.363  15.796  69.754  0.00  0.00    +0.194 C 
BRANCH  14  15
ATOM     15  C   UNL     1     -11.545  16.041  70.881  0.00  0.00    +0.215 C 
ATOM     16  O   UNL     1     -12.736  15.814  70.198  0.00  0.00    -0.218 OA
ENDBRANCH  14  15
BRANCH  14  17
ATOM     17  C   UNL     1     -11.224  16.550  68.566  0.00  0.00    +0.241 C 
BRANCH  17  18
ATOM     18  O   UNL     1     -10.682  17.838  68.456  0.00  0.00    -0.445 OA
BRANCH  18  19
ATOM     19  C   UNL     1     -10.031  18.266  67.293  0.00  0.00    +0.335 C 
ATOM     20  O   UNL     1     -10.662  18.463  66.233  0.00  0.00    -0.248 OA
BRANCH  19  21
ATOM     21  C   UNL     1      -8.948  19.378  67.727  0.00  0.00    +0.190 C 
ATOM     22  N   UNL     1      -9.610  19.585  69.143  0.00  0.00    -0.121 NA
BRANCH  21  24
ATOM     23  C   UNL     1      -7.404  17.598  67.175  0.00  0.00    +0.002 C 
ATOM     24  C   UNL     1      -7.892  18.257  68.306  0.00  0.00    +0.029 C 
ATOM     25  C   UNL     1      -6.806  19.132  68.847  0.00  0.00    +0.002 C 
ENDBRANCH  21  24
ENDBRANCH  19  21
ENDBRANCH  18  19
ENDBRANCH  17  18
ENDBRANCH  14  17
ENDBRANCH   1  14
TORSDOF 9
ENDMDL
MODEL 4
REMARK VINA RESULT:      -6.4      2.799      6.768
REMARK  Name = 
REMARK  9 active torsions:
REMARK  status: ('A' for Active; 'I' for Inactive)
REMARK    1  A    between atoms: C_2  and  C_4
REMARK    2  A    between atoms: C_4  and  C_6
REMARK    3  A    between atoms: C_6  and  O_8
REMARK    4  A    between atoms: O_8  and  C_9
REMARK    5  A    between atoms: C_9  and  C_10
REMARK    6  A    between atoms: C_10  and  C_11
REMARK    7  A    between atoms: C_10  and  O_13
REMARK    8  A    between atoms: O_13  and  C_14
REMARK    9  A    between atoms: C_14  and  N_15
REMARK                            x       y       z     vdW  Elec       q    Type
REMARK                         _______ _______ _______ _____ _____    ______ ____
ROOT
ATOM      1  O   UNL     1      -9.390  13.929  68.372  0.00  0.00    -0.328 OA
ENDROOT
BRANCH   1   2
ATOM      2  C   UNL     1      -8.899  13.242  67.330  0.00  0.00    +0.258 C 
BRANCH   2   3
ATOM      3  N   UNL     1      -9.868  12.770  66.378  0.00  0.00    -0.268 N 
ATOM      4  C   UNL     1     -10.460  13.408  65.369  0.00  0.00    +0.172 A 
ATOM      5  N   UNL     1     -10.626  14.723  65.138  0.00  0.00    -0.192 NA
ATOM      6  C   UNL     1     -11.583  15.119  64.266  0.00  0.00    +0.261 A 
ATOM      7  N   UNL     1     -12.437  14.244  63.680  0.00  0.00    -0.171 NA
ATOM      8  C   UNL     1     -12.308  12.921  63.927  0.00  0.00    +0.302 A 
ATOM      9  O   UNL     1     -13.049  12.053  63.406  0.00  0.00    -0.263 OA
ATOM     10  N   UNL     1     -11.776  16.494  64.014  0.00  0.00    -0.086 NA
ATOM     11  C   UNL     1     -11.289  12.495  64.771  0.00  0.00    +0.175 A 
ATOM     12  N   UNL     1     -11.026  11.306  65.348  0.00  0.00    -0.217 NA
ATOM     13  C   UNL     1     -10.547  11.610  66.556  0.00  0.00    +0.182 A 
ENDBRANCH   2   3
ENDBRANCH   1   2
BRANCH   1  14
ATOM     14  C   UNL     1      -9.240  15.423  68.175  0.00  0.00    +0.194 C 
BRANCH  14  15
ATOM     15  C   UNL     1      -8.328  15.578  69.543  0.00  0.00    +0.215 C 
ATOM     16  O   UNL     1      -7.391  16.559  69.233  0.00  0.00    -0.218 OA
ENDBRANCH  14  15
BRANCH  14  17
ATOM     17  C   UNL     1     -10.640  15.788  68.968  0.00  0.00    +0.241 C 
BRANCH  17  18
ATOM     18  O   UNL     1     -10.453  15.368  70.292  0.00  0.00    -0.445 OA
BRANCH  18  19
ATOM     19  C   UNL     1     -11.498  15.383  71.224  0.00  0.00    +0.335 C 
ATOM     20  O   UNL     1     -11.692  16.371  71.963  0.00  0.00    -0.248 OA
BRANCH  19  21
ATOM     21  C   UNL     1     -12.786  14.722  70.516  0.00  0.00    +0.190 C 
ATOM     22  N   UNL     1     -12.286  13.253  70.796  0.00  0.00    -0.121 NA
BRANCH  21  24
ATOM     23  C   UNL     1     -14.977  15.077  71.483  0.00  0.00    +0.002 C 
ATOM     24  C   UNL     1     -13.680  14.757  71.897  0.00  0.00    +0.029 C 
ATOM     25  C   UNL     1     -13.655  13.317  72.298  0.00  0.00    +0.002 C 
ENDBRANCH  21  24
ENDBRANCH  19  21
ENDBRANCH  18  19
ENDBRANCH  17  18
ENDBRANCH  14  17
ENDBRANCH   1  14
TORSDOF 9
ENDMDL
MODEL 5
REMARK VINA RESULT:      -6.3      2.048      2.865
REMARK  Name = 
REMARK  9 active torsions:
REMARK  status: ('A' for Active; 'I' for Inactive)
REMARK    1  A    between atoms: C_2  and  C_4
REMARK    2  A    between atoms: C_4  and  C_6
REMARK    3  A    between atoms: C_6  and  O_8
REMARK    4  A    between atoms: O_8  and  C_9
REMARK    5  A    between atoms: C_9  and  C_10
REMARK    6  A    between atoms: C_10  and  C_11
REMARK    7  A    between atoms: C_10  and  O_13
REMARK    8  A    between atoms: O_13  and  C_14
REMARK    9  A    between atoms: C_14  and  N_15
REMARK                            x       y       z     vdW  Elec       q    Type
REMARK                         _______ _______ _______ _____ _____    ______ ____
ROOT
ATOM      1  O   UNL     1      -9.353  14.935  68.029  0.00  0.00    -0.328 OA
ENDROOT
BRANCH   1   2
ATOM      2  C   UNL     1     -10.470  14.228  68.253  0.00  0.00    +0.258 C 
BRANCH   2   3
ATOM      3  N   UNL     1     -11.296  14.688  69.336  0.00  0.00    -0.268 N 
ATOM      4  C   UNL     1     -11.809  14.018  70.368  0.00  0.00    +0.172 A 
ATOM      5  N   UNL     1     -12.027  12.701  70.540  0.00  0.00    -0.192 NA
ATOM      6  C   UNL     1     -12.903  12.302  71.492  0.00  0.00    +0.261 A 
ATOM      7  N   UNL     1     -13.632  13.180  72.222  0.00  0.00    -0.171 NA
ATOM      8  C   UNL     1     -13.452  14.508  72.039  0.00  0.00    +0.302 A 
ATOM      9  O   UNL     1     -14.077  15.379  72.691  0.00  0.00    -0.263 OA
ATOM     10  N   UNL     1     -13.148  10.925  71.684  0.00  0.00    -0.086 NA
ATOM     11  C   UNL     1     -12.510  14.933  71.109  0.00  0.00    +0.175 A 
ATOM     12  N   UNL     1     -12.243  16.141  70.576  0.00  0.00    -0.217 NA
ATOM     13  C   UNL     1     -11.922  15.891  69.305  0.00  0.00    +0.182 A 
ENDBRANCH   2   3
ENDBRANCH   1   2
BRANCH   1  14
ATOM     14  C   UNL     1      -8.963  14.912  66.566  0.00  0.00    +0.194 C 
BRANCH  14  15
ATOM     15  C   UNL     1      -8.253  16.400  66.663  0.00  0.00    +0.215 C 
ATOM     16  O   UNL     1      -9.317  17.297  66.696  0.00  0.00    -0.218 OA
ENDBRANCH  14  15
BRANCH  14  17
ATOM     17  C   UNL     1     -10.399  15.541  66.051  0.00  0.00    +0.241 C 
BRANCH  17  18
ATOM     18  O   UNL     1     -10.727  14.843  64.880  0.00  0.00    -0.445 OA
BRANCH  18  19
ATOM     19  C   UNL     1     -12.017  14.348  64.654  0.00  0.00    +0.335 C 
ATOM     20  O   UNL     1     -12.568  14.464  63.539  0.00  0.00    -0.248 OA
BRANCH  19  21
ATOM     21  C   UNL     1     -12.121  12.917  65.387  0.00  0.00    +0.190 C 
ATOM     22  N   UNL     1     -13.114  12.345  64.305  0.00  0.00    -0.121 NA
BRANCH  21  24
ATOM     23  C   UNL     1     -10.173  11.487  65.534  0.00  0.00    +0.002 C 
ATOM     24  C   UNL     1     -10.806  12.315  64.602  0.00  0.00    +0.029 C 
ATOM     25  C   UNL     1     -11.453  11.452  63.567  0.00  0.00    +0.002 C 
ENDBRANCH  21  24
ENDBRANCH  19  21
ENDBRANCH  18  19
ENDBRANCH  17  18
ENDBRANCH  14  17
ENDBRANCH   1  14
TORSDOF 9
ENDMDL
MODEL 6
REMARK VINA RESULT:      -6.3      3.786      6.288
REMARK  Name = 
REMARK  9 active torsions:
REMARK  status: ('A' for Active; 'I' for Inactive)
REMARK    1  A    between atoms: C_2  and  C_4
REMARK    2  A    between atoms: C_4  and  C_6
REMARK    3  A    between atoms: C_6  and  O_8
REMARK    4  A    between atoms: O_8  and  C_9
REMARK    5  A    between atoms: C_9  and  C_10
REMARK    6  A    between atoms: C_10  and  C_11
REMARK    7  A    between atoms: C_10  and  O_13
REMARK    8  A    between atoms: O_13  and  C_14
REMARK    9  A    between atoms: C_14  and  N_15
REMARK                            x       y       z     vdW  Elec       q    Type
REMARK                         _______ _______ _______ _____ _____    ______ ____
ROOT
ATOM      1  O   UNL     1      -8.581  13.710  68.293  0.00  0.00    -0.328 OA
ENDROOT
BRANCH   1   2
ATOM      2  C   UNL     1      -9.912  13.775  68.439  0.00  0.00    +0.258 C 
BRANCH   2   3
ATOM      3  N   UNL     1     -10.688  13.205  67.371  0.00  0.00    -0.268 N 
ATOM      4  C   UNL     1     -10.958  13.685  66.157  0.00  0.00    +0.172 A 
ATOM      5  N   UNL     1     -10.914  14.942  65.679  0.00  0.00    -0.192 NA
ATOM      6  C   UNL     1     -11.596  15.236  64.547  0.00  0.00    +0.261 A 
ATOM      7  N   UNL     1     -12.391  14.333  63.923  0.00  0.00    -0.171 NA
ATOM      8  C   UNL     1     -12.475  13.073  64.408  0.00  0.00    +0.302 A 
ATOM      9  O   UNL     1     -13.174  12.180  63.873  0.00  0.00    -0.263 OA
ATOM     10  N   UNL     1     -11.566  16.551  64.034  0.00  0.00    -0.086 NA
ATOM     11  C   UNL     1     -11.730  12.740  65.533  0.00  0.00    +0.175 A 
ATOM     12  N   UNL     1     -11.745  11.664  66.345  0.00  0.00    -0.217 NA
ATOM     13  C   UNL     1     -11.520  12.152  67.566  0.00  0.00    +0.182 A 
ENDBRANCH   2   3
ENDBRANCH   1   2
BRANCH   1  14
ATOM     14  C   UNL     1      -7.988  15.066  67.975  0.00  0.00    +0.194 C 
BRANCH  14  15
ATOM     15  C   UNL     1      -6.526  14.653  68.622  0.00  0.00    +0.215 C 
ATOM     16  O   UNL     1      -6.529  15.220  69.893  0.00  0.00    -0.218 OA
ENDBRANCH  14  15
BRANCH  14  17
ATOM     17  C   UNL     1      -8.508  15.755  69.381  0.00  0.00    +0.241 C 
BRANCH  17  18
ATOM     18  O   UNL     1      -8.770  17.098  69.077  0.00  0.00    -0.445 OA
BRANCH  18  19
ATOM     19  C   UNL     1      -9.878  17.477  68.309  0.00  0.00    +0.335 C 
ATOM     20  O   UNL     1     -11.009  16.992  68.520  0.00  0.00    -0.248 OA
BRANCH  19  21
ATOM     21  C   UNL     1      -9.785  19.070  68.081  0.00  0.00    +0.190 C 
ATOM     22  N   UNL     1      -8.230  19.097  68.338  0.00  0.00    -0.121 NA
BRANCH  21  24
ATOM     23  C   UNL     1     -10.595  19.708  65.891  0.00  0.00    +0.002 C 
ATOM     24  C   UNL     1      -9.587  18.921  66.455  0.00  0.00    +0.029 C 
ATOM     25  C   UNL     1      -8.278  19.616  66.255  0.00  0.00    +0.002 C 
ENDBRANCH  21  24
ENDBRANCH  19  21
ENDBRANCH  18  19
ENDBRANCH  17  18
ENDBRANCH  14  17
ENDBRANCH   1  14
TORSDOF 9
ENDMDL
MODEL 7
REMARK VINA RESULT:      -6.3      2.339      4.584
REMARK  Name = 
REMARK  9 active torsions:
REMARK  status: ('A' for Active; 'I' for Inactive)
REMARK    1  A    between atoms: C_2  and  C_4
REMARK    2  A    between atoms: C_4  and  C_6
REMARK    3  A    between atoms: C_6  and  O_8
REMARK    4  A    between atoms: O_8  and  C_9
REMARK    5  A    between atoms: C_9  and  C_10
REMARK    6  A    between atoms: C_10  and  C_11
REMARK    7  A    between atoms: C_10  and  O_13
REMARK    8  A    between atoms: O_13  and  C_14
REMARK    9  A    between atoms: C_14  and  N_15
REMARK                            x       y       z     vdW  Elec       q    Type
REMARK                         _______ _______ _______ _____ _____    ______ ____
ROOT
ATOM      1  O   UNL     1     -11.879  12.754  66.696  0.00  0.00    -0.328 OA
ENDROOT
BRANCH   1   2
ATOM      2  C   UNL     1     -11.032  12.987  67.710  0.00  0.00    +0.258 C 
BRANCH   2   3
ATOM      3  N   UNL     1     -11.640  13.333  68.966  0.00  0.00    -0.268 N 
ATOM      4  C   UNL     1     -11.958  12.562  70.006  0.00  0.00    +0.172 A 
ATOM      5  N   UNL     1     -12.152  11.233  70.087  0.00  0.00    -0.192 NA
ATOM      6  C   UNL     1     -12.840  10.735  71.142  0.00  0.00    +0.261 A 
ATOM      7  N   UNL     1     -13.413  11.532  72.076  0.00  0.00    -0.171 NA
ATOM      8  C   UNL     1     -13.259  12.874  71.992  0.00  0.00    +0.302 A 
ATOM      9  O   UNL     1     -13.745  13.671  72.829  0.00  0.00    -0.263 OA
ATOM     10  N   UNL     1     -13.057   9.344  71.242  0.00  0.00    -0.086 NA
ATOM     11  C   UNL     1     -12.502  13.395  70.949  0.00  0.00    +0.175 A 
ATOM     12  N   UNL     1     -12.328  14.651  70.494  0.00  0.00    -0.217 NA
ATOM     13  C   UNL     1     -12.249  14.528  69.168  0.00  0.00    +0.182 A 
ENDBRANCH   2   3
ENDBRANCH   1   2
BRANCH   1  14
ATOM     14  C   UNL     1     -12.216  14.027  65.948  0.00  0.00    +0.194 C 
BRANCH  14  15
ATOM     15  C   UNL     1     -12.170  13.259  64.487  0.00  0.00    +0.215 C 
ATOM     16  O   UNL     1     -13.228  12.355  64.531  0.00  0.00    -0.218 OA
ENDBRANCH  14  15
BRANCH  14  17
ATOM     17  C   UNL     1     -10.644  14.516  65.833  0.00  0.00    +0.241 C 
BRANCH  17  18
ATOM     18  O   UNL     1     -10.608  15.819  66.349  0.00  0.00    -0.445 OA
BRANCH  18  19
ATOM     19  C   UNL     1     -10.409  16.933  65.523  0.00  0.00    +0.335 C 
ATOM     20  O   UNL     1     -11.151  17.153  64.544  0.00  0.00    -0.248 OA
BRANCH  19  21
ATOM     21  C   UNL     1     -10.049  18.181  66.477  0.00  0.00    +0.190 C 
ATOM     22  N   UNL     1     -10.917  17.625  67.668  0.00  0.00    -0.121 NA
BRANCH  21  24
ATOM     23  C   UNL     1      -7.684  17.802  66.125  0.00  0.00    +0.002 C 
ATOM     24  C   UNL     1      -8.679  17.470  67.048  0.00  0.00    +0.029 C 
ATOM     25  C   UNL     1      -8.443  18.255  68.299  0.00  0.00    +0.002 C 
ENDBRANCH  21  24
ENDBRANCH  19  21
ENDBRANCH  18  19
ENDBRANCH  17  18
ENDBRANCH  14  17
ENDBRANCH   1  14
TORSDOF 9
ENDMDL
MODEL 8
REMARK VINA RESULT:      -6.3      2.815      4.698
REMARK  Name = 
REMARK  9 active torsions:
REMARK  status: ('A' for Active; 'I' for Inactive)
REMARK    1  A    between atoms: C_2  and  C_4
REMARK    2  A    between atoms: C_4  and  C_6
REMARK    3  A    between atoms: C_6  and  O_8
REMARK    4  A    between atoms: O_8  and  C_9
REMARK    5  A    between atoms: C_9  and  C_10
REMARK    6  A    between atoms: C_10  and  C_11
REMARK    7  A    between atoms: C_10  and  O_13
REMARK    8  A    between atoms: O_13  and  C_14
REMARK    9  A    between atoms: C_14  and  N_15
REMARK                            x       y       z     vdW  Elec       q    Type
REMARK                         _______ _______ _______ _____ _____    ______ ____
ROOT
ATOM      1  O   UNL     1     -11.151  17.392  68.285  0.00  0.00    -0.328 OA
ENDROOT
BRANCH   1   2
ATOM      2  C   UNL     1     -10.615  16.775  69.348  0.00  0.00    +0.258 C 
BRANCH   2   3
ATOM      3  N   UNL     1     -11.367  15.669  69.876  0.00  0.00    -0.268 N 
ATOM      4  C   UNL     1     -12.082  15.576  70.997  0.00  0.00    +0.172 A 
ATOM      5  N   UNL     1     -12.044  16.307  72.127  0.00  0.00    -0.192 NA
ATOM      6  C   UNL     1     -12.579  15.791  73.259  0.00  0.00    +0.261 A 
ATOM      7  N   UNL     1     -13.077  14.531  73.317  0.00  0.00    -0.171 NA
ATOM      8  C   UNL     1     -13.092  13.769  72.200  0.00  0.00    +0.302 A 
ATOM      9  O   UNL     1     -13.553  12.603  72.175  0.00  0.00    -0.263 OA
ATOM     10  N   UNL     1     -12.544  16.540  74.454  0.00  0.00    -0.086 NA
ATOM     11  C   UNL     1     -12.604  14.309  71.016  0.00  0.00    +0.175 A 
ATOM     12  N   UNL     1     -12.313  13.760  69.820  0.00  0.00    -0.217 NA
ATOM     13  C   UNL     1     -11.225  14.407  69.401  0.00  0.00    +0.182 A 
ENDBRANCH   2   3
ENDBRANCH   1   2
BRANCH   1  14
ATOM     14  C   UNL     1     -10.087  18.034  67.419  0.00  0.00    +0.194 C 
BRANCH  14  15
ATOM     15  C   UNL     1      -9.697  16.593  66.715  0.00  0.00    +0.215 C 
ATOM     16  O   UNL     1      -8.797  16.926  65.705  0.00  0.00    -0.218 OA
ENDBRANCH  14  15
BRANCH  14  17
ATOM     17  C   UNL     1      -8.904  17.891  68.560  0.00  0.00    +0.241 C 
BRANCH  17  18
ATOM     18  O   UNL     1      -8.105  19.037  68.431  0.00  0.00    -0.445 OA
BRANCH  18  19
ATOM     19  C   UNL     1      -6.874  19.005  67.763  0.00  0.00    +0.335 C 
ATOM     20  O   UNL     1      -6.232  17.941  67.640  0.00  0.00    -0.248 OA
BRANCH  19  21
ATOM     21  C   UNL     1      -7.007  19.946  66.461  0.00  0.00    +0.190 C 
ATOM     22  N   UNL     1      -6.996  21.269  67.317  0.00  0.00    -0.121 NA
BRANCH  21  24
ATOM     23  C   UNL     1      -5.223  20.251  64.853  0.00  0.00    +0.002 C 
ATOM     24  C   UNL     1      -5.381  20.002  66.220  0.00  0.00    +0.029 C 
ATOM     25  C   UNL     1      -5.018  21.244  66.970  0.00  0.00    +0.002 C 
ENDBRANCH  21  24
ENDBRANCH  19  21
ENDBRANCH  18  19
ENDBRANCH  17  18
ENDBRANCH  14  17
ENDBRANCH   1  14
TORSDOF 9
ENDMDL
MODEL 9
REMARK VINA RESULT:      -6.1      1.971      4.442
REMARK  Name = 
REMARK  9 active torsions:
REMARK  status: ('A' for Active; 'I' for Inactive)
REMARK    1  A    between atoms: C_2  and  C_4
REMARK    2  A    between atoms: C_4  and  C_6
REMARK    3  A    between atoms: C_6  and  O_8
REMARK    4  A    between atoms: O_8  and  C_9
REMARK    5  A    between atoms: C_9  and  C_10
REMARK    6  A    between atoms: C_10  and  C_11
REMARK    7  A    between atoms: C_10  and  O_13
REMARK    8  A    between atoms: O_13  and  C_14
REMARK    9  A    between atoms: C_14  and  N_15
REMARK                            x       y       z     vdW  Elec       q    Type
REMARK                         _______ _______ _______ _____ _____    ______ ____
ROOT
ATOM      1  O   UNL     1     -11.573  13.348  67.246  0.00  0.00    -0.328 OA
ENDROOT
BRANCH   1   2
ATOM      2  C   UNL     1     -10.824  13.939  68.188  0.00  0.00    +0.258 C 
BRANCH   2   3
ATOM      3  N   UNL     1     -11.540  14.465  69.319  0.00  0.00    -0.268 N 
ATOM      4  C   UNL     1     -11.992  13.848  70.409  0.00  0.00    +0.172 A 
ATOM      5  N   UNL     1     -12.248  12.547  70.642  0.00  0.00    -0.192 NA
ATOM      6  C   UNL     1     -13.057  12.213  71.674  0.00  0.00    +0.261 A 
ATOM      7  N   UNL     1     -13.689  13.142  72.431  0.00  0.00    -0.171 NA
ATOM      8  C   UNL     1     -13.472  14.456  72.191  0.00  0.00    +0.302 A 
ATOM      9  O   UNL     1     -14.006  15.370  72.863  0.00  0.00    -0.263 OA
ATOM     10  N   UNL     1     -13.341  10.854  71.929  0.00  0.00    -0.086 NA
ATOM     11  C   UNL     1     -12.593  14.813  71.175  0.00  0.00    +0.175 A 
ATOM     12  N   UNL     1     -12.323  15.993  70.583  0.00  0.00    -0.217 NA
ATOM     13  C   UNL     1     -12.117  15.693  69.300  0.00  0.00    +0.182 A 
ENDBRANCH   2   3
ENDBRANCH   1   2
BRANCH   1  14
ATOM     14  C   UNL     1     -11.872  14.291  66.099  0.00  0.00    +0.194 C 
BRANCH  14  15
ATOM     15  C   UNL     1     -11.756  13.079  64.984  0.00  0.00    +0.215 C 
ATOM     16  O   UNL     1     -10.460  13.180  64.488  0.00  0.00    -0.218 OA
ENDBRANCH  14  15
BRANCH  14  17
ATOM     17  C   UNL     1     -10.296  14.738  65.899  0.00  0.00    +0.241 C 
BRANCH  17  18
ATOM     18  O   UNL     1     -10.302  16.137  65.807  0.00  0.00    -0.445 OA
BRANCH  18  19
ATOM     19  C   UNL     1      -9.285  16.916  66.372  0.00  0.00    +0.335 C 
ATOM     20  O   UNL     1      -8.425  17.475  65.659  0.00  0.00    -0.248 OA
BRANCH  19  21
ATOM     21  C   UNL     1      -9.947  17.788  67.555  0.00  0.00    +0.190 C 
ATOM     22  N   UNL     1      -8.939  17.237  68.634  0.00  0.00    -0.121 NA
BRANCH  21  24
ATOM     23  C   UNL     1      -9.899  20.167  67.107  0.00  0.00    +0.002 C 
ATOM     24  C   UNL     1      -9.005  19.101  67.242  0.00  0.00    +0.029 C 
ATOM     25  C   UNL     1      -8.278  19.255  68.539  0.00  0.00    +0.002 C 
ENDBRANCH  21  24
ENDBRANCH  19  21
ENDBRANCH  18  19
ENDBRANCH  17  18
ENDBRANCH  14  17
ENDBRANCH   1  14
TORSDOF 9
ENDMDL
