MODEL 1
REMARK VINA RESULT:      -4.8      0.000      0.000
REMARK  Name = 
REMARK  0 active torsions:
REMARK  status: ('A' for Active; 'I' for Inactive)
REMARK                            x       y       z     vdW  Elec       q    Type
REMARK                         _______ _______ _______ _____ _____    ______ ____
ROOT
ATOM      1  O   UNL     1      -9.417  13.332  66.463  0.00  0.00    -0.265 OA
ATOM      2  C   UNL     1     -10.448  13.743  65.897  0.00  0.00    +0.285 A 
ATOM      3  C   UNL     1     -10.437  15.055  65.435  0.00  0.00    +0.116 A 
ATOM      4  C   UNL     1     -11.463  15.374  64.552  0.00  0.00    +0.191 A 
ATOM      5  N   UNL     1     -11.292  16.687  64.294  0.00  0.00    -0.128 NA
ATOM      6  N   UNL     1     -10.553  17.239  65.257  0.00  0.00    -0.145 NA
ATOM      7  N   UNL     1     -12.516  14.526  64.451  0.00  0.00    -0.203 NA
ATOM      8  C   UNL     1     -12.655  13.442  65.228  0.00  0.00    +0.203 A 
ATOM      9  C   UNL     1      -9.920  16.236  65.910  0.00  0.00    +0.130 A 
ATOM     10  N   UNL     1     -11.558  12.979  65.873  0.00  0.00    -0.185 NA
ENDROOT
TORSDOF 0
ENDMDL
MODEL 2
REMARK VINA RESULT:      -4.7      1.839      3.688
REMARK  Name = 
REMARK  0 active torsions:
REMARK  status: ('A' for Active; 'I' for Inactive)
REMARK                            x       y       z     vdW  Elec       q    Type
REMARK                         _______ _______ _______ _____ _____    ______ ____
ROOT
ATOM      1  O   UNL     1     -11.687  16.517  63.960  0.00  0.00    -0.265 OA
ATOM      2  C   UNL     1     -10.992  15.882  64.775  0.00  0.00    +0.285 A 
ATOM      3  C   UNL     1     -11.366  14.569  65.040  0.00  0.00    +0.116 A 
ATOM      4  C   UNL     1     -10.408  13.808  65.700  0.00  0.00    +0.191 A 
ATOM      5  N   UNL     1     -11.004  12.615  65.903  0.00  0.00    -0.128 NA
ATOM      6  N   UNL     1     -12.327  12.756  65.817  0.00  0.00    -0.145 NA
ATOM      7  N   UNL     1      -9.362  14.446  66.281  0.00  0.00    -0.203 NA
ATOM      8  C   UNL     1      -9.258  15.783  66.323  0.00  0.00    +0.203 A 
ATOM      9  C   UNL     1     -12.570  13.923  65.175  0.00  0.00    +0.130 A 
ATOM     10  N   UNL     1     -10.013  16.505  65.463  0.00  0.00    -0.185 NA
ENDROOT
TORSDOF 0
ENDMDL
MODEL 3
REMARK VINA RESULT:      -4.7      1.857      3.072
REMARK  Name = 
REMARK  0 active torsions:
REMARK  status: ('A' for Active; 'I' for Inactive)
REMARK                            x       y       z     vdW  Elec       q    Type
REMARK                         _______ _______ _______ _____ _____    ______ ____
ROOT
ATOM      1  O   UNL     1     -12.050  11.603  67.283  0.00  0.00    -0.265 OA
ATOM      2  C   UNL     1     -11.688  12.691  66.797  0.00  0.00    +0.285 A 
ATOM      3  C   UNL     1     -12.179  13.017  65.537  0.00  0.00    +0.116 A 
ATOM      4  C   UNL     1     -12.010  14.348  65.168  0.00  0.00    +0.191 A 
ATOM      5  N   UNL     1     -12.494  14.414  63.911  0.00  0.00    -0.128 NA
ATOM      6  N   UNL     1     -12.520  13.193  63.377  0.00  0.00    -0.145 NA
ATOM      7  N   UNL     1     -11.154  15.114  65.887  0.00  0.00    -0.203 NA
ATOM      8  C   UNL     1     -10.398  14.624  66.881  0.00  0.00    +0.203 A 
ATOM      9  C   UNL     1     -12.440  12.303  64.393  0.00  0.00    +0.130 A 
ATOM     10  N   UNL     1     -10.752  13.434  67.420  0.00  0.00    -0.185 NA
ENDROOT
TORSDOF 0
ENDMDL
MODEL 4
REMARK VINA RESULT:      -4.6      2.339      2.928
REMARK  Name = 
REMARK  0 active torsions:
REMARK  status: ('A' for Active; 'I' for Inactive)
REMARK                            x       y       z     vdW  Elec       q    Type
REMARK                         _______ _______ _______ _____ _____    ______ ____
ROOT
ATOM      1  O   UNL     1     -12.190  15.991  63.880  0.00  0.00    -0.265 OA
ATOM      2  C   UNL     1     -12.181  14.831  64.336  0.00  0.00    +0.285 A 
ATOM      3  C   UNL     1     -11.713  14.664  65.635  0.00  0.00    +0.116 A 
ATOM      4  C   UNL     1     -12.004  13.431  66.209  0.00  0.00    +0.191 A 
ATOM      5  N   UNL     1     -11.409  13.473  67.419  0.00  0.00    -0.128 NA
ATOM      6  N   UNL     1     -10.462  14.411  67.419  0.00  0.00    -0.145 NA
ATOM      7  N   UNL     1     -12.426  12.426  65.402  0.00  0.00    -0.203 NA
ATOM      8  C   UNL     1     -12.488  12.542  64.068  0.00  0.00    +0.203 A 
ATOM      9  C   UNL     1     -10.705  15.235  66.373  0.00  0.00    +0.130 A 
ATOM     10  N   UNL     1     -12.481  13.787  63.538  0.00  0.00    -0.185 NA
ENDROOT
TORSDOF 0
ENDMDL
MODEL 5
REMARK VINA RESULT:      -4.6      6.565      7.068
REMARK  Name = 
REMARK  0 active torsions:
REMARK  status: ('A' for Active; 'I' for Inactive)
REMARK                            x       y       z     vdW  Elec       q    Type
REMARK                         _______ _______ _______ _____ _____    ______ ____
ROOT
ATOM      1  O   UNL     1     -14.149  13.247  72.529  0.00  0.00    -0.265 OA
ATOM      2  C   UNL     1     -13.376  14.224  72.520  0.00  0.00    +0.285 A 
ATOM      3  C   UNL     1     -12.759  14.532  71.313  0.00  0.00    +0.116 A 
ATOM      4  C   UNL     1     -12.162  15.787  71.263  0.00  0.00    +0.191 A 
ATOM      5  N   UNL     1     -11.583  15.838  70.045  0.00  0.00    -0.128 NA
ATOM      6  N   UNL     1     -11.421  14.602  69.575  0.00  0.00    -0.145 NA
ATOM      7  N   UNL     1     -11.966  16.457  72.426  0.00  0.00    -0.203 NA
ATOM      8  C   UNL     1     -12.240  15.925  73.626  0.00  0.00    +0.203 A 
ATOM      9  C   UNL     1     -12.238  13.787  70.283  0.00  0.00    +0.130 A 
ATOM     10  N   UNL     1     -13.061  14.850  73.671  0.00  0.00    -0.185 NA
ENDROOT
TORSDOF 0
ENDMDL
MODEL 6
REMARK VINA RESULT:      -4.5      6.001      7.092
REMARK  Name = 
REMARK  0 active torsions:
REMARK  status: ('A' for Active; 'I' for Inactive)
REMARK                            x       y       z     vdW  Elec       q    Type
REMARK                         _______ _______ _______ _____ _____    ______ ____
ROOT
ATOM      1  O   UNL     1     -11.580  15.467  70.238  0.00  0.00    -0.265 OA
ATOM      2  C   UNL     1     -12.517  14.917  70.846  0.00  0.00    +0.285 A 
ATOM      3  C   UNL     1     -12.444  13.538  71.009  0.00  0.00    +0.116 A 
ATOM      4  C   UNL     1     -13.328  13.011  71.944  0.00  0.00    +0.191 A 
ATOM      5  N   UNL     1     -13.126  11.678  71.886  0.00  0.00    -0.128 NA
ATOM      6  N   UNL     1     -12.542  11.364  70.729  0.00  0.00    -0.145 NA
ATOM      7  N   UNL     1     -14.351  13.788  72.377  0.00  0.00    -0.203 NA
ATOM      8  C   UNL     1     -14.598  15.009  71.879  0.00  0.00    +0.203 A 
ATOM      9  C   UNL     1     -12.008  12.500  70.222  0.00  0.00    +0.130 A 
ATOM     10  N   UNL     1     -13.608  15.628  71.196  0.00  0.00    -0.185 NA
ENDROOT
TORSDOF 0
ENDMDL
MODEL 7
REMARK VINA RESULT:      -4.4      6.011      6.543
REMARK  Name = 
REMARK  0 active torsions:
REMARK  status: ('A' for Active; 'I' for Inactive)
REMARK                            x       y       z     vdW  Elec       q    Type
REMARK                         _______ _______ _______ _____ _____    ______ ____
ROOT
ATOM      1  O   UNL     1     -12.342  12.562  70.534  0.00  0.00    -0.265 OA
ATOM      2  C   UNL     1     -12.187  13.796  70.474  0.00  0.00    +0.285 A 
ATOM      3  C   UNL     1     -12.335  14.511  71.658  0.00  0.00    +0.116 A 
ATOM      4  C   UNL     1     -11.858  15.817  71.617  0.00  0.00    +0.191 A 
ATOM      5  N   UNL     1     -12.161  16.326  72.829  0.00  0.00    -0.128 NA
ATOM      6  N   UNL     1     -13.129  15.600  73.389  0.00  0.00    -0.145 NA
ATOM      7  N   UNL     1     -11.582  16.368  70.409  0.00  0.00    -0.203 NA
ATOM      8  C   UNL     1     -11.833  15.741  69.250  0.00  0.00    +0.203 A 
ATOM      9  C   UNL     1     -13.175  14.413  72.740  0.00  0.00    +0.130 A 
ATOM     10  N   UNL     1     -12.025  14.402  69.281  0.00  0.00    -0.185 NA
ENDROOT
TORSDOF 0
ENDMDL
MODEL 8
REMARK VINA RESULT:      -4.4      1.948      3.407
REMARK  Name = 
REMARK  0 active torsions:
REMARK  status: ('A' for Active; 'I' for Inactive)
REMARK                            x       y       z     vdW  Elec       q    Type
REMARK                         _______ _______ _______ _____ _____    ______ ____
ROOT
ATOM      1  O   UNL     1     -10.243  16.266  65.162  0.00  0.00    -0.265 OA
ATOM      2  C   UNL     1     -10.778  15.504  65.990  0.00  0.00    +0.285 A 
ATOM      3  C   UNL     1     -11.404  14.367  65.492  0.00  0.00    +0.116 A 
ATOM      4  C   UNL     1     -11.711  13.402  66.446  0.00  0.00    +0.191 A 
ATOM      5  N   UNL     1     -12.357  12.438  65.757  0.00  0.00    -0.128 NA
ATOM      6  N   UNL     1     -12.825  12.943  64.615  0.00  0.00    -0.145 NA
ATOM      7  N   UNL     1     -11.663  13.748  67.756  0.00  0.00    -0.203 NA
ATOM      8  C   UNL     1     -11.420  15.001  68.168  0.00  0.00    +0.203 A 
ATOM      9  C   UNL     1     -12.156  14.095  64.375  0.00  0.00    +0.130 A 
ATOM     10  N   UNL     1     -10.856  15.861  67.288  0.00  0.00    -0.185 NA
ENDROOT
TORSDOF 0
ENDMDL
MODEL 9
REMARK VINA RESULT:      -4.3      2.811      3.363
REMARK  Name = 
REMARK  0 active torsions:
REMARK  status: ('A' for Active; 'I' for Inactive)
REMARK                            x       y       z     vdW  Elec       q    Type
REMARK                         _______ _______ _______ _____ _____    ______ ____
ROOT
ATOM      1  O   UNL     1     -10.281  10.336  64.558  0.00  0.00    -0.265 OA
ATOM      2  C   UNL     1     -10.662  11.281  65.275  0.00  0.00    +0.285 A 
ATOM      3  C   UNL     1     -11.598  12.152  64.730  0.00  0.00    +0.116 A 
ATOM      4  C   UNL     1     -12.221  12.993  65.647  0.00  0.00    +0.191 A 
ATOM      5  N   UNL     1     -13.023  13.776  64.898  0.00  0.00    -0.128 NA
ATOM      6  N   UNL     1     -12.605  13.763  63.632  0.00  0.00    -0.145 NA
ATOM      7  N   UNL     1     -11.681  13.112  66.885  0.00  0.00    -0.203 NA
ATOM      8  C   UNL     1     -10.526  12.526  67.234  0.00  0.00    +0.203 A 
ATOM      9  C   UNL     1     -11.801  12.684  63.480  0.00  0.00    +0.130 A 
ATOM     10  N   UNL     1     -10.073  11.508  66.466  0.00  0.00    -0.185 NA
ENDROOT
TORSDOF 0
ENDMDL
