MODEL 1
REMARK VINA RESULT:      -7.6      0.000      0.000
REMARK  Name = 
REMARK  7 active torsions:
REMARK  status: ('A' for Active; 'I' for Inactive)
REMARK    1  A    between atoms: C_2  and  C_3
REMARK    2  A    between atoms: C_2  and  C_16
REMARK    3  A    between atoms: C_5  and  C_6
REMARK    4  A    between atoms: C_9  and  C_10
REMARK    5  A    between atoms: C_16  and  C_18
REMARK    6  A    between atoms: C_16  and  C_24
REMARK    7  A    between atoms: C_18  and  N_19
REMARK                            x       y       z     vdW  Elec       q    Type
REMARK                         _______ _______ _______ _____ _____    ______ ____
ROOT
ATOM      1  C   UNL     1      -9.843  16.190  68.051  0.00  0.00    +0.175 C 
ATOM      2  O   UNL     1     -11.238  16.121  68.256  0.00  0.00    -0.219 OA
ENDROOT
BRANCH   1   3
ATOM      3  C   UNL     1      -9.396  17.518  68.354  0.00  0.00    +0.037 A 
ATOM      4  C   UNL     1      -8.020  17.741  68.308  0.00  0.00    +0.139 A 
ATOM      5  F   UNL     1      -7.146  16.750  67.957  0.00  0.00    -0.204 F 
ATOM      6  C   UNL     1      -7.504  19.021  68.127  0.00  0.00    +0.032 A 
ATOM      7  C   UNL     1      -8.341  20.055  67.736  0.00  0.00    +0.032 A 
ATOM      8  C   UNL     1      -9.657  19.758  67.407  0.00  0.00    +0.140 A 
ATOM      9  F   UNL     1     -10.344  20.510  66.497  0.00  0.00    -0.204 F 
ATOM     10  C   UNL     1     -10.168  18.617  67.986  0.00  0.00    +0.030 A 
ENDBRANCH   1   3
BRANCH   1  12
ATOM     11  C   UNL     1     -10.873  15.173  69.989  0.00  0.00    +0.010 C 
ATOM     12  C   UNL     1      -9.408  15.113  69.211  0.00  0.00    +0.080 C 
BRANCH  12  13
ATOM     13  C   UNL     1      -9.844  13.776  68.377  0.00  0.00    +0.091 A 
ATOM     14  S   UNL     1      -8.627  12.599  68.074  0.00  0.00    -0.070 S 
ATOM     15  C   UNL     1      -9.526  11.201  68.512  0.00  0.00    +0.056 A 
ATOM     16  C   UNL     1     -10.730  11.763  68.913  0.00  0.00    +0.088 A 
ATOM     17  N   UNL     1     -10.703  13.047  69.079  0.00  0.00    -0.243 NA
BRANCH  16  18
ATOM     18  C   UNL     1     -11.670  10.936  69.707  0.00  0.00    +0.018 A 
ATOM     19  C   UNL     1     -12.381  11.620  70.687  0.00  0.00    +0.002 A 
ATOM     20  C   UNL     1     -13.119  10.923  71.622  0.00  0.00    +0.010 A 
ATOM     21  C   UNL     1     -12.973   9.553  71.797  0.00  0.00    +0.068 A 
ATOM     22  C   UNL     1     -11.885   8.984  71.147  0.00  0.00    +0.010 A 
ATOM     23  C   UNL     1     -11.250   9.679  70.133  0.00  0.00    +0.002 A 
BRANCH  21  24
ATOM     24  C   UNL     1     -14.097   8.742  72.211  0.00  0.00    +0.100 C 
ATOM     25  N   UNL     1     -15.067   8.123  72.321  0.00  0.00    -0.191 NA
ENDBRANCH  21  24
ENDBRANCH  16  18
ENDBRANCH  12  13
ENDBRANCH   1  12
BRANCH   1  26
ATOM     26  C   UNL     1      -9.623  15.633  66.718  0.00  0.00    +0.164 C 
BRANCH  26  27
ATOM     27  N   UNL     1     -10.784  15.800  65.848  0.00  0.00    -0.227 N 
ATOM     28  N   UNL     1     -11.419  14.724  65.377  0.00  0.00    -0.145 NA
ATOM     29  C   UNL     1     -12.112  15.062  64.293  0.00  0.00    +0.221 A 
ATOM     30  N   UNL     1     -11.723  16.302  63.907  0.00  0.00    -0.201 NA
ATOM     31  C   UNL     1     -10.987  16.754  64.922  0.00  0.00    +0.197 A 
ENDBRANCH  26  27
ENDBRANCH   1  26
TORSDOF 7
ENDMDL
MODEL 2
REMARK VINA RESULT:      -7.2      3.314      8.088
REMARK  Name = 
REMARK  7 active torsions:
REMARK  status: ('A' for Active; 'I' for Inactive)
REMARK    1  A    between atoms: C_2  and  C_3
REMARK    2  A    between atoms: C_2  and  C_16
REMARK    3  A    between atoms: C_5  and  C_6
REMARK    4  A    between atoms: C_9  and  C_10
REMARK    5  A    between atoms: C_16  and  C_18
REMARK    6  A    between atoms: C_16  and  C_24
REMARK    7  A    between atoms: C_18  and  N_19
REMARK                            x       y       z     vdW  Elec       q    Type
REMARK                         _______ _______ _______ _____ _____    ______ ____
ROOT
ATOM      1  C   UNL     1     -10.262  14.246  67.545  0.00  0.00    +0.175 C 
ATOM      2  O   UNL     1      -8.995  14.172  68.164  0.00  0.00    -0.219 OA
ENDROOT
BRANCH   1   3
ATOM      3  C   UNL     1     -11.091  13.197  68.061  0.00  0.00    +0.037 A 
ATOM      4  C   UNL     1     -10.529  11.921  68.106  0.00  0.00    +0.139 A 
ATOM      5  F   UNL     1      -9.241  11.692  67.709  0.00  0.00    -0.204 F 
ATOM      6  C   UNL     1     -11.022  10.948  68.970  0.00  0.00    +0.032 A 
ATOM      7  C   UNL     1     -11.906  11.302  69.979  0.00  0.00    +0.032 A 
ATOM      8  C   UNL     1     -12.179  12.648  70.182  0.00  0.00    +0.140 A 
ATOM      9  F   UNL     1     -12.511  13.122  71.419  0.00  0.00    -0.204 F 
ATOM     10  C   UNL     1     -11.999  13.460  69.084  0.00  0.00    +0.030 A 
ENDBRANCH   1   3
BRANCH   1  12
ATOM     11  C   UNL     1      -9.622  15.666  69.397  0.00  0.00    +0.010 C 
ATOM     12  C   UNL     1     -10.693  15.718  68.130  0.00  0.00    +0.080 C 
BRANCH  12  13
ATOM     13  C   UNL     1      -9.651  16.581  67.212  0.00  0.00    +0.091 A 
ATOM     14  S   UNL     1     -10.300  17.866  66.271  0.00  0.00    -0.070 S 
ATOM     15  C   UNL     1      -9.133  19.066  66.660  0.00  0.00    +0.056 A 
ATOM     16  C   UNL     1      -8.319  18.380  67.550  0.00  0.00    +0.088 A 
ATOM     17  N   UNL     1      -8.805  17.258  67.979  0.00  0.00    -0.243 NA
BRANCH  16  18
ATOM     18  C   UNL     1      -7.390  19.156  68.406  0.00  0.00    +0.018 A 
ATOM     19  C   UNL     1      -6.813  20.268  67.801  0.00  0.00    +0.002 A 
ATOM     20  C   UNL     1      -5.778  20.936  68.423  0.00  0.00    +0.010 A 
ATOM     21  C   UNL     1      -5.102  20.394  69.507  0.00  0.00    +0.068 A 
ATOM     22  C   UNL     1      -5.373  19.056  69.767  0.00  0.00    +0.010 A 
ATOM     23  C   UNL     1      -6.492  18.461  69.211  0.00  0.00    +0.002 A 
BRANCH  21  24
ATOM     24  C   UNL     1      -4.551  21.251  70.533  0.00  0.00    +0.100 C 
ATOM     25  N   UNL     1      -4.315  21.899  71.461  0.00  0.00    -0.191 NA
ENDBRANCH  21  24
ENDBRANCH  16  18
ENDBRANCH  12  13
ENDBRANCH   1  12
BRANCH   1  26
ATOM     26  C   UNL     1      -9.984  14.319  66.113  0.00  0.00    +0.164 C 
BRANCH  26  27
ATOM     27  N   UNL     1     -11.095  13.822  65.305  0.00  0.00    -0.227 N 
ATOM     28  N   UNL     1     -10.905  12.786  64.484  0.00  0.00    -0.145 NA
ATOM     29  C   UNL     1     -11.851  12.789  63.548  0.00  0.00    +0.221 A 
ATOM     30  N   UNL     1     -12.505  13.974  63.605  0.00  0.00    -0.201 NA
ATOM     31  C   UNL     1     -12.083  14.536  64.737  0.00  0.00    +0.197 A 
ENDBRANCH  26  27
ENDBRANCH   1  26
TORSDOF 7
ENDMDL
MODEL 3
REMARK VINA RESULT:      -7.2      2.686      4.092
REMARK  Name = 
REMARK  7 active torsions:
REMARK  status: ('A' for Active; 'I' for Inactive)
REMARK    1  A    between atoms: C_2  and  C_3
REMARK    2  A    between atoms: C_2  and  C_16
REMARK    3  A    between atoms: C_5  and  C_6
REMARK    4  A    between atoms: C_9  and  C_10
REMARK    5  A    between atoms: C_16  and  C_18
REMARK    6  A    between atoms: C_16  and  C_24
REMARK    7  A    between atoms: C_18  and  N_19
REMARK                            x       y       z     vdW  Elec       q    Type
REMARK                         _______ _______ _______ _____ _____    ______ ____
ROOT
ATOM      1  C   UNL     1     -10.083  16.483  68.429  0.00  0.00    +0.175 C 
ATOM      2  O   UNL     1      -9.310  15.893  69.453  0.00  0.00    -0.219 OA
ENDROOT
BRANCH   1   3
ATOM      3  C   UNL     1      -9.805  17.889  68.391  0.00  0.00    +0.037 A 
ATOM      4  C   UNL     1      -8.467  18.265  68.509  0.00  0.00    +0.139 A 
ATOM      5  F   UNL     1      -7.469  17.336  68.620  0.00  0.00    -0.204 F 
ATOM      6  C   UNL     1      -8.022  19.498  68.042  0.00  0.00    +0.032 A 
ATOM      7  C   UNL     1      -8.841  20.266  67.227  0.00  0.00    +0.032 A 
ATOM      8  C   UNL     1     -10.042  19.722  66.789  0.00  0.00    +0.140 A 
ATOM      9  F   UNL     1     -10.591  20.094  65.596  0.00  0.00    -0.204 F 
ATOM     10  C   UNL     1     -10.569  18.733  67.589  0.00  0.00    +0.030 A 
ENDBRANCH   1   3
BRANCH   1  12
ATOM     11  C   UNL     1      -8.944  14.377  68.083  0.00  0.00    +0.010 C 
ATOM     12  C   UNL     1      -9.401  15.685  67.168  0.00  0.00    +0.080 C 
BRANCH  12  13
ATOM     13  C   UNL     1     -10.769  14.934  66.680  0.00  0.00    +0.091 A 
ATOM     14  S   UNL     1     -11.149  14.989  65.003  0.00  0.00    -0.070 S 
ATOM     15  C   UNL     1     -11.547  13.331  64.789  0.00  0.00    +0.056 A 
ATOM     16  C   UNL     1     -11.313  12.826  66.060  0.00  0.00    +0.088 A 
ATOM     17  N   UNL     1     -10.668  13.621  66.852  0.00  0.00    -0.243 NA
BRANCH  16  18
ATOM     18  C   UNL     1     -11.191  11.357  66.228  0.00  0.00    +0.018 A 
ATOM     19  C   UNL     1     -11.174  10.910  67.545  0.00  0.00    +0.002 A 
ATOM     20  C   UNL     1     -10.851   9.598  67.827  0.00  0.00    +0.010 A 
ATOM     21  C   UNL     1     -10.280   8.763  66.876  0.00  0.00    +0.068 A 
ATOM     22  C   UNL     1      -9.844   9.394  65.717  0.00  0.00    +0.010 A 
ATOM     23  C   UNL     1     -10.291  10.670  65.419  0.00  0.00    +0.002 A 
BRANCH  21  24
ATOM     24  C   UNL     1     -10.549   7.342  66.890  0.00  0.00    +0.100 C 
ATOM     25  N   UNL     1     -10.917   6.261  67.068  0.00  0.00    -0.191 NA
ENDBRANCH  21  24
ENDBRANCH  16  18
ENDBRANCH  12  13
ENDBRANCH   1  12
BRANCH   1  26
ATOM     26  C   UNL     1     -11.447  16.016  68.662  0.00  0.00    +0.164 C 
BRANCH  26  27
ATOM     27  N   UNL     1     -11.618  15.441  69.994  0.00  0.00    -0.227 N 
ATOM     28  N   UNL     1     -12.071  14.191  70.122  0.00  0.00    -0.145 NA
ATOM     29  C   UNL     1     -12.574  14.029  71.343  0.00  0.00    +0.221 A 
ATOM     30  N   UNL     1     -12.686  15.249  71.924  0.00  0.00    -0.201 NA
ATOM     31  C   UNL     1     -12.014  16.068  71.116  0.00  0.00    +0.197 A 
ENDBRANCH  26  27
ENDBRANCH   1  26
TORSDOF 7
ENDMDL
MODEL 4
REMARK VINA RESULT:      -7.0      3.073      4.389
REMARK  Name = 
REMARK  7 active torsions:
REMARK  status: ('A' for Active; 'I' for Inactive)
REMARK    1  A    between atoms: C_2  and  C_3
REMARK    2  A    between atoms: C_2  and  C_16
REMARK    3  A    between atoms: C_5  and  C_6
REMARK    4  A    between atoms: C_9  and  C_10
REMARK    5  A    between atoms: C_16  and  C_18
REMARK    6  A    between atoms: C_16  and  C_24
REMARK    7  A    between atoms: C_18  and  N_19
REMARK                            x       y       z     vdW  Elec       q    Type
REMARK                         _______ _______ _______ _____ _____    ______ ____
ROOT
ATOM      1  C   UNL     1      -9.922  16.080  67.485  0.00  0.00    +0.175 C 
ATOM      2  O   UNL     1      -9.070  15.453  68.419  0.00  0.00    -0.219 OA
ENDROOT
BRANCH   1   3
ATOM      3  C   UNL     1      -9.518  17.447  67.334  0.00  0.00    +0.037 A 
ATOM      4  C   UNL     1     -10.076  18.150  66.267  0.00  0.00    +0.139 A 
ATOM      5  F   UNL     1     -10.988  17.572  65.428  0.00  0.00    -0.204 F 
ATOM      6  C   UNL     1     -10.136  19.540  66.273  0.00  0.00    +0.032 A 
ATOM      7  C   UNL     1      -9.879  20.238  67.445  0.00  0.00    +0.032 A 
ATOM      8  C   UNL     1      -9.693  19.522  68.619  0.00  0.00    +0.140 A 
ATOM      9  F   UNL     1     -10.021  20.056  69.832  0.00  0.00    -0.204 F 
ATOM     10  C   UNL     1      -9.252  18.227  68.457  0.00  0.00    +0.030 A 
ENDBRANCH   1   3
BRANCH   1  12
ATOM     11  C   UNL     1      -8.682  14.043  67.080  0.00  0.00    +0.010 C 
ATOM     12  C   UNL     1      -9.511  15.168  66.184  0.00  0.00    +0.080 C 
BRANCH  12  13
ATOM     13  C   UNL     1     -10.865  14.250  66.182  0.00  0.00    +0.091 A 
ATOM     14  S   UNL     1     -11.745  14.139  64.708  0.00  0.00    -0.070 S 
ATOM     15  C   UNL     1     -11.992  12.438  64.701  0.00  0.00    +0.056 A 
ATOM     16  C   UNL     1     -11.321  12.057  65.854  0.00  0.00    +0.088 A 
ATOM     17  N   UNL     1     -10.561  12.971  66.370  0.00  0.00    -0.243 NA
BRANCH  16  18
ATOM     18  C   UNL     1     -10.981  10.626  66.039  0.00  0.00    +0.018 A 
ATOM     19  C   UNL     1     -10.920  10.194  67.360  0.00  0.00    +0.002 A 
ATOM     20  C   UNL     1     -10.408   8.948  67.659  0.00  0.00    +0.010 A 
ATOM     21  C   UNL     1      -9.700   8.204  66.726  0.00  0.00    +0.068 A 
ATOM     22  C   UNL     1      -9.343   8.886  65.570  0.00  0.00    +0.010 A 
ATOM     23  C   UNL     1      -9.971  10.077  65.252  0.00  0.00    +0.002 A 
BRANCH  21  24
ATOM     24  C   UNL     1      -9.750   6.759  66.748  0.00  0.00    +0.100 C 
ATOM     25  N   UNL     1      -9.848   5.633  66.990  0.00  0.00    -0.191 NA
ENDBRANCH  21  24
ENDBRANCH  16  18
ENDBRANCH  12  13
ENDBRANCH   1  12
BRANCH   1  26
ATOM     26  C   UNL     1     -11.277  15.765  67.931  0.00  0.00    +0.164 C 
BRANCH  26  27
ATOM     27  N   UNL     1     -11.319  15.353  69.332  0.00  0.00    -0.227 N 
ATOM     28  N   UNL     1     -11.861  14.177  69.660  0.00  0.00    -0.145 NA
ATOM     29  C   UNL     1     -12.209  14.198  70.944  0.00  0.00    +0.221 A 
ATOM     30  N   UNL     1     -12.132  15.476  71.388  0.00  0.00    -0.201 NA
ATOM     31  C   UNL     1     -11.503  16.132  70.413  0.00  0.00    +0.197 A 
ENDBRANCH  26  27
ENDBRANCH   1  26
TORSDOF 7
ENDMDL
MODEL 5
REMARK VINA RESULT:      -6.8      2.459      3.401
REMARK  Name = 
REMARK  7 active torsions:
REMARK  status: ('A' for Active; 'I' for Inactive)
REMARK    1  A    between atoms: C_2  and  C_3
REMARK    2  A    between atoms: C_2  and  C_16
REMARK    3  A    between atoms: C_5  and  C_6
REMARK    4  A    between atoms: C_9  and  C_10
REMARK    5  A    between atoms: C_16  and  C_18
REMARK    6  A    between atoms: C_16  and  C_24
REMARK    7  A    between atoms: C_18  and  N_19
REMARK                            x       y       z     vdW  Elec       q    Type
REMARK                         _______ _______ _______ _____ _____    ______ ____
ROOT
ATOM      1  C   UNL     1      -9.383  15.844  67.301  0.00  0.00    +0.175 C 
ATOM      2  O   UNL     1      -9.122  15.204  66.070  0.00  0.00    -0.219 OA
ENDROOT
BRANCH   1   3
ATOM      3  C   UNL     1      -9.264  17.260  67.121  0.00  0.00    +0.037 A 
ATOM      4  C   UNL     1     -10.066  17.834  66.134  0.00  0.00    +0.139 A 
ATOM      5  F   UNL     1     -10.944  17.085  65.400  0.00  0.00    -0.204 F 
ATOM      6  C   UNL     1     -10.386  19.188  66.164  0.00  0.00    +0.032 A 
ATOM      7  C   UNL     1     -10.131  19.934  67.305  0.00  0.00    +0.032 A 
ATOM      8  C   UNL     1      -9.677  19.278  68.441  0.00  0.00    +0.140 A 
ATOM      9  F   UNL     1      -9.956  19.754  69.690  0.00  0.00    -0.204 F 
ATOM     10  C   UNL     1      -9.021  18.088  68.214  0.00  0.00    +0.030 A 
ENDBRANCH   1   3
BRANCH   1  12
ATOM     11  C   UNL     1     -10.652  13.812  66.958  0.00  0.00    +0.010 C 
ATOM     12  C   UNL     1     -10.946  15.369  67.455  0.00  0.00    +0.080 C 
BRANCH  12  13
ATOM     13  C   UNL     1     -10.844  14.944  69.031  0.00  0.00    +0.091 A 
ATOM     14  S   UNL     1     -11.832  15.800  70.149  0.00  0.00    -0.070 S 
ATOM     15  C   UNL     1     -12.432  14.449  71.026  0.00  0.00    +0.056 A 
ATOM     16  C   UNL     1     -11.840  13.394  70.347  0.00  0.00    +0.088 A 
ATOM     17  N   UNL     1     -11.301  13.711  69.212  0.00  0.00    -0.243 NA
BRANCH  16  18
ATOM     18  C   UNL     1     -12.374  12.026  70.554  0.00  0.00    +0.018 A 
ATOM     19  C   UNL     1     -13.043  11.826  71.757  0.00  0.00    +0.002 A 
ATOM     20  C   UNL     1     -13.393  10.550  72.151  0.00  0.00    +0.010 A 
ATOM     21  C   UNL     1     -12.873   9.423  71.530  0.00  0.00    +0.068 A 
ATOM     22  C   UNL     1     -11.815   9.659  70.661  0.00  0.00    +0.010 A 
ATOM     23  C   UNL     1     -11.576  10.942  70.201  0.00  0.00    +0.002 A 
BRANCH  21  24
ATOM     24  C   UNL     1     -13.655   8.211  71.432  0.00  0.00    +0.100 C 
ATOM     25  N   UNL     1     -14.464   7.387  71.366  0.00  0.00    -0.191 NA
ENDBRANCH  21  24
ENDBRANCH  16  18
ENDBRANCH  12  13
ENDBRANCH   1  12
BRANCH   1  26
ATOM     26  C   UNL     1      -8.536  15.159  68.276  0.00  0.00    +0.164 C 
BRANCH  26  27
ATOM     27  N   UNL     1      -7.265  14.726  67.700  0.00  0.00    -0.227 N 
ATOM     28  N   UNL     1      -6.898  13.445  67.794  0.00  0.00    -0.145 NA
ATOM     29  C   UNL     1      -5.580  13.353  67.636  0.00  0.00    +0.221 A 
ATOM     30  N   UNL     1      -5.055  14.601  67.698  0.00  0.00    -0.201 NA
ATOM     31  C   UNL     1      -6.110  15.413  67.645  0.00  0.00    +0.197 A 
ENDBRANCH  26  27
ENDBRANCH   1  26
TORSDOF 7
ENDMDL
MODEL 6
REMARK VINA RESULT:      -6.7      3.542      8.725
REMARK  Name = 
REMARK  7 active torsions:
REMARK  status: ('A' for Active; 'I' for Inactive)
REMARK    1  A    between atoms: C_2  and  C_3
REMARK    2  A    between atoms: C_2  and  C_16
REMARK    3  A    between atoms: C_5  and  C_6
REMARK    4  A    between atoms: C_9  and  C_10
REMARK    5  A    between atoms: C_16  and  C_18
REMARK    6  A    between atoms: C_16  and  C_24
REMARK    7  A    between atoms: C_18  and  N_19
REMARK                            x       y       z     vdW  Elec       q    Type
REMARK                         _______ _______ _______ _____ _____    ______ ____
ROOT
ATOM      1  C   UNL     1     -10.213  15.106  67.477  0.00  0.00    +0.175 C 
ATOM      2  O   UNL     1      -9.318  14.014  67.520  0.00  0.00    -0.219 OA
ENDROOT
BRANCH   1   3
ATOM      3  C   UNL     1     -11.306  14.843  68.365  0.00  0.00    +0.037 A 
ATOM      4  C   UNL     1     -11.423  13.538  68.844  0.00  0.00    +0.139 A 
ATOM      5  F   UNL     1     -10.518  12.569  68.510  0.00  0.00    -0.204 F 
ATOM      6  C   UNL     1     -12.118  13.262  70.018  0.00  0.00    +0.032 A 
ATOM      7  C   UNL     1     -12.486  14.298  70.864  0.00  0.00    +0.032 A 
ATOM      8  C   UNL     1     -12.036  15.581  70.580  0.00  0.00    +0.140 A 
ATOM      9  F   UNL     1     -11.827  16.492  71.575  0.00  0.00    -0.204 F 
ATOM     10  C   UNL     1     -11.735  15.822  69.258  0.00  0.00    +0.030 A 
ENDBRANCH   1   3
BRANCH   1  12
ATOM     11  C   UNL     1      -7.871  15.666  67.245  0.00  0.00    +0.010 C 
ATOM     12  C   UNL     1      -9.188  16.238  68.078  0.00  0.00    +0.080 C 
BRANCH  12  13
ATOM     13  C   UNL     1      -9.489  17.368  66.935  0.00  0.00    +0.091 A 
ATOM     14  S   UNL     1     -10.474  18.705  67.381  0.00  0.00    -0.070 S 
ATOM     15  C   UNL     1      -9.508  19.955  66.705  0.00  0.00    +0.056 A 
ATOM     16  C   UNL     1      -8.437  19.232  66.200  0.00  0.00    +0.088 A 
ATOM     17  N   UNL     1      -8.371  18.003  66.600  0.00  0.00    -0.243 NA
BRANCH  16  18
ATOM     18  C   UNL     1      -7.194  19.959  65.845  0.00  0.00    +0.018 A 
ATOM     19  C   UNL     1      -6.237  19.207  65.170  0.00  0.00    +0.002 A 
ATOM     20  C   UNL     1      -4.967  19.712  64.980  0.00  0.00    +0.010 A 
ATOM     21  C   UNL     1      -4.513  20.831  65.664  0.00  0.00    +0.068 A 
ATOM     22  C   UNL     1      -5.323  21.257  66.709  0.00  0.00    +0.010 A 
ATOM     23  C   UNL     1      -6.632  20.813  66.790  0.00  0.00    +0.002 A 
BRANCH  21  24
ATOM     24  C   UNL     1      -3.559  21.729  65.052  0.00  0.00    +0.100 C 
ATOM     25  N   UNL     1      -2.647  22.269  64.591  0.00  0.00    -0.191 NA
ENDBRANCH  21  24
ENDBRANCH  16  18
ENDBRANCH  12  13
ENDBRANCH   1  12
BRANCH   1  26
ATOM     26  C   UNL     1     -10.466  15.338  66.057  0.00  0.00    +0.164 C 
BRANCH  26  27
ATOM     27  N   UNL     1     -11.155  14.216  65.424  0.00  0.00    -0.227 N 
ATOM     28  N   UNL     1     -10.494  13.430  64.570  0.00  0.00    -0.145 NA
ATOM     29  C   UNL     1     -11.368  12.796  63.791  0.00  0.00    +0.221 A 
ATOM     30  N   UNL     1     -12.586  13.365  63.964  0.00  0.00    -0.201 NA
ATOM     31  C   UNL     1     -12.438  14.158  65.026  0.00  0.00    +0.197 A 
ENDBRANCH  26  27
ENDBRANCH   1  26
TORSDOF 7
ENDMDL
MODEL 7
REMARK VINA RESULT:      -6.6      3.537      8.956
REMARK  Name = 
REMARK  7 active torsions:
REMARK  status: ('A' for Active; 'I' for Inactive)
REMARK    1  A    between atoms: C_2  and  C_3
REMARK    2  A    between atoms: C_2  and  C_16
REMARK    3  A    between atoms: C_5  and  C_6
REMARK    4  A    between atoms: C_9  and  C_10
REMARK    5  A    between atoms: C_16  and  C_18
REMARK    6  A    between atoms: C_16  and  C_24
REMARK    7  A    between atoms: C_18  and  N_19
REMARK                            x       y       z     vdW  Elec       q    Type
REMARK                         _______ _______ _______ _____ _____    ______ ____
ROOT
ATOM      1  C   UNL     1      -9.754  14.924  67.467  0.00  0.00    +0.175 C 
ATOM      2  O   UNL     1      -8.566  14.542  66.806  0.00  0.00    -0.219 OA
ENDROOT
BRANCH   1   3
ATOM      3  C   UNL     1     -10.131  13.884  68.378  0.00  0.00    +0.037 A 
ATOM      4  C   UNL     1     -11.244  14.130  69.181  0.00  0.00    +0.139 A 
ATOM      5  F   UNL     1     -11.958  15.292  69.078  0.00  0.00    -0.204 F 
ATOM      6  C   UNL     1     -11.969  13.085  69.746  0.00  0.00    +0.032 A 
ATOM      7  C   UNL     1     -11.756  11.784  69.316  0.00  0.00    +0.032 A 
ATOM      8  C   UNL     1     -10.911  11.570  68.235  0.00  0.00    +0.140 A 
ATOM      9  F   UNL     1     -11.088  10.504  67.401  0.00  0.00    -0.204 F 
ATOM     10  C   UNL     1      -9.964  12.548  68.023  0.00  0.00    +0.030 A 
ENDBRANCH   1   3
BRANCH   1  12
ATOM     11  C   UNL     1      -7.600  16.003  67.689  0.00  0.00    +0.010 C 
ATOM     12  C   UNL     1      -9.147  16.236  68.244  0.00  0.00    +0.080 C 
BRANCH  12  13
ATOM     13  C   UNL     1      -9.472  17.308  67.053  0.00  0.00    +0.091 A 
ATOM     14  S   UNL     1     -10.471  18.652  67.447  0.00  0.00    -0.070 S 
ATOM     15  C   UNL     1      -9.527  19.882  66.706  0.00  0.00    +0.056 A 
ATOM     16  C   UNL     1      -8.450  19.151  66.226  0.00  0.00    +0.088 A 
ATOM     17  N   UNL     1      -8.365  17.942  66.682  0.00  0.00    -0.243 NA
BRANCH  16  18
ATOM     18  C   UNL     1      -7.220  19.878  65.828  0.00  0.00    +0.018 A 
ATOM     19  C   UNL     1      -6.265  19.112  65.167  0.00  0.00    +0.002 A 
ATOM     20  C   UNL     1      -5.003  19.622  64.941  0.00  0.00    +0.010 A 
ATOM     21  C   UNL     1      -4.552  20.769  65.579  0.00  0.00    +0.068 A 
ATOM     22  C   UNL     1      -5.352  21.224  66.619  0.00  0.00    +0.010 A 
ATOM     23  C   UNL     1      -6.654  20.769  66.734  0.00  0.00    +0.002 A 
BRANCH  21  24
ATOM     24  C   UNL     1      -3.616  21.655  64.923  0.00  0.00    +0.100 C 
ATOM     25  N   UNL     1      -2.774  22.384  64.612  0.00  0.00    -0.191 NA
ENDBRANCH  21  24
ENDBRANCH  16  18
ENDBRANCH  12  13
ENDBRANCH   1  12
BRANCH   1  26
ATOM     26  C   UNL     1     -10.670  15.330  66.404  0.00  0.00    +0.164 C 
BRANCH  26  27
ATOM     27  N   UNL     1     -11.292  14.187  65.739  0.00  0.00    -0.227 N 
ATOM     28  N   UNL     1     -10.785  13.734  64.590  0.00  0.00    -0.145 NA
ATOM     29  C   UNL     1     -11.717  13.036  63.945  0.00  0.00    +0.221 A 
ATOM     30  N   UNL     1     -12.909  13.253  64.551  0.00  0.00    -0.201 NA
ATOM     31  C   UNL     1     -12.600  13.880  65.686  0.00  0.00    +0.197 A 
ENDBRANCH  26  27
ENDBRANCH   1  26
TORSDOF 7
ENDMDL
MODEL 8
REMARK VINA RESULT:      -6.6      3.546      8.169
REMARK  Name = 
REMARK  7 active torsions:
REMARK  status: ('A' for Active; 'I' for Inactive)
REMARK    1  A    between atoms: C_2  and  C_3
REMARK    2  A    between atoms: C_2  and  C_16
REMARK    3  A    between atoms: C_5  and  C_6
REMARK    4  A    between atoms: C_9  and  C_10
REMARK    5  A    between atoms: C_16  and  C_18
REMARK    6  A    between atoms: C_16  and  C_24
REMARK    7  A    between atoms: C_18  and  N_19
REMARK                            x       y       z     vdW  Elec       q    Type
REMARK                         _______ _______ _______ _____ _____    ______ ____
ROOT
ATOM      1  C   UNL     1     -10.910  15.305  67.810  0.00  0.00    +0.175 C 
ATOM      2  O   UNL     1     -11.641  16.492  68.033  0.00  0.00    -0.219 OA
ENDROOT
BRANCH   1   3
ATOM      3  C   UNL     1     -11.660  14.459  66.930  0.00  0.00    +0.037 A 
ATOM      4  C   UNL     1     -11.718  14.843  65.590  0.00  0.00    +0.139 A 
ATOM      5  F   UNL     1     -11.062  15.954  65.136  0.00  0.00    -0.204 F 
ATOM      6  C   UNL     1     -11.999  13.920  64.588  0.00  0.00    +0.032 A 
ATOM      7  C   UNL     1     -11.973  12.562  64.871  0.00  0.00    +0.032 A 
ATOM      8  C   UNL     1     -11.539  12.152  66.125  0.00  0.00    +0.140 A 
ATOM      9  F   UNL     1     -10.932  10.941  66.300  0.00  0.00    -0.204 F 
ATOM     10  C   UNL     1     -11.680  13.081  67.132  0.00  0.00    +0.030 A 
ENDBRANCH   1   3
BRANCH   1  12
ATOM     11  C   UNL     1      -9.835  17.472  67.779  0.00  0.00    +0.010 C 
ATOM     12  C   UNL     1      -9.623  15.992  67.058  0.00  0.00    +0.080 C 
BRANCH  12  13
ATOM     13  C   UNL     1      -8.513  15.546  68.173  0.00  0.00    +0.091 A 
ATOM     14  S   UNL     1      -7.094  14.755  67.607  0.00  0.00    -0.070 S 
ATOM     15  C   UNL     1      -5.940  15.647  68.514  0.00  0.00    +0.056 A 
ATOM     16  C   UNL     1      -6.754  16.551  69.183  0.00  0.00    +0.088 A 
ATOM     17  N   UNL     1      -7.971  16.614  68.745  0.00  0.00    -0.243 NA
BRANCH  16  18
ATOM     18  C   UNL     1      -6.130  17.744  69.805  0.00  0.00    +0.018 A 
ATOM     19  C   UNL     1      -6.665  18.967  69.412  0.00  0.00    +0.002 A 
ATOM     20  C   UNL     1      -6.030  20.143  69.756  0.00  0.00    +0.010 A 
ATOM     21  C   UNL     1      -4.734  20.158  70.251  0.00  0.00    +0.068 A 
ATOM     22  C   UNL     1      -4.047  18.955  70.153  0.00  0.00    +0.010 A 
ATOM     23  C   UNL     1      -4.744  17.782  69.923  0.00  0.00    +0.002 A 
BRANCH  21  24
ATOM     24  C   UNL     1      -4.319  21.173  71.194  0.00  0.00    +0.100 C 
ATOM     25  N   UNL     1      -4.217  22.005  71.990  0.00  0.00    -0.191 NA
ENDBRANCH  21  24
ENDBRANCH  16  18
ENDBRANCH  12  13
ENDBRANCH   1  12
BRANCH   1  26
ATOM     26  C   UNL     1     -10.539  14.828  69.140  0.00  0.00    +0.164 C 
BRANCH  26  27
ATOM     27  N   UNL     1     -11.596  15.048  70.124  0.00  0.00    -0.227 N 
ATOM     28  N   UNL     1     -11.431  15.967  71.079  0.00  0.00    -0.145 NA
ATOM     29  C   UNL     1     -12.251  15.700  72.092  0.00  0.00    +0.221 A 
ATOM     30  N   UNL     1     -12.764  14.459  71.910  0.00  0.00    -0.201 NA
ATOM     31  C   UNL     1     -12.419  14.132  70.665  0.00  0.00    +0.197 A 
ENDBRANCH  26  27
ENDBRANCH   1  26
TORSDOF 7
ENDMDL
MODEL 9
REMARK VINA RESULT:      -6.5      3.365      8.119
REMARK  Name = 
REMARK  7 active torsions:
REMARK  status: ('A' for Active; 'I' for Inactive)
REMARK    1  A    between atoms: C_2  and  C_3
REMARK    2  A    between atoms: C_2  and  C_16
REMARK    3  A    between atoms: C_5  and  C_6
REMARK    4  A    between atoms: C_9  and  C_10
REMARK    5  A    between atoms: C_16  and  C_18
REMARK    6  A    between atoms: C_16  and  C_24
REMARK    7  A    between atoms: C_18  and  N_19
REMARK                            x       y       z     vdW  Elec       q    Type
REMARK                         _______ _______ _______ _____ _____    ______ ____
ROOT
ATOM      1  C   UNL     1     -11.199  13.275  67.318  0.00  0.00    +0.175 C 
ATOM      2  O   UNL     1     -12.360  14.006  67.654  0.00  0.00    -0.219 OA
ENDROOT
BRANCH   1   3
ATOM      3  C   UNL     1     -11.503  12.405  66.220  0.00  0.00    +0.037 A 
ATOM      4  C   UNL     1     -12.307  12.931  65.209  0.00  0.00    +0.139 A 
ATOM      5  F   UNL     1     -12.754  14.223  65.250  0.00  0.00    -0.204 F 
ATOM      6  C   UNL     1     -12.297  12.390  63.927  0.00  0.00    +0.032 A 
ATOM      7  C   UNL     1     -11.306  11.491  63.563  0.00  0.00    +0.032 A 
ATOM      8  C   UNL     1     -10.268  11.249  64.453  0.00  0.00    +0.140 A 
ATOM      9  F   UNL     1      -9.025  10.898  64.009  0.00  0.00    -0.204 F 
ATOM     10  C   UNL     1     -10.560  11.479  65.779  0.00  0.00    +0.030 A 
ENDBRANCH   1   3
BRANCH   1  12
ATOM     11  C   UNL     1     -11.072  15.636  67.831  0.00  0.00    +0.010 C 
ATOM     12  C   UNL     1     -10.276  14.552  66.858  0.00  0.00    +0.080 C 
BRANCH  12  13
ATOM     13  C   UNL     1      -9.102  14.328  67.974  0.00  0.00    +0.091 A 
ATOM     14  S   UNL     1      -7.637  13.597  67.448  0.00  0.00    -0.070 S 
ATOM     15  C   UNL     1      -6.539  14.679  68.209  0.00  0.00    +0.056 A 
ATOM     16  C   UNL     1      -7.410  15.582  68.802  0.00  0.00    +0.088 A 
ATOM     17  N   UNL     1      -8.639  15.495  68.405  0.00  0.00    -0.243 NA
BRANCH  16  18
ATOM     18  C   UNL     1      -6.874  16.885  69.265  0.00  0.00    +0.018 A 
ATOM     19  C   UNL     1      -7.459  18.007  68.686  0.00  0.00    +0.002 A 
ATOM     20  C   UNL     1      -6.901  19.255  68.877  0.00  0.00    +0.010 A 
ATOM     21  C   UNL     1      -5.627  19.415  69.403  0.00  0.00    +0.068 A 
ATOM     22  C   UNL     1      -4.873  18.252  69.499  0.00  0.00    +0.010 A 
ATOM     23  C   UNL     1      -5.498  17.020  69.418  0.00  0.00    +0.002 A 
BRANCH  21  24
ATOM     24  C   UNL     1      -5.303  20.576  70.203  0.00  0.00    +0.100 C 
ATOM     25  N   UNL     1      -4.827  21.468  70.762  0.00  0.00    -0.191 NA
ENDBRANCH  21  24
ENDBRANCH  16  18
ENDBRANCH  12  13
ENDBRANCH   1  12
BRANCH   1  26
ATOM     26  C   UNL     1     -10.719  12.717  68.580  0.00  0.00    +0.164 C 
BRANCH  26  27
ATOM     27  N   UNL     1     -11.799  12.149  69.383  0.00  0.00    -0.227 N 
ATOM     28  N   UNL     1     -12.160  12.745  70.522  0.00  0.00    -0.145 NA
ATOM     29  C   UNL     1     -12.796  11.867  71.294  0.00  0.00    +0.221 A 
ATOM     30  N   UNL     1     -12.621  10.631  70.769  0.00  0.00    -0.201 NA
ATOM     31  C   UNL     1     -12.092  10.849  69.565  0.00  0.00    +0.197 A 
ENDBRANCH  26  27
ENDBRANCH   1  26
TORSDOF 7
ENDMDL
