MODEL 1
REMARK VINA RESULT:      -6.8      0.000      0.000
REMARK  Name = 
REMARK  6 active torsions:
REMARK  status: ('A' for Active; 'I' for Inactive)
REMARK    1  A    between atoms: C_5  and  C_6
REMARK    2  A    between atoms: C_6  and  O_7
REMARK    3  A    between atoms: O_7  and  N_8
REMARK    4  A    between atoms: C_9  and  C_10
REMARK    5  A    between atoms: C_9  and  C_16
REMARK    6  A    between atoms: C_10  and  N_11
REMARK                            x       y       z     vdW  Elec       q    Type
REMARK                         _______ _______ _______ _____ _____    ______ ____
ROOT
ATOM      1  N   UNL     1     -11.748  11.609  67.171  0.00  0.00    -0.085 NA
ATOM      2  C   UNL     1     -10.803  11.111  66.465  0.00  0.00    +0.121 C 
ENDROOT
BRANCH   2   3
ATOM      3  C   UNL     1     -10.061   9.972  67.019  0.00  0.00    +0.029 A 
ATOM      4  C   UNL     1      -8.903  10.140  67.764  0.00  0.00    +0.060 A 
ATOM      5 CL   UNL     1      -8.486  11.800  68.165  0.00  0.00    -0.082 Cl
ATOM      6  C   UNL     1      -8.087   9.074  68.115  0.00  0.00    +0.023 A 
ATOM      7  C   UNL     1      -8.212   7.886  67.433  0.00  0.00    +0.059 A 
ATOM      8 CL   UNL     1      -6.927   6.720  67.281  0.00  0.00    -0.082 Cl
ATOM      9  C   UNL     1      -9.439   7.658  66.822  0.00  0.00    +0.011 A 
ATOM     10  C   UNL     1     -10.312   8.699  66.533  0.00  0.00    +0.003 A 
ENDBRANCH   2   3
BRANCH   1  11
ATOM     11  O   UNL     1     -12.232  11.056  68.328  0.00  0.00    -0.373 OA
BRANCH  11  12
ATOM     12  C   UNL     1     -11.878  11.672  69.539  0.00  0.00    +0.266 C 
BRANCH  12  18
ATOM     13 CL   UNL     1     -14.315   7.129  71.414  0.00  0.00    -0.082 Cl
ATOM     14  C   UNL     1     -13.130   8.399  71.711  0.00  0.00    +0.058 A 
ATOM     15  C   UNL     1     -13.524   9.663  72.137  0.00  0.00    +0.023 A 
ATOM     16  C   UNL     1     -12.892  10.794  71.635  0.00  0.00    +0.058 A 
ATOM     17 CL   UNL     1     -13.408  12.416  72.089  0.00  0.00    -0.082 Cl
ATOM     18  C   UNL     1     -11.879  10.711  70.687  0.00  0.00    +0.035 A 
ATOM     19  C   UNL     1     -11.265   9.469  70.587  0.00  0.00    +0.001 A 
ATOM     20  C   UNL     1     -11.856   8.347  71.156  0.00  0.00    +0.011 A 
ENDBRANCH  12  18
ENDBRANCH  11  12
ENDBRANCH   1  11
BRANCH   2  21
ATOM     21  C   UNL     1     -10.407  11.696  65.154  0.00  0.00    +0.157 C 
BRANCH  21  22
ATOM     22  N   UNL     1     -11.106  12.920  64.869  0.00  0.00    -0.302 N 
ATOM     23  C   UNL     1     -12.076  13.053  63.940  0.00  0.00    +0.179 A 
ATOM     24  N   UNL     1     -12.468  14.343  63.853  0.00  0.00    -0.222 NA
ATOM     25  C   UNL     1     -11.551  15.063  64.527  0.00  0.00    +0.119 A 
ATOM     26  C   UNL     1     -10.660  14.159  65.089  0.00  0.00    +0.098 A 
ENDBRANCH  21  22
ENDBRANCH   2  21
TORSDOF 6
ENDMDL
MODEL 2
REMARK VINA RESULT:      -6.7      3.270      4.817
REMARK  Name = 
REMARK  6 active torsions:
REMARK  status: ('A' for Active; 'I' for Inactive)
REMARK    1  A    between atoms: C_5  and  C_6
REMARK    2  A    between atoms: C_6  and  O_7
REMARK    3  A    between atoms: O_7  and  N_8
REMARK    4  A    between atoms: C_9  and  C_10
REMARK    5  A    between atoms: C_9  and  C_16
REMARK    6  A    between atoms: C_10  and  N_11
REMARK                            x       y       z     vdW  Elec       q    Type
REMARK                         _______ _______ _______ _____ _____    ______ ____
ROOT
ATOM      1  N   UNL     1     -11.492  14.832  67.315  0.00  0.00    -0.085 NA
ATOM      2  C   UNL     1     -11.031  14.697  66.127  0.00  0.00    +0.121 C 
ENDROOT
BRANCH   2   3
ATOM      3  C   UNL     1     -10.906  13.335  65.593  0.00  0.00    +0.029 A 
ATOM      4  C   UNL     1      -9.826  12.522  65.899  0.00  0.00    +0.060 A 
ATOM      5 CL   UNL     1      -8.718  13.145  67.114  0.00  0.00    -0.082 Cl
ATOM      6  C   UNL     1      -9.593  11.320  65.244  0.00  0.00    +0.023 A 
ATOM      7  C   UNL     1     -10.216  11.088  64.039  0.00  0.00    +0.059 A 
ATOM      8 CL   UNL     1      -9.593  10.009  62.822  0.00  0.00    -0.082 Cl
ATOM      9  C   UNL     1     -11.390  11.795  63.811  0.00  0.00    +0.011 A 
ATOM     10  C   UNL     1     -11.687  12.957  64.513  0.00  0.00    +0.003 A 
ENDBRANCH   2   3
BRANCH   1  11
ATOM     11  O   UNL     1     -12.034  13.819  68.062  0.00  0.00    -0.373 OA
BRANCH  11  12
ATOM     12  C   UNL     1     -11.592  13.683  69.388  0.00  0.00    +0.266 C 
BRANCH  12  18
ATOM     13 CL   UNL     1     -12.405  15.561  74.478  0.00  0.00    -0.082 Cl
ATOM     14  C   UNL     1     -13.134  14.922  73.006  0.00  0.00    +0.058 A 
ATOM     15  C   UNL     1     -13.116  13.559  72.729  0.00  0.00    +0.023 A 
ATOM     16  C   UNL     1     -12.897  13.116  71.429  0.00  0.00    +0.058 A 
ATOM     17 CL   UNL     1     -12.791  11.400  71.046  0.00  0.00    -0.082 Cl
ATOM     18  C   UNL     1     -12.667  13.999  70.381  0.00  0.00    +0.035 A 
ATOM     19  C   UNL     1     -13.072  15.307  70.611  0.00  0.00    +0.001 A 
ATOM     20  C   UNL     1     -13.367  15.734  71.901  0.00  0.00    +0.011 A 
ENDBRANCH  12  18
ENDBRANCH  11  12
ENDBRANCH   1  11
BRANCH   2  21
ATOM     21  C   UNL     1     -10.567  15.862  65.325  0.00  0.00    +0.157 C 
BRANCH  21  22
ATOM     22  N   UNL     1      -9.805  16.796  66.109  0.00  0.00    -0.302 N 
ATOM     23  C   UNL     1     -10.189  18.061  66.385  0.00  0.00    +0.179 A 
ATOM     24  N   UNL     1      -9.216  18.708  67.064  0.00  0.00    -0.222 NA
ATOM     25  C   UNL     1      -8.115  17.938  66.971  0.00  0.00    +0.119 A 
ATOM     26  C   UNL     1      -8.484  16.781  66.298  0.00  0.00    +0.098 A 
ENDBRANCH  21  22
ENDBRANCH   2  21
TORSDOF 6
ENDMDL
MODEL 3
REMARK VINA RESULT:      -6.6      4.373      7.953
REMARK  Name = 
REMARK  6 active torsions:
REMARK  status: ('A' for Active; 'I' for Inactive)
REMARK    1  A    between atoms: C_5  and  C_6
REMARK    2  A    between atoms: C_6  and  O_7
REMARK    3  A    between atoms: O_7  and  N_8
REMARK    4  A    between atoms: C_9  and  C_10
REMARK    5  A    between atoms: C_9  and  C_16
REMARK    6  A    between atoms: C_10  and  N_11
REMARK                            x       y       z     vdW  Elec       q    Type
REMARK                         _______ _______ _______ _____ _____    ______ ____
ROOT
ATOM      1  N   UNL     1      -8.704  15.383  66.202  0.00  0.00    -0.085 NA
ATOM      2  C   UNL     1      -9.970  15.435  66.393  0.00  0.00    +0.121 C 
ENDROOT
BRANCH   2   3
ATOM      3  C   UNL     1     -10.463  15.236  67.762  0.00  0.00    +0.029 A 
ATOM      4  C   UNL     1     -10.573  13.974  68.327  0.00  0.00    +0.060 A 
ATOM      5 CL   UNL     1      -9.906  12.650  67.382  0.00  0.00    -0.082 Cl
ATOM      6  C   UNL     1     -11.225  13.757  69.533  0.00  0.00    +0.023 A 
ATOM      7  C   UNL     1     -12.084  14.721  70.009  0.00  0.00    +0.059 A 
ATOM      8 CL   UNL     1     -13.410  14.386  71.088  0.00  0.00    -0.082 Cl
ATOM      9  C   UNL     1     -11.863  16.015  69.555  0.00  0.00    +0.011 A 
ATOM     10  C   UNL     1     -11.141  16.265  68.394  0.00  0.00    +0.003 A 
ENDBRANCH   2   3
BRANCH   1  11
ATOM     11  O   UNL     1      -7.765  15.325  67.198  0.00  0.00    -0.373 OA
BRANCH  11  12
ATOM     12  C   UNL     1      -6.668  16.197  67.107  0.00  0.00    +0.266 C 
BRANCH  12  18
ATOM     13 CL   UNL     1     -10.887  19.702  66.997  0.00  0.00    -0.082 Cl
ATOM     14  C   UNL     1      -9.173  19.465  67.330  0.00  0.00    +0.058 A 
ATOM     15  C   UNL     1      -8.242  19.418  66.299  0.00  0.00    +0.023 A 
ATOM     16  C   UNL     1      -7.189  18.510  66.353  0.00  0.00    +0.058 A 
ATOM     17 CL   UNL     1      -6.031  18.364  65.034  0.00  0.00    -0.082 Cl
ATOM     18  C   UNL     1      -7.044  17.616  67.406  0.00  0.00    +0.035 A 
ATOM     19  C   UNL     1      -7.735  17.949  68.564  0.00  0.00    +0.001 A 
ATOM     20  C   UNL     1      -8.737  18.913  68.529  0.00  0.00    +0.011 A 
ENDBRANCH  12  18
ENDBRANCH  11  12
ENDBRANCH   1  11
BRANCH   2  21
ATOM     21  C   UNL     1     -10.930  15.620  65.270  0.00  0.00    +0.157 C 
BRANCH  21  22
ATOM     22  N   UNL     1     -11.538  14.382  64.863  0.00  0.00    -0.302 N 
ATOM     23  C   UNL     1     -12.688  13.887  65.370  0.00  0.00    +0.179 A 
ATOM     24  N   UNL     1     -12.944  12.668  64.846  0.00  0.00    -0.222 NA
ATOM     25  C   UNL     1     -11.814  12.279  64.224  0.00  0.00    +0.119 A 
ATOM     26  C   UNL     1     -10.917  13.335  64.316  0.00  0.00    +0.098 A 
ENDBRANCH  21  22
ENDBRANCH   2  21
TORSDOF 6
ENDMDL
MODEL 4
REMARK VINA RESULT:      -6.6      5.466      8.489
REMARK  Name = 
REMARK  6 active torsions:
REMARK  status: ('A' for Active; 'I' for Inactive)
REMARK    1  A    between atoms: C_5  and  C_6
REMARK    2  A    between atoms: C_6  and  O_7
REMARK    3  A    between atoms: O_7  and  N_8
REMARK    4  A    between atoms: C_9  and  C_10
REMARK    5  A    between atoms: C_9  and  C_16
REMARK    6  A    between atoms: C_10  and  N_11
REMARK                            x       y       z     vdW  Elec       q    Type
REMARK                         _______ _______ _______ _____ _____    ______ ____
ROOT
ATOM      1  N   UNL     1     -11.709  16.440  68.813  0.00  0.00    -0.085 NA
ATOM      2  C   UNL     1     -11.458  15.196  68.987  0.00  0.00    +0.121 C 
ENDROOT
BRANCH   2   3
ATOM      3  C   UNL     1     -10.389  14.595  68.181  0.00  0.00    +0.029 A 
ATOM      4  C   UNL     1     -10.651  13.931  66.991  0.00  0.00    +0.060 A 
ATOM      5 CL   UNL     1     -12.309  14.020  66.413  0.00  0.00    -0.082 Cl
ATOM      6  C   UNL     1      -9.684  13.186  66.330  0.00  0.00    +0.023 A 
ATOM      7  C   UNL     1      -8.559  12.794  67.019  0.00  0.00    +0.059 A 
ATOM      8 CL   UNL     1      -7.606  11.398  66.598  0.00  0.00    -0.082 Cl
ATOM      9  C   UNL     1      -8.216  13.568  68.120  0.00  0.00    +0.011 A 
ATOM     10  C   UNL     1      -9.144  14.386  68.752  0.00  0.00    +0.003 A 
ENDBRANCH   2   3
BRANCH   1  11
ATOM     11  O   UNL     1     -10.948  17.292  68.056  0.00  0.00    -0.373 OA
BRANCH  11  12
ATOM     12  C   UNL     1     -10.131  18.210  68.736  0.00  0.00    +0.266 C 
BRANCH  12  18
ATOM     13 CL   UNL     1      -5.407  20.973  69.116  0.00  0.00    -0.082 Cl
ATOM     14  C   UNL     1      -6.382  19.836  68.188  0.00  0.00    +0.058 A 
ATOM     15  C   UNL     1      -7.418  20.277  67.372  0.00  0.00    +0.023 A 
ATOM     16  C   UNL     1      -8.606  19.559  67.306  0.00  0.00    +0.058 A 
ATOM     17 CL   UNL     1      -9.972  20.121  66.345  0.00  0.00    -0.082 Cl
ATOM     18  C   UNL     1      -8.812  18.408  68.057  0.00  0.00    +0.035 A 
ATOM     19  C   UNL     1      -7.657  17.801  68.535  0.00  0.00    +0.001 A 
ATOM     20  C   UNL     1      -6.450  18.490  68.531  0.00  0.00    +0.011 A 
ENDBRANCH  12  18
ENDBRANCH  11  12
ENDBRANCH   1  11
BRANCH   2  21
ATOM     21  C   UNL     1     -12.256  14.354  69.921  0.00  0.00    +0.157 C 
BRANCH  21  22
ATOM     22  N   UNL     1     -12.611  15.059  71.123  0.00  0.00    -0.302 N 
ATOM     23  C   UNL     1     -11.777  15.271  72.164  0.00  0.00    +0.179 A 
ATOM     24  N   UNL     1     -12.436  15.881  73.174  0.00  0.00    -0.222 NA
ATOM     25  C   UNL     1     -13.746  15.801  72.874  0.00  0.00    +0.119 A 
ATOM     26  C   UNL     1     -13.840  15.209  71.622  0.00  0.00    +0.098 A 
ENDBRANCH  21  22
ENDBRANCH   2  21
TORSDOF 6
ENDMDL
MODEL 5
REMARK VINA RESULT:      -6.5      2.615      4.248
REMARK  Name = 
REMARK  6 active torsions:
REMARK  status: ('A' for Active; 'I' for Inactive)
REMARK    1  A    between atoms: C_5  and  C_6
REMARK    2  A    between atoms: C_6  and  O_7
REMARK    3  A    between atoms: O_7  and  N_8
REMARK    4  A    between atoms: C_9  and  C_10
REMARK    5  A    between atoms: C_9  and  C_16
REMARK    6  A    between atoms: C_10  and  N_11
REMARK                            x       y       z     vdW  Elec       q    Type
REMARK                         _______ _______ _______ _____ _____    ______ ____
ROOT
ATOM      1  N   UNL     1     -10.364  12.031  67.466  0.00  0.00    -0.085 NA
ATOM      2  C   UNL     1     -10.274  13.245  67.067  0.00  0.00    +0.121 C 
ENDROOT
BRANCH   2   3
ATOM      3  C   UNL     1     -10.611  14.307  68.023  0.00  0.00    +0.029 A 
ATOM      4  C   UNL     1      -9.674  14.830  68.902  0.00  0.00    +0.060 A 
ATOM      5 CL   UNL     1      -8.019  14.283  68.670  0.00  0.00    -0.082 Cl
ATOM      6  C   UNL     1     -10.026  15.679  69.941  0.00  0.00    +0.023 A 
ATOM      7  C   UNL     1     -11.341  15.732  70.342  0.00  0.00    +0.059 A 
ATOM      8 CL   UNL     1     -11.845  16.200  71.942  0.00  0.00    -0.082 Cl
ATOM      9  C   UNL     1     -12.285  15.356  69.395  0.00  0.00    +0.011 A 
ATOM     10  C   UNL     1     -11.942  14.573  68.299  0.00  0.00    +0.003 A 
ENDBRANCH   2   3
BRANCH   1  11
ATOM     11  O   UNL     1     -10.587  11.650  68.763  0.00  0.00    -0.373 OA
BRANCH  11  12
ATOM     12  C   UNL     1     -11.845  11.109  69.073  0.00  0.00    +0.266 C 
BRANCH  12  18
ATOM     13 CL   UNL     1     -14.491   7.145  71.790  0.00  0.00    -0.082 Cl
ATOM     14  C   UNL     1     -13.179   8.321  71.803  0.00  0.00    +0.058 A 
ATOM     15  C   UNL     1     -13.422   9.666  72.061  0.00  0.00    +0.023 A 
ATOM     16  C   UNL     1     -12.741  10.646  71.348  0.00  0.00    +0.058 A 
ATOM     17 CL   UNL     1     -13.073  12.359  71.588  0.00  0.00    -0.082 Cl
ATOM     18  C   UNL     1     -11.828  10.327  70.350  0.00  0.00    +0.035 A 
ATOM     19  C   UNL     1     -11.335   9.029  70.393  0.00  0.00    +0.001 A 
ATOM     20  C   UNL     1     -11.968   8.064  71.168  0.00  0.00    +0.011 A 
ENDBRANCH  12  18
ENDBRANCH  11  12
ENDBRANCH   1  11
BRANCH   2  21
ATOM     21  C   UNL     1      -9.909  13.589  65.665  0.00  0.00    +0.157 C 
BRANCH  21  22
ATOM     22  N   UNL     1     -10.891  13.134  64.718  0.00  0.00    -0.302 N 
ATOM     23  C   UNL     1     -12.213  13.403  64.793  0.00  0.00    +0.179 A 
ATOM     24  N   UNL     1     -12.877  12.759  63.808  0.00  0.00    -0.222 NA
ATOM     25  C   UNL     1     -12.012  11.868  63.287  0.00  0.00    +0.119 A 
ATOM     26  C   UNL     1     -10.795  12.063  63.927  0.00  0.00    +0.098 A 
ENDBRANCH  21  22
ENDBRANCH   2  21
TORSDOF 6
ENDMDL
MODEL 6
REMARK VINA RESULT:      -6.5      4.072      5.978
REMARK  Name = 
REMARK  6 active torsions:
REMARK  status: ('A' for Active; 'I' for Inactive)
REMARK    1  A    between atoms: C_5  and  C_6
REMARK    2  A    between atoms: C_6  and  O_7
REMARK    3  A    between atoms: O_7  and  N_8
REMARK    4  A    between atoms: C_9  and  C_10
REMARK    5  A    between atoms: C_9  and  C_16
REMARK    6  A    between atoms: C_10  and  N_11
REMARK                            x       y       z     vdW  Elec       q    Type
REMARK                         _______ _______ _______ _____ _____    ______ ____
ROOT
ATOM      1  N   UNL     1     -11.032  15.074  67.600  0.00  0.00    -0.085 NA
ATOM      2  C   UNL     1     -10.252  15.664  66.772  0.00  0.00    +0.121 C 
ENDROOT
BRANCH   2   3
ATOM      3  C   UNL     1      -8.974  16.175  67.281  0.00  0.00    +0.029 A 
ATOM      4  C   UNL     1      -8.846  17.459  67.791  0.00  0.00    +0.060 A 
ATOM      5 CL   UNL     1     -10.343  18.365  67.967  0.00  0.00    -0.082 Cl
ATOM      6  C   UNL     1      -7.612  18.021  68.082  0.00  0.00    +0.023 A 
ATOM      7  C   UNL     1      -6.479  17.461  67.537  0.00  0.00    +0.059 A 
ATOM      8 CL   UNL     1      -5.003  18.342  67.259  0.00  0.00    -0.082 Cl
ATOM      9  C   UNL     1      -6.572  16.123  67.176  0.00  0.00    +0.011 A 
ATOM     10  C   UNL     1      -7.801  15.512  66.958  0.00  0.00    +0.003 A 
ENDBRANCH   2   3
BRANCH   1  11
ATOM     11  O   UNL     1     -10.694  14.735  68.884  0.00  0.00    -0.373 OA
BRANCH  11  12
ATOM     12  C   UNL     1     -11.331  13.617  69.448  0.00  0.00    +0.266 C 
BRANCH  12  18
ATOM     13 CL   UNL     1     -12.460  15.515  74.470  0.00  0.00    -0.082 Cl
ATOM     14  C   UNL     1     -13.098  14.940  72.931  0.00  0.00    +0.058 A 
ATOM     15  C   UNL     1     -13.152  13.581  72.639  0.00  0.00    +0.023 A 
ATOM     16  C   UNL     1     -12.850  13.132  71.358  0.00  0.00    +0.058 A 
ATOM     17 CL   UNL     1     -12.831  11.415  70.964  0.00  0.00    -0.082 Cl
ATOM     18  C   UNL     1     -12.465  14.003  70.346  0.00  0.00    +0.035 A 
ATOM     19  C   UNL     1     -12.796  15.336  70.556  0.00  0.00    +0.001 A 
ATOM     20  C   UNL     1     -13.174  15.773  71.820  0.00  0.00    +0.011 A 
ENDBRANCH  12  18
ENDBRANCH  11  12
ENDBRANCH   1  11
BRANCH   2  21
ATOM     21  C   UNL     1     -10.639  15.894  65.353  0.00  0.00    +0.157 C 
BRANCH  21  22
ATOM     22  N   UNL     1     -11.096  14.692  64.710  0.00  0.00    -0.302 N 
ATOM     23  C   UNL     1     -12.393  14.357  64.537  0.00  0.00    +0.179 A 
ATOM     24  N   UNL     1     -12.489  13.129  63.983  0.00  0.00    -0.222 NA
ATOM     25  C   UNL     1     -11.263  12.580  64.064  0.00  0.00    +0.119 A 
ATOM     26  C   UNL     1     -10.420  13.546  64.597  0.00  0.00    +0.098 A 
ENDBRANCH  21  22
ENDBRANCH   2  21
TORSDOF 6
ENDMDL
MODEL 7
REMARK VINA RESULT:      -6.5      2.772      5.387
REMARK  Name = 
REMARK  6 active torsions:
REMARK  status: ('A' for Active; 'I' for Inactive)
REMARK    1  A    between atoms: C_5  and  C_6
REMARK    2  A    between atoms: C_6  and  O_7
REMARK    3  A    between atoms: O_7  and  N_8
REMARK    4  A    between atoms: C_9  and  C_10
REMARK    5  A    between atoms: C_9  and  C_16
REMARK    6  A    between atoms: C_10  and  N_11
REMARK                            x       y       z     vdW  Elec       q    Type
REMARK                         _______ _______ _______ _____ _____    ______ ____
ROOT
ATOM      1  N   UNL     1     -11.945  12.186  69.431  0.00  0.00    -0.085 NA
ATOM      2  C   UNL     1     -12.083  13.438  69.197  0.00  0.00    +0.121 C 
ENDROOT
BRANCH   2   3
ATOM      3  C   UNL     1     -12.369  14.320  70.335  0.00  0.00    +0.029 A 
ATOM      4  C   UNL     1     -11.431  15.215  70.826  0.00  0.00    +0.060 A 
ATOM      5 CL   UNL     1      -9.952  15.366  69.887  0.00  0.00    -0.082 Cl
ATOM      6  C   UNL     1     -11.614  15.901  72.018  0.00  0.00    +0.023 A 
ATOM      7  C   UNL     1     -12.553  15.442  72.913  0.00  0.00    +0.059 A 
ATOM      8 CL   UNL     1     -12.483  15.744  74.627  0.00  0.00    -0.082 Cl
ATOM      9  C   UNL     1     -13.582  14.675  72.381  0.00  0.00    +0.011 A 
ATOM     10  C   UNL     1     -13.456  14.044  71.150  0.00  0.00    +0.003 A 
ENDBRANCH   2   3
BRANCH   1  11
ATOM     11  O   UNL     1     -11.876  11.629  70.681  0.00  0.00    -0.373 OA
BRANCH  11  12
ATOM     12  C   UNL     1     -12.820  10.640  71.003  0.00  0.00    +0.266 C 
BRANCH  12  18
ATOM     13 CL   UNL     1     -10.888   5.805  69.275  0.00  0.00    -0.082 Cl
ATOM     14  C   UNL     1     -11.208   6.861  70.649  0.00  0.00    +0.058 A 
ATOM     15  C   UNL     1     -12.488   6.985  71.177  0.00  0.00    +0.023 A 
ATOM     16  C   UNL     1     -12.951   8.227  71.597  0.00  0.00    +0.058 A 
ATOM     17 CL   UNL     1     -14.591   8.443  72.201  0.00  0.00    -0.082 Cl
ATOM     18  C   UNL     1     -12.178   9.376  71.484  0.00  0.00    +0.035 A 
ATOM     19  C   UNL     1     -10.815   9.157  71.329  0.00  0.00    +0.001 A 
ATOM     20  C   UNL     1     -10.341   7.896  70.985  0.00  0.00    +0.011 A 
ENDBRANCH  12  18
ENDBRANCH  11  12
ENDBRANCH   1  11
BRANCH   2  21
ATOM     21  C   UNL     1     -12.027  13.992  67.816  0.00  0.00    +0.157 C 
BRANCH  21  22
ATOM     22  N   UNL     1     -11.354  13.110  66.901  0.00  0.00    -0.302 N 
ATOM     23  C   UNL     1     -10.024  13.111  66.671  0.00  0.00    +0.179 A 
ATOM     24  N   UNL     1      -9.717  12.228  65.694  0.00  0.00    -0.222 NA
ATOM     25  C   UNL     1     -10.884  11.879  65.121  0.00  0.00    +0.119 A 
ATOM     26  C   UNL     1     -11.893  12.506  65.839  0.00  0.00    +0.098 A 
ENDBRANCH  21  22
ENDBRANCH   2  21
TORSDOF 6
ENDMDL
MODEL 8
REMARK VINA RESULT:      -6.5      4.188      7.662
REMARK  Name = 
REMARK  6 active torsions:
REMARK  status: ('A' for Active; 'I' for Inactive)
REMARK    1  A    between atoms: C_5  and  C_6
REMARK    2  A    between atoms: C_6  and  O_7
REMARK    3  A    between atoms: O_7  and  N_8
REMARK    4  A    between atoms: C_9  and  C_10
REMARK    5  A    between atoms: C_9  and  C_16
REMARK    6  A    between atoms: C_10  and  N_11
REMARK                            x       y       z     vdW  Elec       q    Type
REMARK                         _______ _______ _______ _____ _____    ______ ____
ROOT
ATOM      1  N   UNL     1      -9.638  13.411  67.694  0.00  0.00    -0.085 NA
ATOM      2  C   UNL     1     -10.883  13.215  67.923  0.00  0.00    +0.121 C 
ENDROOT
BRANCH   2   3
ATOM      3  C   UNL     1     -11.453  13.799  69.144  0.00  0.00    +0.029 A 
ATOM      4  C   UNL     1     -11.935  13.012  70.179  0.00  0.00    +0.060 A 
ATOM      5 CL   UNL     1     -11.647  11.284  70.026  0.00  0.00    -0.082 Cl
ATOM      6  C   UNL     1     -12.658  13.543  71.238  0.00  0.00    +0.023 A 
ATOM      7  C   UNL     1     -13.220  14.791  71.102  0.00  0.00    +0.059 A 
ATOM      8 CL   UNL     1     -14.618  15.324  71.994  0.00  0.00    -0.082 Cl
ATOM      9  C   UNL     1     -12.625  15.631  70.169  0.00  0.00    +0.011 A 
ATOM     10  C   UNL     1     -11.828  15.133  69.146  0.00  0.00    +0.003 A 
ENDBRANCH   2   3
BRANCH   1  11
ATOM     11  O   UNL     1      -8.836  14.262  68.409  0.00  0.00    -0.373 OA
BRANCH  11  12
ATOM     12  C   UNL     1      -8.254  15.338  67.719  0.00  0.00    +0.266 C 
BRANCH  12  18
ATOM     13 CL   UNL     1      -7.302  20.729  67.367  0.00  0.00    -0.082 Cl
ATOM     14  C   UNL     1      -7.765  19.376  68.397  0.00  0.00    +0.058 A 
ATOM     15  C   UNL     1      -6.811  18.502  68.905  0.00  0.00    +0.023 A 
ATOM     16  C   UNL     1      -7.080  17.139  68.972  0.00  0.00    +0.058 A 
ATOM     17 CL   UNL     1      -5.873  15.988  69.537  0.00  0.00    -0.082 Cl
ATOM     18  C   UNL     1      -8.279  16.604  68.517  0.00  0.00    +0.035 A 
ATOM     19  C   UNL     1      -9.322  17.514  68.391  0.00  0.00    +0.001 A 
ATOM     20  C   UNL     1      -9.065  18.881  68.403  0.00  0.00    +0.011 A 
ENDBRANCH  12  18
ENDBRANCH  11  12
ENDBRANCH   1  11
BRANCH   2  21
ATOM     21  C   UNL     1     -11.725  12.371  67.032  0.00  0.00    +0.157 C 
BRANCH  21  22
ATOM     22  N   UNL     1     -11.855  12.930  65.714  0.00  0.00    -0.302 N 
ATOM     23  C   UNL     1     -12.530  14.063  65.423  0.00  0.00    +0.179 A 
ATOM     24  N   UNL     1     -12.542  14.270  64.087  0.00  0.00    -0.222 NA
ATOM     25  C   UNL     1     -12.117  13.123  63.523  0.00  0.00    +0.119 A 
ATOM     26  C   UNL     1     -11.768  12.267  64.559  0.00  0.00    +0.098 A 
ENDBRANCH  21  22
ENDBRANCH   2  21
TORSDOF 6
ENDMDL
MODEL 9
REMARK VINA RESULT:      -6.5      1.286      1.718
REMARK  Name = 
REMARK  6 active torsions:
REMARK  status: ('A' for Active; 'I' for Inactive)
REMARK    1  A    between atoms: C_5  and  C_6
REMARK    2  A    between atoms: C_6  and  O_7
REMARK    3  A    between atoms: O_7  and  N_8
REMARK    4  A    between atoms: C_9  and  C_10
REMARK    5  A    between atoms: C_9  and  C_16
REMARK    6  A    between atoms: C_10  and  N_11
REMARK                            x       y       z     vdW  Elec       q    Type
REMARK                         _______ _______ _______ _____ _____    ______ ____
ROOT
ATOM      1  N   UNL     1     -11.640  11.377  67.084  0.00  0.00    -0.085 NA
ATOM      2  C   UNL     1     -10.481  11.310  66.542  0.00  0.00    +0.121 C 
ENDROOT
BRANCH   2   3
ATOM      3  C   UNL     1      -9.398  10.690  67.316  0.00  0.00    +0.029 A 
ATOM      4  C   UNL     1      -9.295   9.314  67.464  0.00  0.00    +0.060 A 
ATOM      5 CL   UNL     1     -10.421   8.355  66.513  0.00  0.00    -0.082 Cl
ATOM      6  C   UNL     1      -8.405   8.730  68.354  0.00  0.00    +0.023 A 
ATOM      7  C   UNL     1      -7.869   9.499  69.361  0.00  0.00    +0.059 A 
ATOM      8 CL   UNL     1      -7.291   8.848  70.870  0.00  0.00    -0.082 Cl
ATOM      9  C   UNL     1      -7.833  10.868  69.132  0.00  0.00    +0.011 A 
ATOM     10  C   UNL     1      -8.655  11.469  68.187  0.00  0.00    +0.003 A 
ENDBRANCH   2   3
BRANCH   1  11
ATOM     11  O   UNL     1     -11.989  10.765  68.259  0.00  0.00    -0.373 OA
BRANCH  11  12
ATOM     12  C   UNL     1     -11.859  11.511  69.442  0.00  0.00    +0.266 C 
BRANCH  12  18
ATOM     13 CL   UNL     1     -14.362   7.168  71.670  0.00  0.00    -0.082 Cl
ATOM     14  C   UNL     1     -13.160   8.442  71.868  0.00  0.00    +0.058 A 
ATOM     15  C   UNL     1     -13.538   9.741  72.189  0.00  0.00    +0.023 A 
ATOM     16  C   UNL     1     -12.889  10.820  71.599  0.00  0.00    +0.058 A 
ATOM     17 CL   UNL     1     -13.385  12.480  71.918  0.00  0.00    -0.082 Cl
ATOM     18  C   UNL     1     -11.876  10.647  70.664  0.00  0.00    +0.035 A 
ATOM     19  C   UNL     1     -11.278   9.392  70.667  0.00  0.00    +0.001 A 
ATOM     20  C   UNL     1     -11.886   8.328  71.323  0.00  0.00    +0.011 A 
ENDBRANCH  12  18
ENDBRANCH  11  12
ENDBRANCH   1  11
BRANCH   2  21
ATOM     21  C   UNL     1     -10.202  11.896  65.202  0.00  0.00    +0.157 C 
BRANCH  21  22
ATOM     22  N   UNL     1     -11.017  13.050  64.931  0.00  0.00    -0.302 N 
ATOM     23  C   UNL     1     -11.972  13.111  63.979  0.00  0.00    +0.179 A 
ATOM     24  N   UNL     1     -12.492  14.357  63.917  0.00  0.00    -0.222 NA
ATOM     25  C   UNL     1     -11.671  15.145  64.636  0.00  0.00    +0.119 A 
ATOM     26  C   UNL     1     -10.706  14.321  65.198  0.00  0.00    +0.098 A 
ENDBRANCH  21  22
ENDBRANCH   2  21
TORSDOF 6
ENDMDL
