MODEL 1
REMARK VINA RESULT:      -7.3      0.000      0.000
REMARK  Name = 
REMARK  4 active torsions:
REMARK  status: ('A' for Active; 'I' for Inactive)
REMARK    1  A    between atoms: O_2  and  C_3
REMARK    2  A    between atoms: C_18  and  O_19
REMARK    3  A    between atoms: O_19  and  C_20
REMARK    4  A    between atoms: C_41  and  O_42
REMARK                            x       y       z     vdW  Elec       q    Type
REMARK                         _______ _______ _______ _____ _____    ______ ____
ROOT
ATOM      1  C   UNL     1      -9.672  16.208  65.951  0.00  0.00    +0.177 A 
ATOM      2  C   UNL     1     -10.718  16.193  65.037  0.00  0.00    +0.229 A 
ATOM      3  O   UNL     1     -11.323  17.408  64.695  0.00  0.00    -0.283 OA
ATOM      4  C   UNL     1     -11.270  14.965  64.688  0.00  0.00    +0.041 A 
ATOM      5  C   UNL     1     -10.938  13.795  65.368  0.00  0.00    -0.020 A 
ATOM      6  C   UNL     1     -11.996  12.885  65.923  0.00  0.00    +0.045 C 
ATOM      7  C   UNL     1     -11.741  12.596  67.357  0.00  0.00    +0.094 C 
ATOM      8  N   UNL     1     -10.397  12.916  67.840  0.00  0.00    -0.205 NA
ATOM      9  C   UNL     1      -9.395  12.631  66.835  0.00  0.00    +0.177 C 
ATOM     10  C   UNL     1      -9.888  11.319  66.322  0.00  0.00    +0.336 C 
ATOM     11  O   UNL     1      -9.783  11.025  65.090  0.00  0.00    -0.248 OA
ATOM     12  O   UNL     1     -10.025  10.343  67.320  0.00  0.00    -0.445 OA
ATOM     13  C   UNL     1      -9.685  10.495  68.654  0.00  0.00    +0.229 C 
ATOM     14  C   UNL     1      -8.932   9.138  69.204  0.00  0.00    +0.129 C 
ATOM     15  N   UNL     1      -7.614   9.848  69.711  0.00  0.00    -0.240 NA
ATOM     16  C   UNL     1      -7.398   9.142  71.108  0.00  0.00    +0.228 C 
ATOM     17  O   UNL     1      -8.702   8.357  71.197  0.00  0.00    -0.203 OA
ATOM     18  C   UNL     1      -6.593   7.683  70.648  0.00  0.00    +0.109 C 
ATOM     19  N   UNL     1      -5.138   8.079  70.264  0.00  0.00    -0.265 NA
ATOM     20  C   UNL     1      -5.126   9.556  69.773  0.00  0.00    +0.099 C 
ATOM     21  C   UNL     1      -5.563  10.020  71.251  0.00  0.00    +0.032 A 
ATOM     22  C   UNL     1      -4.810  11.155  71.567  0.00  0.00    +0.226 A 
ATOM     23  O   UNL     1      -4.784  12.261  70.749  0.00  0.00    -0.284 OA
ATOM     24  C   UNL     1      -4.082  11.301  72.720  0.00  0.00    +0.173 A 
ATOM     25  C   UNL     1      -4.159  10.337  73.690  0.00  0.00    +0.015 A 
ATOM     26  C   UNL     1      -3.286  10.389  74.906  0.00  0.00    +0.034 C 
ATOM     27  C   UNL     1      -5.160   9.416  73.576  0.00  0.00    -0.006 A 
ATOM     28  C   UNL     1      -5.415   9.044  72.261  0.00  0.00    -0.020 A 
ATOM     29  C   UNL     1      -4.858   7.278  69.104  0.00  0.00    +0.090 C 
ATOM     30  C   UNL     1      -6.052   7.669  72.206  0.00  0.00    +0.046 C 
ATOM     31  C   UNL     1      -6.545   9.036  68.992  0.00  0.00    +0.093 C 
ATOM     32  C   UNL     1      -6.314  10.005  67.630  0.00  0.00    +0.089 C 
ATOM     33  C   UNL     1      -7.514   9.225  67.001  0.00  0.00    +0.024 A 
ATOM     34  C   UNL     1      -7.039   8.325  66.036  0.00  0.00    +0.144 A 
ATOM     35  C   UNL     1      -7.846   7.296  65.559  0.00  0.00    +0.050 A 
ATOM     36  C   UNL     1      -9.008   6.945  66.241  0.00  0.00    +0.175 A 
ATOM     37  O   UNL     1      -9.810   5.797  66.276  0.00  0.00    -0.435 OA
ATOM     38  C   UNL     1     -10.930   6.033  67.125  0.00  0.00    +0.429 C 
ATOM     39  O   UNL     1     -10.658   7.345  67.613  0.00  0.00    -0.435 OA
ATOM     40  C   UNL     1      -9.381   7.741  67.282  0.00  0.00    +0.173 A 
ATOM     41  C   UNL     1      -7.450   6.416  64.431  0.00  0.00    +0.038 C 
ATOM     42  S   UNL     1      -7.038  11.667  68.125  0.00  0.00    -0.133 S 
ATOM     43  C   UNL     1      -8.453   8.665  67.747  0.00  0.00    +0.033 A 
ATOM     44  C   UNL     1      -8.015  12.537  67.130  0.00  0.00    +0.089 C 
ATOM     45  C   UNL     1      -9.640  13.761  65.872  0.00  0.00    +0.002 A 
ATOM     46  C   UNL     1      -9.125  14.984  66.294  0.00  0.00    +0.037 A 
ENDROOT
BRANCH   1  48
ATOM     47  C   UNL     1     -10.214  17.398  68.020  0.00  0.00    +0.253 C 
ATOM     48  O   UNL     1      -9.628  17.322  66.797  0.00  0.00    -0.468 OA
ENDBRANCH   1  48
BRANCH  24  49
ATOM     49  O   UNL     1      -2.993  12.178  72.855  0.00  0.00    -0.469 OA
ATOM     50  C   UNL     1      -3.361  13.451  73.388  0.00  0.00    +0.253 C 
ENDBRANCH  24  49
BRANCH  34  51
ATOM     51  O   UNL     1      -5.693   8.206  65.687  0.00  0.00    -0.425 OA
BRANCH  51  52
ATOM     52  C   UNL     1      -5.227   8.904  64.566  0.00  0.00    +0.322 C 
ATOM     53  O   UNL     1      -5.847   9.842  64.028  0.00  0.00    -0.250 OA
ATOM     54  C   UNL     1      -4.062   8.343  63.839  0.00  0.00    +0.122 C 
ENDBRANCH  51  52
ENDBRANCH  34  51
TORSDOF 4
ENDMDL
MODEL 2
REMARK VINA RESULT:      -7.2      2.627      4.406
REMARK  Name = 
REMARK  4 active torsions:
REMARK  status: ('A' for Active; 'I' for Inactive)
REMARK    1  A    between atoms: O_2  and  C_3
REMARK    2  A    between atoms: C_18  and  O_19
REMARK    3  A    between atoms: O_19  and  C_20
REMARK    4  A    between atoms: C_41  and  O_42
REMARK                            x       y       z     vdW  Elec       q    Type
REMARK                         _______ _______ _______ _____ _____    ______ ____
ROOT
ATOM      1  C   UNL     1     -10.778  16.009  68.929  0.00  0.00    +0.177 A 
ATOM      2  C   UNL     1     -10.704  16.849  67.825  0.00  0.00    +0.229 A 
ATOM      3  O   UNL     1     -11.282  18.121  67.914  0.00  0.00    -0.283 OA
ATOM      4  C   UNL     1     -10.276  16.311  66.616  0.00  0.00    +0.041 A 
ATOM      5  C   UNL     1     -10.115  14.937  66.444  0.00  0.00    -0.020 A 
ATOM      6  C   UNL     1     -10.752  14.213  65.295  0.00  0.00    +0.045 C 
ATOM      7  C   UNL     1     -11.529  13.042  65.777  0.00  0.00    +0.094 C 
ATOM      8  N   UNL     1     -11.245  12.613  67.146  0.00  0.00    -0.205 NA
ATOM      9  C   UNL     1      -9.839  12.751  67.460  0.00  0.00    +0.177 C 
ATOM     10  C   UNL     1      -9.226  12.237  66.201  0.00  0.00    +0.336 C 
ATOM     11  O   UNL     1      -8.160  12.754  65.742  0.00  0.00    -0.248 OA
ATOM     12  O   UNL     1      -9.637  10.937  65.868  0.00  0.00    -0.445 OA
ATOM     13  C   UNL     1     -10.469  10.131  66.627  0.00  0.00    +0.229 C 
ATOM     14  C   UNL     1      -9.900   8.586  66.640  0.00  0.00    +0.129 C 
ATOM     15  N   UNL     1      -9.803   8.436  68.211  0.00  0.00    -0.240 NA
ATOM     16  C   UNL     1     -10.410   6.992  68.424  0.00  0.00    +0.228 C 
ATOM     17  O   UNL     1     -10.900   6.715  67.007  0.00  0.00    -0.203 OA
ATOM     18  C   UNL     1      -9.042   5.983  68.110  0.00  0.00    +0.109 C 
ATOM     19  N   UNL     1      -8.099   6.115  69.340  0.00  0.00    -0.265 NA
ATOM     20  C   UNL     1      -8.324   7.504  70.006  0.00  0.00    +0.099 C 
ATOM     21  C   UNL     1      -9.824   7.050  70.376  0.00  0.00    +0.032 A 
ATOM     22  C   UNL     1     -10.077   7.485  71.680  0.00  0.00    +0.226 A 
ATOM     23  O   UNL     1      -9.911   8.799  72.054  0.00  0.00    -0.284 OA
ATOM     24  C   UNL     1     -10.556   6.681  72.682  0.00  0.00    +0.173 A 
ATOM     25  C   UNL     1     -10.917   5.392  72.394  0.00  0.00    +0.015 A 
ATOM     26  C   UNL     1     -11.322   4.439  73.477  0.00  0.00    +0.034 C 
ATOM     27  C   UNL     1     -11.035   5.057  71.076  0.00  0.00    -0.006 A 
ATOM     28  C   UNL     1     -10.082   5.666  70.269  0.00  0.00    -0.020 A 
ATOM     29  C   UNL     1      -6.784   6.167  68.762  0.00  0.00    +0.090 C 
ATOM     30  C   UNL     1      -9.857   4.861  69.004  0.00  0.00    +0.046 C 
ATOM     31  C   UNL     1      -8.357   7.991  68.376  0.00  0.00    +0.093 C 
ATOM     32  C   UNL     1      -7.626   9.485  68.667  0.00  0.00    +0.089 C 
ATOM     33  C   UNL     1      -7.541   9.627  67.112  0.00  0.00    +0.024 A 
ATOM     34  C   UNL     1      -6.218   9.431  66.691  0.00  0.00    +0.144 A 
ATOM     35  C   UNL     1      -5.921   9.188  65.353  0.00  0.00    +0.050 A 
ATOM     36  C   UNL     1      -6.931   8.825  64.467  0.00  0.00    +0.175 A 
ATOM     37  O   UNL     1      -6.955   8.176  63.226  0.00  0.00    -0.435 OA
ATOM     38  C   UNL     1      -8.295   8.130  62.745  0.00  0.00    +0.429 C 
ATOM     39  O   UNL     1      -9.015   8.720  63.825  0.00  0.00    -0.435 OA
ATOM     40  C   UNL     1      -8.211   8.869  64.933  0.00  0.00    +0.173 A 
ATOM     41  C   UNL     1      -4.532   9.130  64.831  0.00  0.00    +0.038 C 
ATOM     42  S   UNL     1      -9.055  10.600  69.165  0.00  0.00    -0.133 S 
ATOM     43  C   UNL     1      -8.389   9.008  66.305  0.00  0.00    +0.033 A 
ATOM     44  C   UNL     1      -9.234  12.124  68.573  0.00  0.00    +0.089 C 
ATOM     45  C   UNL     1      -9.731  14.246  67.591  0.00  0.00    +0.002 A 
ATOM     46  C   UNL     1     -10.230  14.746  68.791  0.00  0.00    +0.037 A 
ENDROOT
BRANCH   1  48
ATOM     47  C   UNL     1     -11.822  15.927  71.141  0.00  0.00    +0.253 C 
ATOM     48  O   UNL     1     -11.807  16.294  69.834  0.00  0.00    -0.468 OA
ENDBRANCH   1  48
BRANCH  24  49
ATOM     49  O   UNL     1     -10.386   6.946  74.051  0.00  0.00    -0.469 OA
ATOM     50  C   UNL     1      -9.022   6.875  74.471  0.00  0.00    +0.253 C 
ENDBRANCH  24  49
BRANCH  34  51
ATOM     51  O   UNL     1      -5.157   9.192  67.566  0.00  0.00    -0.425 OA
BRANCH  51  52
ATOM     52  C   UNL     1      -4.357  10.272  67.961  0.00  0.00    +0.322 C 
ATOM     53  O   UNL     1      -4.688  11.466  67.819  0.00  0.00    -0.250 OA
ATOM     54  C   UNL     1      -2.952   9.988  68.339  0.00  0.00    +0.122 C 
ENDBRANCH  51  52
ENDBRANCH  34  51
TORSDOF 4
ENDMDL
MODEL 3
REMARK VINA RESULT:      -6.8      3.633      7.439
REMARK  Name = 
REMARK  4 active torsions:
REMARK  status: ('A' for Active; 'I' for Inactive)
REMARK    1  A    between atoms: O_2  and  C_3
REMARK    2  A    between atoms: C_18  and  O_19
REMARK    3  A    between atoms: O_19  and  C_20
REMARK    4  A    between atoms: C_41  and  O_42
REMARK                            x       y       z     vdW  Elec       q    Type
REMARK                         _______ _______ _______ _____ _____    ______ ____
ROOT
ATOM      1  C   UNL     1      -7.884   6.434  62.224  0.00  0.00    +0.177 A 
ATOM      2  C   UNL     1      -7.483   5.204  61.717  0.00  0.00    +0.229 A 
ATOM      3  O   UNL     1      -7.452   5.033  60.328  0.00  0.00    -0.283 OA
ATOM      4  C   UNL     1      -7.362   4.135  62.599  0.00  0.00    +0.041 A 
ATOM      5  C   UNL     1      -7.815   4.220  63.914  0.00  0.00    -0.020 A 
ATOM      6  C   UNL     1      -8.733   3.183  64.493  0.00  0.00    +0.045 C 
ATOM      7  C   UNL     1      -9.927   3.821  65.105  0.00  0.00    +0.094 C 
ATOM      8  N   UNL     1      -9.820   5.258  65.355  0.00  0.00    -0.205 NA
ATOM      9  C   UNL     1      -8.485   5.621  65.778  0.00  0.00    +0.177 C 
ATOM     10  C   UNL     1      -8.187   4.510  66.728  0.00  0.00    +0.336 C 
ATOM     11  O   UNL     1      -7.015   4.027  66.814  0.00  0.00    -0.248 OA
ATOM     12  O   UNL     1      -9.129   4.390  67.762  0.00  0.00    -0.445 OA
ATOM     13  C   UNL     1     -10.207   5.232  67.978  0.00  0.00    +0.229 C 
ATOM     14  C   UNL     1     -10.362   5.551  69.586  0.00  0.00    +0.129 C 
ATOM     15  N   UNL     1     -10.298   7.126  69.471  0.00  0.00    -0.240 NA
ATOM     16  C   UNL     1     -11.463   7.558  70.447  0.00  0.00    +0.228 C 
ATOM     17  O   UNL     1     -12.063   6.188  70.743  0.00  0.00    -0.203 OA
ATOM     18  C   UNL     1     -10.675   7.505  71.985  0.00  0.00    +0.109 C 
ATOM     19  N   UNL     1      -9.735   8.743  72.046  0.00  0.00    -0.265 NA
ATOM     20  C   UNL     1      -9.320   9.138  70.599  0.00  0.00    +0.099 C 
ATOM     21  C   UNL     1     -10.858   9.499  70.288  0.00  0.00    +0.032 A 
ATOM     22  C   UNL     1     -10.864  10.689  69.554  0.00  0.00    +0.226 A 
ATOM     23  O   UNL     1     -10.136  10.832  68.395  0.00  0.00    -0.284 OA
ATOM     24  C   UNL     1     -11.617  11.789  69.875  0.00  0.00    +0.173 A 
ATOM     25  C   UNL     1     -12.507  11.714  70.913  0.00  0.00    +0.015 A 
ATOM     26  C   UNL     1     -13.255  12.925  71.382  0.00  0.00    +0.034 C 
ATOM     27  C   UNL     1     -12.793  10.472  71.401  0.00  0.00    -0.006 A 
ATOM     28  C   UNL     1     -11.692   9.624  71.421  0.00  0.00    -0.020 A 
ATOM     29  C   UNL     1      -8.543   8.240  72.672  0.00  0.00    +0.090 C 
ATOM     30  C   UNL     1     -11.871   8.537  72.463  0.00  0.00    +0.046 C 
ATOM     31  C   UNL     1      -9.182   7.449  70.454  0.00  0.00    +0.093 C 
ATOM     32  C   UNL     1      -7.870   7.511  69.394  0.00  0.00    +0.089 C 
ATOM     33  C   UNL     1      -7.773   5.963  69.592  0.00  0.00    +0.024 A 
ATOM     34  C   UNL     1      -6.676   5.659  70.410  0.00  0.00    +0.144 A 
ATOM     35  C   UNL     1      -6.549   4.403  70.999  0.00  0.00    +0.050 A 
ATOM     36  C   UNL     1      -7.640   3.541  71.050  0.00  0.00    +0.175 A 
ATOM     37  O   UNL     1      -7.975   2.435  71.842  0.00  0.00    -0.435 OA
ATOM     38  C   UNL     1      -9.215   1.895  71.396  0.00  0.00    +0.429 C 
ATOM     39  O   UNL     1      -9.581   2.811  70.366  0.00  0.00    -0.435 OA
ATOM     40  C   UNL     1      -8.763   3.919  70.376  0.00  0.00    +0.173 A 
ATOM     41  C   UNL     1      -5.336   3.979  71.744  0.00  0.00    +0.038 C 
ATOM     42  S   UNL     1      -8.662   7.722  67.703  0.00  0.00    -0.133 S 
ATOM     43  C   UNL     1      -8.826   5.232  69.923  0.00  0.00    +0.033 A 
ATOM     44  C   UNL     1      -8.181   6.860  66.388  0.00  0.00    +0.089 C 
ATOM     45  C   UNL     1      -7.737   5.490  64.479  0.00  0.00    +0.002 A 
ATOM     46  C   UNL     1      -7.939   6.553  63.602  0.00  0.00    +0.037 A 
ENDROOT
BRANCH   1  48
ATOM     47  C   UNL     1      -8.990   8.516  61.569  0.00  0.00    +0.253 C 
ATOM     48  O   UNL     1      -8.664   7.214  61.363  0.00  0.00    -0.468 OA
ENDBRANCH   1  48
BRANCH  24  49
ATOM     49  O   UNL     1     -11.313  13.096  69.462  0.00  0.00    -0.469 OA
ATOM     50  C   UNL     1     -11.923  13.447  68.218  0.00  0.00    +0.253 C 
ENDBRANCH  24  49
BRANCH  34  51
ATOM     51  O   UNL     1      -5.800   6.620  70.917  0.00  0.00    -0.425 OA
BRANCH  51  52
ATOM     52  C   UNL     1      -4.603   6.864  70.230  0.00  0.00    +0.322 C 
ATOM     53  O   UNL     1      -4.401   6.517  69.050  0.00  0.00    -0.250 OA
ATOM     54  C   UNL     1      -3.440   7.337  71.018  0.00  0.00    +0.122 C 
ENDBRANCH  51  52
ENDBRANCH  34  51
TORSDOF 4
ENDMDL
MODEL 4
REMARK VINA RESULT:      -6.7      3.248      7.571
REMARK  Name = 
REMARK  4 active torsions:
REMARK  status: ('A' for Active; 'I' for Inactive)
REMARK    1  A    between atoms: O_2  and  C_3
REMARK    2  A    between atoms: C_18  and  O_19
REMARK    3  A    between atoms: O_19  and  C_20
REMARK    4  A    between atoms: C_41  and  O_42
REMARK                            x       y       z     vdW  Elec       q    Type
REMARK                         _______ _______ _______ _____ _____    ______ ____
ROOT
ATOM      1  C   UNL     1     -11.647  12.612  65.309  0.00  0.00    +0.177 A 
ATOM      2  C   UNL     1     -11.416  13.831  65.935  0.00  0.00    +0.229 A 
ATOM      3  O   UNL     1     -11.705  15.007  65.232  0.00  0.00    -0.283 OA
ATOM      4  C   UNL     1     -10.694  13.835  67.124  0.00  0.00    +0.041 A 
ATOM      5  C   UNL     1     -10.042  12.693  67.585  0.00  0.00    -0.020 A 
ATOM      6  C   UNL     1      -8.592  12.723  67.972  0.00  0.00    +0.045 C 
ATOM      7  C   UNL     1      -7.841  11.646  67.278  0.00  0.00    +0.094 C 
ATOM      8  N   UNL     1      -8.655  10.588  66.680  0.00  0.00    -0.205 NA
ATOM      9  C   UNL     1      -9.804  10.280  67.504  0.00  0.00    +0.177 C 
ATOM     10  C   UNL     1      -9.181  10.290  68.859  0.00  0.00    +0.336 C 
ATOM     11  O   UNL     1      -9.821  10.733  69.863  0.00  0.00    -0.248 OA
ATOM     12  O   UNL     1      -8.101   9.402  68.985  0.00  0.00    -0.445 OA
ATOM     13  C   UNL     1      -7.657   8.523  68.011  0.00  0.00    +0.229 C 
ATOM     14  C   UNL     1      -7.295   7.066  68.687  0.00  0.00    +0.129 C 
ATOM     15  N   UNL     1      -8.246   6.195  67.773  0.00  0.00    -0.240 NA
ATOM     16  C   UNL     1      -7.309   4.971  67.425  0.00  0.00    +0.228 C 
ATOM     17  O   UNL     1      -6.000   5.481  68.019  0.00  0.00    -0.203 OA
ATOM     18  C   UNL     1      -7.507   3.966  68.818  0.00  0.00    +0.109 C 
ATOM     19  N   UNL     1      -8.920   3.325  68.707  0.00  0.00    -0.265 NA
ATOM     20  C   UNL     1      -9.841   4.266  67.877  0.00  0.00    +0.099 C 
ATOM     21  C   UNL     1      -8.902   4.006  66.595  0.00  0.00    +0.032 A 
ATOM     22  C   UNL     1      -9.745   3.834  65.493  0.00  0.00    +0.226 A 
ATOM     23  O   UNL     1     -10.700   4.765  65.155  0.00  0.00    -0.284 OA
ATOM     24  C   UNL     1      -9.673   2.775  64.625  0.00  0.00    +0.173 A 
ATOM     25  C   UNL     1      -8.658   1.865  64.758  0.00  0.00    +0.015 A 
ATOM     26  C   UNL     1      -8.613   0.625  63.918  0.00  0.00    +0.034 C 
ATOM     27  C   UNL     1      -7.619   2.204  65.576  0.00  0.00    -0.006 A 
ATOM     28  C   UNL     1      -8.019   2.910  66.705  0.00  0.00    -0.020 A 
ATOM     29  C   UNL     1      -9.426   3.370  70.052  0.00  0.00    +0.090 C 
ATOM     30  C   UNL     1      -7.007   2.749  67.823  0.00  0.00    +0.046 C 
ATOM     31  C   UNL     1      -9.055   5.443  68.820  0.00  0.00    +0.093 C 
ATOM     32  C   UNL     1     -10.402   6.454  68.927  0.00  0.00    +0.089 C 
ATOM     33  C   UNL     1      -9.573   7.274  69.968  0.00  0.00    +0.024 A 
ATOM     34  C   UNL     1     -10.063   7.031  71.259  0.00  0.00    +0.144 A 
ATOM     35  C   UNL     1      -9.317   7.376  72.384  0.00  0.00    +0.050 A 
ATOM     36  C   UNL     1      -7.963   7.672  72.262  0.00  0.00    +0.175 A 
ATOM     37  O   UNL     1      -6.882   7.685  73.153  0.00  0.00    -0.435 OA
ATOM     38  C   UNL     1      -5.716   8.137  72.470  0.00  0.00    +0.429 C 
ATOM     39  O   UNL     1      -6.199   8.297  71.138  0.00  0.00    -0.435 OA
ATOM     40  C   UNL     1      -7.457   7.754  70.999  0.00  0.00    +0.173 A 
ATOM     41  C   UNL     1      -9.852   7.284  73.766  0.00  0.00    +0.038 C 
ATOM     42  S   UNL     1     -10.328   7.478  67.353  0.00  0.00    -0.133 S 
ATOM     43  C   UNL     1      -8.248   7.280  69.959  0.00  0.00    +0.033 A 
ATOM     44  C   UNL     1     -10.573   9.104  67.344  0.00  0.00    +0.089 C 
ATOM     45  C   UNL     1     -10.660  11.491  67.249  0.00  0.00    +0.002 A 
ATOM     46  C   UNL     1     -11.314  11.473  66.020  0.00  0.00    +0.037 A 
ENDROOT
BRANCH   1  48
ATOM     47  C   UNL     1     -12.438  11.841  63.126  0.00  0.00    +0.253 C 
ATOM     48  O   UNL     1     -11.683  12.651  63.910  0.00  0.00    -0.468 OA
ENDBRANCH   1  48
BRANCH  24  49
ATOM     49  O   UNL     1     -10.743   2.341  63.826  0.00  0.00    -0.469 OA
ATOM     50  C   UNL     1     -10.745   2.929  62.524  0.00  0.00    +0.253 C 
ENDBRANCH  24  49
BRANCH  34  51
ATOM     51  O   UNL     1     -11.157   6.207  71.528  0.00  0.00    -0.425 OA
BRANCH  51  52
ATOM     52  C   UNL     1     -12.400   6.805  71.776  0.00  0.00    +0.322 C 
ATOM     53  O   UNL     1     -13.415   6.171  72.124  0.00  0.00    -0.250 OA
ATOM     54  C   UNL     1     -12.577   8.220  71.370  0.00  0.00    +0.122 C 
ENDBRANCH  51  52
ENDBRANCH  34  51
TORSDOF 4
ENDMDL
MODEL 5
REMARK VINA RESULT:      -6.6      2.819      5.551
REMARK  Name = 
REMARK  4 active torsions:
REMARK  status: ('A' for Active; 'I' for Inactive)
REMARK    1  A    between atoms: O_2  and  C_3
REMARK    2  A    between atoms: C_18  and  O_19
REMARK    3  A    between atoms: O_19  and  C_20
REMARK    4  A    between atoms: C_41  and  O_42
REMARK                            x       y       z     vdW  Elec       q    Type
REMARK                         _______ _______ _______ _____ _____    ______ ____
ROOT
ATOM      1  C   UNL     1     -12.304  13.795  70.426  0.00  0.00    +0.177 A 
ATOM      2  C   UNL     1     -12.404  15.005  69.752  0.00  0.00    +0.229 A 
ATOM      3  O   UNL     1     -13.351  15.938  70.191  0.00  0.00    -0.283 OA
ATOM      4  C   UNL     1     -11.735  15.141  68.540  0.00  0.00    +0.041 A 
ATOM      5  C   UNL     1     -11.144  14.050  67.906  0.00  0.00    -0.020 A 
ATOM      6  C   UNL     1     -11.432  13.732  66.467  0.00  0.00    +0.045 C 
ATOM      7  C   UNL     1     -11.846  12.314  66.315  0.00  0.00    +0.094 C 
ATOM      8  N   UNL     1     -11.555  11.443  67.454  0.00  0.00    -0.205 NA
ATOM      9  C   UNL     1     -10.290  11.785  68.068  0.00  0.00    +0.177 C 
ATOM     10  C   UNL     1      -9.449  12.009  66.857  0.00  0.00    +0.336 C 
ATOM     11  O   UNL     1      -8.561  12.918  66.844  0.00  0.00    -0.248 OA
ATOM     12  O   UNL     1      -9.411  10.906  65.990  0.00  0.00    -0.445 OA
ATOM     13  C   UNL     1     -10.011   9.678  66.214  0.00  0.00    +0.229 C 
ATOM     14  C   UNL     1      -8.997   8.463  65.763  0.00  0.00    +0.129 C 
ATOM     15  N   UNL     1      -8.984   7.706  67.151  0.00  0.00    -0.240 NA
ATOM     16  C   UNL     1      -9.132   6.202  66.687  0.00  0.00    +0.228 C 
ATOM     17  O   UNL     1      -9.397   6.423  65.202  0.00  0.00    -0.203 OA
ATOM     18  C   UNL     1      -7.498   5.790  66.298  0.00  0.00    +0.109 C 
ATOM     19  N   UNL     1      -6.744   5.633  67.649  0.00  0.00    -0.265 NA
ATOM     20  C   UNL     1      -7.440   6.517  68.725  0.00  0.00    +0.099 C 
ATOM     21  C   UNL     1      -8.751   5.592  68.595  0.00  0.00    +0.032 A 
ATOM     22  C   UNL     1      -9.230   5.370  69.890  0.00  0.00    +0.226 A 
ATOM     23  O   UNL     1      -9.508   6.407  70.750  0.00  0.00    -0.284 OA
ATOM     24  C   UNL     1      -9.517   4.132  70.404  0.00  0.00    +0.173 A 
ATOM     25  C   UNL     1      -9.437   3.032  69.592  0.00  0.00    +0.015 A 
ATOM     26  C   UNL     1      -9.615   1.649  70.140  0.00  0.00    +0.034 C 
ATOM     27  C   UNL     1      -9.340   3.254  68.249  0.00  0.00    -0.006 A 
ATOM     28  C   UNL     1      -8.559   4.360  67.932  0.00  0.00    -0.020 A 
ATOM     29  C   UNL     1      -5.467   6.246  67.405  0.00  0.00    +0.090 C 
ATOM     30  C   UNL     1      -7.996   4.234  66.530  0.00  0.00    +0.046 C 
ATOM     31  C   UNL     1      -7.490   7.610  67.422  0.00  0.00    +0.093 C 
ATOM     32  C   UNL     1      -7.282   8.980  68.386  0.00  0.00    +0.089 C 
ATOM     33  C   UNL     1      -7.120   9.768  67.046  0.00  0.00    +0.024 A 
ATOM     34  C   UNL     1      -5.771  10.102  66.854  0.00  0.00    +0.144 A 
ATOM     35  C   UNL     1      -5.308  10.517  65.608  0.00  0.00    +0.050 A 
ATOM     36  C   UNL     1      -6.081  10.312  64.470  0.00  0.00    +0.175 A 
ATOM     37  O   UNL     1      -5.804  10.252  63.098  0.00  0.00    -0.435 OA
ATOM     38  C   UNL     1      -7.021  10.076  62.379  0.00  0.00    +0.429 C 
ATOM     39  O   UNL     1      -7.973   9.966  63.436  0.00  0.00    -0.435 OA
ATOM     40  C   UNL     1      -7.346   9.838  64.655  0.00  0.00    +0.173 A 
ATOM     41  C   UNL     1      -3.931  11.029  65.389  0.00  0.00    +0.038 C 
ATOM     42  S   UNL     1      -9.020   9.393  68.969  0.00  0.00    -0.133 S 
ATOM     43  C   UNL     1      -7.668   9.348  65.916  0.00  0.00    +0.033 A 
ATOM     44  C   UNL     1      -9.612  10.927  68.965  0.00  0.00    +0.089 C 
ATOM     45  C   UNL     1     -10.659  13.067  68.764  0.00  0.00    +0.002 A 
ATOM     46  C   UNL     1     -11.383  12.883  69.940  0.00  0.00    +0.037 A 
ENDROOT
BRANCH   1  48
ATOM     47  C   UNL     1     -13.563  13.472  72.500  0.00  0.00    +0.253 C 
ATOM     48  O   UNL     1     -13.440  13.413  71.149  0.00  0.00    -0.468 OA
ENDBRANCH   1  48
BRANCH  24  49
ATOM     49  O   UNL     1      -9.547   3.840  71.778  0.00  0.00    -0.469 OA
ATOM     50  C   UNL     1      -8.262   3.923  72.397  0.00  0.00    +0.253 C 
ENDBRANCH  24  49
BRANCH  34  51
ATOM     51  O   UNL     1      -4.762   9.795  67.768  0.00  0.00    -0.425 OA
BRANCH  51  52
ATOM     52  C   UNL     1      -4.357  10.784  68.675  0.00  0.00    +0.322 C 
ATOM     53  O   UNL     1      -5.038  11.792  68.947  0.00  0.00    -0.250 OA
ATOM     54  C   UNL     1      -2.952  10.753  69.147  0.00  0.00    +0.122 C 
ENDBRANCH  51  52
ENDBRANCH  34  51
TORSDOF 4
ENDMDL
MODEL 6
REMARK VINA RESULT:      -6.5      2.677      3.528
REMARK  Name = 
REMARK  4 active torsions:
REMARK  status: ('A' for Active; 'I' for Inactive)
REMARK    1  A    between atoms: O_2  and  C_3
REMARK    2  A    between atoms: C_18  and  O_19
REMARK    3  A    between atoms: O_19  and  C_20
REMARK    4  A    between atoms: C_41  and  O_42
REMARK                            x       y       z     vdW  Elec       q    Type
REMARK                         _______ _______ _______ _____ _____    ______ ____
ROOT
ATOM      1  C   UNL     1      -9.087  14.597  68.117  0.00  0.00    +0.177 A 
ATOM      2  C   UNL     1      -9.499  14.962  66.841  0.00  0.00    +0.229 A 
ATOM      3  O   UNL     1      -9.820  16.304  66.602  0.00  0.00    -0.283 OA
ATOM      4  C   UNL     1      -9.803  13.953  65.933  0.00  0.00    +0.041 A 
ATOM      5  C   UNL     1      -9.892  12.619  66.327  0.00  0.00    -0.020 A 
ATOM      6  C   UNL     1     -11.095  11.785  65.996  0.00  0.00    +0.045 C 
ATOM      7  C   UNL     1     -11.633  11.132  67.217  0.00  0.00    +0.094 C 
ATOM      8  N   UNL     1     -10.737  11.113  68.373  0.00  0.00    -0.205 NA
ATOM      9  C   UNL     1      -9.361  10.915  67.970  0.00  0.00    +0.177 C 
ATOM     10  C   UNL     1      -9.529   9.855  66.934  0.00  0.00    +0.336 C 
ATOM     11  O   UNL     1      -8.799   9.844  65.894  0.00  0.00    -0.248 OA
ATOM     12  O   UNL     1     -10.183   8.707  67.408  0.00  0.00    -0.445 OA
ATOM     13  C   UNL     1     -10.589   8.487  68.714  0.00  0.00    +0.229 C 
ATOM     14  C   UNL     1     -10.253   6.937  69.157  0.00  0.00    +0.129 C 
ATOM     15  N   UNL     1      -9.386   7.291  70.430  0.00  0.00    -0.240 NA
ATOM     16  C   UNL     1      -9.944   6.254  71.484  0.00  0.00    +0.228 C 
ATOM     17  O   UNL     1     -11.111   5.687  70.685  0.00  0.00    -0.203 OA
ATOM     18  C   UNL     1      -9.036   4.833  71.097  0.00  0.00    +0.109 C 
ATOM     19  N   UNL     1      -7.591   5.072  71.621  0.00  0.00    -0.265 NA
ATOM     20  C   UNL     1      -7.304   6.602  71.641  0.00  0.00    +0.099 C 
ATOM     21  C   UNL     1      -8.443   6.771  72.765  0.00  0.00    +0.032 A 
ATOM     22  C   UNL     1      -7.953   7.667  73.720  0.00  0.00    +0.226 A 
ATOM     23  O   UNL     1      -7.487   8.915  73.375  0.00  0.00    -0.284 OA
ATOM     24  C   UNL     1      -7.934   7.422  75.069  0.00  0.00    +0.173 A 
ATOM     25  C   UNL     1      -8.520   6.283  75.553  0.00  0.00    +0.015 A 
ATOM     26  C   UNL     1      -8.412   5.910  77.000  0.00  0.00    +0.034 C 
ATOM     27  C   UNL     1      -9.325   5.584  74.700  0.00  0.00    -0.006 A 
ATOM     28  C   UNL     1      -8.859   5.576  73.391  0.00  0.00    -0.020 A 
ATOM     29  C   UNL     1      -6.755   4.531  70.584  0.00  0.00    +0.090 C 
ATOM     30  C   UNL     1      -9.392   4.370  72.640  0.00  0.00    +0.046 C 
ATOM     31  C   UNL     1      -8.111   6.511  70.146  0.00  0.00    +0.093 C 
ATOM     32  C   UNL     1      -7.187   7.722  69.419  0.00  0.00    +0.089 C 
ATOM     33  C   UNL     1      -7.890   7.311  68.084  0.00  0.00    +0.024 A 
ATOM     34  C   UNL     1      -6.993   6.598  67.277  0.00  0.00    +0.144 A 
ATOM     35  C   UNL     1      -7.445   5.850  66.193  0.00  0.00    +0.050 A 
ATOM     36  C   UNL     1      -8.795   5.538  66.073  0.00  0.00    +0.175 A 
ATOM     37  O   UNL     1      -9.513   4.556  65.378  0.00  0.00    -0.435 OA
ATOM     38  C   UNL     1     -10.908   4.761  65.580  0.00  0.00    +0.429 C 
ATOM     39  O   UNL     1     -10.915   5.863  66.486  0.00  0.00    -0.435 OA
ATOM     40  C   UNL     1      -9.648   6.118  66.964  0.00  0.00    +0.173 A 
ATOM     41  C   UNL     1      -6.528   5.206  65.218  0.00  0.00    +0.038 C 
ATOM     42  S   UNL     1      -8.042   9.315  69.932  0.00  0.00    -0.133 S 
ATOM     43  C   UNL     1      -9.089   6.748  68.069  0.00  0.00    +0.033 A 
ATOM     44  C   UNL     1      -8.341  10.538  68.874  0.00  0.00    +0.089 C 
ATOM     45  C   UNL     1      -9.051  12.263  67.378  0.00  0.00    +0.002 A 
ATOM     46  C   UNL     1      -8.816  13.256  68.325  0.00  0.00    +0.037 A 
ENDROOT
BRANCH   1  48
ATOM     47  C   UNL     1     -10.622  15.349  69.868  0.00  0.00    +0.253 C 
ATOM     48  O   UNL     1      -9.477  15.461  69.146  0.00  0.00    -0.468 OA
ENDBRANCH   1  48
BRANCH  24  49
ATOM     49  O   UNL     1      -7.066   8.058  75.970  0.00  0.00    -0.469 OA
ATOM     50  C   UNL     1      -5.698   7.689  75.787  0.00  0.00    +0.253 C 
ENDBRANCH  24  49
BRANCH  34  51
ATOM     51  O   UNL     1      -5.665   6.351  67.630  0.00  0.00    -0.425 OA
BRANCH  51  52
ATOM     52  C   UNL     1      -4.697   7.313  67.311  0.00  0.00    +0.322 C 
ATOM     53  O   UNL     1      -4.849   8.180  66.428  0.00  0.00    -0.250 OA
ATOM     54  C   UNL     1      -3.339   7.139  67.880  0.00  0.00    +0.122 C 
ENDBRANCH  51  52
ENDBRANCH  34  51
TORSDOF 4
ENDMDL
MODEL 7
REMARK VINA RESULT:      -6.4      2.669      4.587
REMARK  Name = 
REMARK  4 active torsions:
REMARK  status: ('A' for Active; 'I' for Inactive)
REMARK    1  A    between atoms: O_2  and  C_3
REMARK    2  A    between atoms: C_18  and  O_19
REMARK    3  A    between atoms: O_19  and  C_20
REMARK    4  A    between atoms: C_41  and  O_42
REMARK                            x       y       z     vdW  Elec       q    Type
REMARK                         _______ _______ _______ _____ _____    ______ ____
ROOT
ATOM      1  C   UNL     1      -5.976  17.578  69.229  0.00  0.00    +0.177 A 
ATOM      2  C   UNL     1      -6.303  18.658  68.419  0.00  0.00    +0.229 A 
ATOM      3  O   UNL     1      -5.880  19.935  68.806  0.00  0.00    -0.283 OA
ATOM      4  C   UNL     1      -7.227  18.460  67.398  0.00  0.00    +0.041 A 
ATOM      5  C   UNL     1      -7.963  17.281  67.299  0.00  0.00    -0.020 A 
ATOM      6  C   UNL     1      -9.458  17.301  67.172  0.00  0.00    +0.045 C 
ATOM      7  C   UNL     1     -10.084  16.419  68.190  0.00  0.00    +0.094 C 
ATOM      8  N   UNL     1      -9.186  15.464  68.840  0.00  0.00    -0.205 NA
ATOM      9  C   UNL     1      -8.207  14.945  67.909  0.00  0.00    +0.177 C 
ATOM     10  C   UNL     1      -9.064  14.715  66.710  0.00  0.00    +0.336 C 
ATOM     11  O   UNL     1      -8.610  14.920  65.541  0.00  0.00    -0.248 OA
ATOM     12  O   UNL     1     -10.158  13.871  66.957  0.00  0.00    -0.445 OA
ATOM     13  C   UNL     1     -10.429  13.224  68.151  0.00  0.00    +0.229 C 
ATOM     14  C   UNL     1     -10.922  11.681  67.860  0.00  0.00    +0.129 C 
ATOM     15  N   UNL     1      -9.830  10.965  68.752  0.00  0.00    -0.240 NA
ATOM     16  C   UNL     1     -10.703   9.879  69.499  0.00  0.00    +0.228 C 
ATOM     17  O   UNL     1     -12.091  10.321  69.051  0.00  0.00    -0.203 OA
ATOM     18  C   UNL     1     -10.768   8.610  68.327  0.00  0.00    +0.109 C 
ATOM     19  N   UNL     1      -9.365   7.939  68.318  0.00  0.00    -0.265 NA
ATOM     20  C   UNL     1      -8.300   8.981  68.767  0.00  0.00    +0.099 C 
ATOM     21  C   UNL     1      -8.997   9.024  70.218  0.00  0.00    +0.032 A 
ATOM     22  C   UNL     1      -7.971   9.036  71.168  0.00  0.00    +0.226 A 
ATOM     23  O   UNL     1      -6.961   9.970  71.138  0.00  0.00    -0.284 OA
ATOM     24  C   UNL     1      -7.897   8.174  72.232  0.00  0.00    +0.173 A 
ATOM     25  C   UNL     1      -8.928   7.304  72.465  0.00  0.00    +0.015 A 
ATOM     26  C   UNL     1      -8.834   6.259  73.535  0.00  0.00    +0.034 C 
ATOM     27  C   UNL     1     -10.094   7.523  71.790  0.00  0.00    -0.006 A 
ATOM     28  C   UNL     1      -9.897   7.971  70.489  0.00  0.00    -0.020 A 
ATOM     29  C   UNL     1      -9.109   7.692  66.926  0.00  0.00    +0.090 C 
ATOM     30  C   UNL     1     -11.094   7.639  69.620  0.00  0.00    +0.046 C 
ATOM     31  C   UNL     1      -9.231   9.983  67.755  0.00  0.00    +0.093 C 
ATOM     32  C   UNL     1      -7.915  10.889  67.213  0.00  0.00    +0.089 C 
ATOM     33  C   UNL     1      -8.909  11.524  66.186  0.00  0.00    +0.024 A 
ATOM     34  C   UNL     1      -8.662  11.007  64.907  0.00  0.00    +0.144 A 
ATOM     35  C   UNL     1      -9.593  11.157  63.883  0.00  0.00    +0.050 A 
ATOM     36  C   UNL     1     -10.901  11.534  64.176  0.00  0.00    +0.175 A 
ATOM     37  O   UNL     1     -12.124  11.421  63.502  0.00  0.00    -0.435 OA
ATOM     38  C   UNL     1     -13.144  12.053  64.271  0.00  0.00    +0.429 C 
ATOM     39  O   UNL     1     -12.428  12.451  65.438  0.00  0.00    -0.435 OA
ATOM     40  C   UNL     1     -11.171  11.888  65.464  0.00  0.00    +0.173 A 
ATOM     41  C   UNL     1      -9.317  10.768  62.476  0.00  0.00    +0.038 C 
ATOM     42  S   UNL     1      -7.694  12.207  68.534  0.00  0.00    -0.133 S 
ATOM     43  C   UNL     1     -10.210  11.594  66.424  0.00  0.00    +0.033 A 
ATOM     44  C   UNL     1      -7.435  13.789  68.169  0.00  0.00    +0.089 C 
ATOM     45  C   UNL     1      -7.307  16.142  67.760  0.00  0.00    +0.002 A 
ATOM     46  C   UNL     1      -6.443  16.337  68.834  0.00  0.00    +0.037 A 
ENDROOT
BRANCH   1  48
ATOM     47  C   UNL     1      -5.030  17.083  71.431  0.00  0.00    +0.253 C 
ATOM     48  O   UNL     1      -5.689  17.892  70.563  0.00  0.00    -0.468 OA
ENDBRANCH   1  48
BRANCH  24  49
ATOM     49  O   UNL     1      -6.705   7.858  72.904  0.00  0.00    -0.469 OA
ATOM     50  C   UNL     1      -5.794   7.100  72.106  0.00  0.00    +0.253 C 
ENDBRANCH  24  49
BRANCH  34  51
ATOM     51  O   UNL     1      -7.642  10.097  64.625  0.00  0.00    -0.425 OA
BRANCH  51  52
ATOM     52  C   UNL     1      -6.416  10.589  64.156  0.00  0.00    +0.322 C 
ATOM     53  O   UNL     1      -6.133  10.701  62.947  0.00  0.00    -0.250 OA
ATOM     54  C   UNL     1      -5.318  10.752  65.139  0.00  0.00    +0.122 C 
ENDBRANCH  51  52
ENDBRANCH  34  51
TORSDOF 4
ENDMDL
MODEL 8
REMARK VINA RESULT:      -6.3      3.298      8.810
REMARK  Name = 
REMARK  4 active torsions:
REMARK  status: ('A' for Active; 'I' for Inactive)
REMARK    1  A    between atoms: O_2  and  C_3
REMARK    2  A    between atoms: C_18  and  O_19
REMARK    3  A    between atoms: O_19  and  C_20
REMARK    4  A    between atoms: C_41  and  O_42
REMARK                            x       y       z     vdW  Elec       q    Type
REMARK                         _______ _______ _______ _____ _____    ______ ____
ROOT
ATOM      1  C   UNL     1      -9.653   5.225  71.771  0.00  0.00    +0.177 A 
ATOM      2  C   UNL     1      -9.916   5.846  72.986  0.00  0.00    +0.229 A 
ATOM      3  O   UNL     1     -10.443   5.077  74.029  0.00  0.00    -0.283 OA
ATOM      4  C   UNL     1      -9.870   7.236  73.038  0.00  0.00    +0.041 A 
ATOM      5  C   UNL     1      -9.765   8.007  71.882  0.00  0.00    -0.020 A 
ATOM      6  C   UNL     1     -10.717   9.134  71.605  0.00  0.00    +0.045 C 
ATOM      7  C   UNL     1     -11.311   8.999  70.250  0.00  0.00    +0.094 C 
ATOM      8  N   UNL     1     -10.628   8.072  69.348  0.00  0.00    -0.205 NA
ATOM      9  C   UNL     1      -9.193   8.124  69.527  0.00  0.00    +0.177 C 
ATOM     10  C   UNL     1      -8.985   9.597  69.645  0.00  0.00    +0.336 C 
ATOM     11  O   UNL     1      -8.107  10.066  70.435  0.00  0.00    -0.248 OA
ATOM     12  O   UNL     1      -9.475  10.321  68.548  0.00  0.00    -0.445 OA
ATOM     13  C   UNL     1     -10.039   9.778  67.405  0.00  0.00    +0.229 C 
ATOM     14  C   UNL     1      -9.490  10.573  66.071  0.00  0.00    +0.129 C 
ATOM     15  N   UNL     1      -8.925   9.303  65.317  0.00  0.00    -0.240 NA
ATOM     16  C   UNL     1      -9.438   9.562  63.845  0.00  0.00    +0.228 C 
ATOM     17  O   UNL     1     -10.330  10.772  64.099  0.00  0.00    -0.203 OA
ATOM     18  C   UNL     1      -8.225  10.631  63.230  0.00  0.00    +0.109 C 
ATOM     19  N   UNL     1      -6.957   9.767  62.978  0.00  0.00    -0.265 NA
ATOM     20  C   UNL     1      -6.974   8.545  63.941  0.00  0.00    +0.099 C 
ATOM     21  C   UNL     1      -8.292   8.008  63.188  0.00  0.00    +0.032 A 
ATOM     22  C   UNL     1      -8.142   6.628  63.027  0.00  0.00    +0.226 A 
ATOM     23  O   UNL     1      -7.874   5.796  64.090  0.00  0.00    -0.284 OA
ATOM     24  C   UNL     1      -8.297   5.970  61.834  0.00  0.00    +0.173 A 
ATOM     25  C   UNL     1      -8.725   6.664  60.734  0.00  0.00    +0.015 A 
ATOM     26  C   UNL     1      -8.785   6.018  59.384  0.00  0.00    +0.034 C 
ATOM     27  C   UNL     1      -9.233   7.913  60.944  0.00  0.00    -0.006 A 
ATOM     28  C   UNL     1      -8.567   8.614  61.944  0.00  0.00    -0.020 A 
ATOM     29  C   UNL     1      -5.876  10.603  63.425  0.00  0.00    +0.090 C 
ATOM     30  C   UNL     1      -8.731  10.109  61.750  0.00  0.00    +0.046 C 
ATOM     31  C   UNL     1      -7.495   9.740  65.033  0.00  0.00    +0.093 C 
ATOM     32  C   UNL     1      -6.714   9.058  66.364  0.00  0.00    +0.089 C 
ATOM     33  C   UNL     1      -7.100  10.367  67.128  0.00  0.00    +0.024 A 
ATOM     34  C   UNL     1      -5.964  11.172  67.290  0.00  0.00    +0.144 A 
ATOM     35  C   UNL     1      -6.083  12.513  67.645  0.00  0.00    +0.050 A 
ATOM     36  C   UNL     1      -7.311  13.159  67.541  0.00  0.00    +0.175 A 
ATOM     37  O   UNL     1      -7.705  14.499  67.448  0.00  0.00    -0.435 OA
ATOM     38  C   UNL     1      -9.128  14.571  67.427  0.00  0.00    +0.429 C 
ATOM     39  O   UNL     1      -9.492  13.192  67.437  0.00  0.00    -0.435 OA
ATOM     40  C   UNL     1      -8.392  12.389  67.229  0.00  0.00    +0.173 A 
ATOM     41  C   UNL     1      -4.914  13.367  67.979  0.00  0.00    +0.038 C 
ATOM     42  S   UNL     1      -7.929   7.769  66.992  0.00  0.00    -0.133 S 
ATOM     43  C   UNL     1      -8.150  11.095  66.782  0.00  0.00    +0.033 A 
ATOM     44  C   UNL     1      -8.280   7.590  68.589  0.00  0.00    +0.089 C 
ATOM     45  C   UNL     1      -9.053   7.410  70.844  0.00  0.00    +0.002 A 
ATOM     46  C   UNL     1      -9.169   6.026  70.752  0.00  0.00    +0.037 A 
ENDROOT
BRANCH   1  48
ATOM     47  C   UNL     1      -9.806   2.815  71.374  0.00  0.00    +0.253 C 
ATOM     48  O   UNL     1     -10.364   4.042  71.535  0.00  0.00    -0.468 OA
ENDBRANCH   1  48
BRANCH  24  49
ATOM     49  O   UNL     1      -7.724   4.720  61.547  0.00  0.00    -0.469 OA
ATOM     50  C   UNL     1      -6.297   4.759  61.479  0.00  0.00    +0.253 C 
ENDBRANCH  24  49
BRANCH  34  51
ATOM     51  O   UNL     1      -4.689  10.805  66.857  0.00  0.00    -0.425 OA
BRANCH  51  52
ATOM     52  C   UNL     1      -3.820  10.198  67.773  0.00  0.00    +0.322 C 
ATOM     53  O   UNL     1      -4.165   9.827  68.912  0.00  0.00    -0.250 OA
ATOM     54  C   UNL     1      -2.369  10.220  67.467  0.00  0.00    +0.122 C 
ENDBRANCH  51  52
ENDBRANCH  34  51
TORSDOF 4
ENDMDL
MODEL 9
REMARK VINA RESULT:      -6.3      3.211      5.912
REMARK  Name = 
REMARK  4 active torsions:
REMARK  status: ('A' for Active; 'I' for Inactive)
REMARK    1  A    between atoms: O_2  and  C_3
REMARK    2  A    between atoms: C_18  and  O_19
REMARK    3  A    between atoms: O_19  and  C_20
REMARK    4  A    between atoms: C_41  and  O_42
REMARK                            x       y       z     vdW  Elec       q    Type
REMARK                         _______ _______ _______ _____ _____    ______ ____
ROOT
ATOM      1  C   UNL     1     -13.182   9.873  71.419  0.00  0.00    +0.177 A 
ATOM      2  C   UNL     1     -13.666   8.606  71.723  0.00  0.00    +0.229 A 
ATOM      3  O   UNL     1     -14.825   8.503  72.500  0.00  0.00    -0.283 OA
ATOM      4  C   UNL     1     -12.856   7.509  71.448  0.00  0.00    +0.041 A 
ATOM      5  C   UNL     1     -11.524   7.662  71.069  0.00  0.00    -0.020 A 
ATOM      6  C   UNL     1     -10.421   6.925  71.773  0.00  0.00    +0.045 C 
ATOM      7  C   UNL     1      -9.355   7.864  72.206  0.00  0.00    +0.094 C 
ATOM      8  N   UNL     1      -9.383   9.187  71.583  0.00  0.00    -0.205 NA
ATOM      9  C   UNL     1      -9.782   9.106  70.194  0.00  0.00    +0.177 C 
ATOM     10  C   UNL     1      -9.003   7.911  69.755  0.00  0.00    +0.336 C 
ATOM     11  O   UNL     1      -9.493   7.091  68.917  0.00  0.00    -0.248 OA
ATOM     12  O   UNL     1      -7.622   8.032  69.973  0.00  0.00    -0.445 OA
ATOM     13  C   UNL     1      -6.975   9.150  70.472  0.00  0.00    +0.229 C 
ATOM     14  C   UNL     1      -5.585   9.421  69.633  0.00  0.00    +0.129 C 
ATOM     15  N   UNL     1      -5.913  10.906  69.201  0.00  0.00    -0.240 NA
ATOM     16  C   UNL     1      -4.531  11.622  69.473  0.00  0.00    +0.228 C 
ATOM     17  O   UNL     1      -3.793  10.486  70.172  0.00  0.00    -0.203 OA
ATOM     18  C   UNL     1      -3.653  11.256  68.029  0.00  0.00    +0.109 C 
ATOM     19  N   UNL     1      -4.256  12.145  66.904  0.00  0.00    -0.265 NA
ATOM     20  C   UNL     1      -5.739  12.467  67.250  0.00  0.00    +0.099 C 
ATOM     21  C   UNL     1      -5.229  13.292  68.534  0.00  0.00    +0.032 A 
ATOM     22  C   UNL     1      -5.991  14.463  68.603  0.00  0.00    +0.226 A 
ATOM     23  O   UNL     1      -7.367  14.435  68.616  0.00  0.00    -0.284 OA
ATOM     24  C   UNL     1      -5.461  15.722  68.716  0.00  0.00    +0.173 A 
ATOM     25  C   UNL     1      -4.109  15.870  68.878  0.00  0.00    +0.015 A 
ATOM     26  C   UNL     1      -3.472  17.226  68.875  0.00  0.00    +0.034 C 
ATOM     27  C   UNL     1      -3.392  14.751  69.188  0.00  0.00    -0.006 A 
ATOM     28  C   UNL     1      -3.853  13.609  68.544  0.00  0.00    -0.020 A 
ATOM     29  C   UNL     1      -4.300  11.274  65.762  0.00  0.00    +0.090 C 
ATOM     30  C   UNL     1      -2.748  12.577  68.426  0.00  0.00    +0.046 C 
ATOM     31  C   UNL     1      -5.721  10.825  67.694  0.00  0.00    +0.093 C 
ATOM     32  C   UNL     1      -7.314  10.537  67.214  0.00  0.00    +0.089 C 
ATOM     33  C   UNL     1      -7.005   9.025  67.465  0.00  0.00    +0.024 A 
ATOM     34  C   UNL     1      -6.862   8.362  66.238  0.00  0.00    +0.144 A 
ATOM     35  C   UNL     1      -6.278   7.100  66.171  0.00  0.00    +0.050 A 
ATOM     36  C   UNL     1      -5.548   6.609  67.249  0.00  0.00    +0.175 A 
ATOM     37  O   UNL     1      -4.568   5.619  67.394  0.00  0.00    -0.435 OA
ATOM     38  C   UNL     1      -4.216   5.504  68.771  0.00  0.00    +0.429 C 
ATOM     39  O   UNL     1      -5.001   6.538  69.361  0.00  0.00    -0.435 OA
ATOM     40  C   UNL     1      -5.566   7.343  68.397  0.00  0.00    +0.173 A 
ATOM     41  C   UNL     1      -6.244   6.291  64.926  0.00  0.00    +0.038 C 
ATOM     42  S   UNL     1      -8.338  11.063  68.699  0.00  0.00    -0.133 S 
ATOM     43  C   UNL     1      -6.076   8.634  68.324  0.00  0.00    +0.033 A 
ATOM     44  C   UNL     1      -9.587  10.162  69.274  0.00  0.00    +0.089 C 
ATOM     45  C   UNL     1     -11.251   8.819  70.344  0.00  0.00    +0.002 A 
ATOM     46  C   UNL     1     -12.013   9.935  70.682  0.00  0.00    +0.037 A 
ENDROOT
BRANCH   1  48
ATOM     47  C   UNL     1     -13.303  12.213  72.125  0.00  0.00    +0.253 C 
ATOM     48  O   UNL     1     -13.588  10.895  72.285  0.00  0.00    -0.468 OA
ENDBRANCH   1  48
BRANCH  24  49
ATOM     49  O   UNL     1      -6.133  16.894  68.332  0.00  0.00    -0.469 OA
ATOM     50  C   UNL     1      -6.363  16.973  66.924  0.00  0.00    +0.253 C 
ENDBRANCH  24  49
BRANCH  34  51
ATOM     51  O   UNL     1      -7.023   8.986  64.999  0.00  0.00    -0.425 OA
BRANCH  51  52
ATOM     52  C   UNL     1      -8.278   8.930  64.380  0.00  0.00    +0.322 C 
ATOM     53  O   UNL     1      -9.353   8.833  65.003  0.00  0.00    -0.250 OA
ATOM     54  C   UNL     1      -8.314   8.732  62.910  0.00  0.00    +0.122 C 
ENDBRANCH  51  52
ENDBRANCH  34  51
TORSDOF 4
ENDMDL
