MODEL 1
REMARK VINA RESULT:      -6.1      0.000      0.000
REMARK  Name = 
REMARK  8 active torsions:
REMARK  status: ('A' for Active; 'I' for Inactive)
REMARK    1  A    between atoms: C_2  and  N_4
REMARK    2  A    between atoms: N_4  and  C_5
REMARK    3  A    between atoms: N_4  and  C_23
REMARK    4  A    between atoms: C_5  and  C_6
REMARK    5  A    between atoms: C_6  and  C_7
REMARK    6  A    between atoms: C_7  and  C_8
REMARK    7  A    between atoms: C_7  and  C_11
REMARK    8  A    between atoms: C_7  and  C_17
REMARK                            x       y       z     vdW  Elec       q    Type
REMARK                         _______ _______ _______ _____ _____    ______ ____
ROOT
ATOM      1  C   UNL     1     -10.500  15.673  67.681  0.00  0.00    +0.127 C 
ENDROOT
BRANCH   1   2
ATOM      2  C   UNL     1     -10.941  15.024  66.406  0.00  0.00    -0.009 A 
ATOM      3  C   UNL     1     -10.038  14.501  65.507  0.00  0.00    -0.003 A 
ATOM      4  C   UNL     1     -10.449  13.558  64.573  0.00  0.00    -0.000 A 
ATOM      5  C   UNL     1     -11.581  12.802  64.852  0.00  0.00    -0.000 A 
ATOM      6  C   UNL     1     -12.581  13.434  65.581  0.00  0.00    -0.000 A 
ATOM      7  C   UNL     1     -12.186  14.409  66.454  0.00  0.00    -0.003 A 
ENDBRANCH   1   2
BRANCH   1   8
ATOM      8  C   UNL     1     -10.163  17.101  67.482  0.00  0.00    +0.070 A 
ATOM      9  N   UNL     1     -10.324  17.925  68.543  0.00  0.00    -0.247 NA
ATOM     10  C   UNL     1     -10.191  19.249  68.380  0.00  0.00    +0.098 A 
ATOM     11  C   UNL     1     -10.178  19.846  67.129  0.00  0.00    +0.021 A 
ATOM     12  C   UNL     1     -10.430  19.015  66.055  0.00  0.00    +0.003 A 
ATOM     13  C   UNL     1     -10.306  17.663  66.235  0.00  0.00    +0.016 A 
ENDBRANCH   1   8
BRANCH   1  14
ATOM     14  C   UNL     1      -9.294  14.938  68.128  0.00  0.00    +0.269 C 
ATOM     15  O   UNL     1      -8.245  15.617  68.329  0.00  0.00    -0.271 OA
ATOM     16  N   UNL     1      -9.178  13.531  68.141  0.00  0.00    -0.087 NA
ENDBRANCH   1  14
BRANCH   1  17
ATOM     17  C   UNL     1     -11.646  15.549  68.669  0.00  0.00    +0.036 C 
BRANCH  17  18
ATOM     18  C   UNL     1     -11.179  14.809  69.916  0.00  0.00    +0.073 C 
BRANCH  18  19
ATOM     19  N   UNL     1     -12.262  14.004  70.412  0.00  0.00    -0.275 NA
BRANCH  19  20
ATOM     20  C   UNL     1     -11.966  12.596  70.464  0.00  0.00    +0.058 C 
ATOM     21  C   UNL     1     -12.893  11.845  71.410  0.00  0.00    +0.017 C 
ATOM     22  C   UNL     1     -12.103  12.010  69.071  0.00  0.00    +0.017 C 
ENDBRANCH  19  20
BRANCH  19  24
ATOM     23  C   UNL     1     -14.203  15.120  71.397  0.00  0.00    +0.017 C 
ATOM     24  C   UNL     1     -12.860  14.499  71.621  0.00  0.00    +0.058 C 
ATOM     25  C   UNL     1     -11.944  15.351  72.452  0.00  0.00    +0.017 C 
ENDBRANCH  19  24
ENDBRANCH  18  19
ENDBRANCH  17  18
ENDBRANCH   1  17
TORSDOF 8
ENDMDL
MODEL 2
REMARK VINA RESULT:      -6.0      1.844      5.949
REMARK  Name = 
REMARK  8 active torsions:
REMARK  status: ('A' for Active; 'I' for Inactive)
REMARK    1  A    between atoms: C_2  and  N_4
REMARK    2  A    between atoms: N_4  and  C_5
REMARK    3  A    between atoms: N_4  and  C_23
REMARK    4  A    between atoms: C_5  and  C_6
REMARK    5  A    between atoms: C_6  and  C_7
REMARK    6  A    between atoms: C_7  and  C_8
REMARK    7  A    between atoms: C_7  and  C_11
REMARK    8  A    between atoms: C_7  and  C_17
REMARK                            x       y       z     vdW  Elec       q    Type
REMARK                         _______ _______ _______ _____ _____    ______ ____
ROOT
ATOM      1  C   UNL     1     -10.517  14.313  67.084  0.00  0.00    +0.127 C 
ENDROOT
BRANCH   1   2
ATOM      2  C   UNL     1     -11.478  14.296  68.232  0.00  0.00    -0.009 A 
ATOM      3  C   UNL     1     -11.584  13.212  69.075  0.00  0.00    -0.003 A 
ATOM      4  C   UNL     1     -12.142  13.362  70.338  0.00  0.00    -0.000 A 
ATOM      5  C   UNL     1     -12.129  14.624  70.920  0.00  0.00    -0.000 A 
ATOM      6  C   UNL     1     -12.247  15.704  70.055  0.00  0.00    -0.000 A 
ATOM      7  C   UNL     1     -11.757  15.537  68.790  0.00  0.00    -0.003 A 
ENDBRANCH   1   2
BRANCH   1   8
ATOM      8  C   UNL     1     -10.916  13.366  66.019  0.00  0.00    +0.070 A 
ATOM      9  N   UNL     1     -10.110  13.282  64.935  0.00  0.00    -0.247 NA
ATOM     10  C   UNL     1     -10.502  12.566  63.872  0.00  0.00    +0.098 A 
ATOM     11  C   UNL     1     -11.810  12.140  63.704  0.00  0.00    +0.021 A 
ATOM     12  C   UNL     1     -12.723  12.594  64.636  0.00  0.00    +0.003 A 
ATOM     13  C   UNL     1     -12.249  13.094  65.820  0.00  0.00    +0.016 A 
ENDBRANCH   1   8
BRANCH   1  14
ATOM     14  C   UNL     1      -9.202  13.912  67.635  0.00  0.00    +0.269 C 
ATOM     15  O   UNL     1      -8.726  12.804  67.247  0.00  0.00    -0.271 OA
ATOM     16  N   UNL     1      -8.553  14.565  68.706  0.00  0.00    -0.087 NA
ENDBRANCH   1  14
BRANCH   1  17
ATOM     17  C   UNL     1     -10.500  15.728  66.534  0.00  0.00    +0.036 C 
BRANCH  17  18
ATOM     18  C   UNL     1      -9.102  16.076  66.038  0.00  0.00    +0.073 C 
BRANCH  18  19
ATOM     19  N   UNL     1      -8.907  17.495  66.154  0.00  0.00    -0.275 NA
BRANCH  19  20
ATOM     20  C   UNL     1      -9.920  18.162  66.929  0.00  0.00    +0.058 C 
ATOM     21  C   UNL     1      -9.401  18.620  68.286  0.00  0.00    +0.017 C 
ATOM     22  C   UNL     1     -10.416  19.371  66.158  0.00  0.00    +0.017 C 
ENDBRANCH  19  20
BRANCH  19  24
ATOM     23  C   UNL     1      -6.989  18.912  65.609  0.00  0.00    +0.017 C 
ATOM     24  C   UNL     1      -7.572  17.880  66.521  0.00  0.00    +0.058 C 
ATOM     25  C   UNL     1      -6.649  16.721  66.771  0.00  0.00    +0.017 C 
ENDBRANCH  19  24
ENDBRANCH  18  19
ENDBRANCH  17  18
ENDBRANCH   1  17
TORSDOF 8
ENDMDL
MODEL 3
REMARK VINA RESULT:      -5.8      1.543      5.643
REMARK  Name = 
REMARK  8 active torsions:
REMARK  status: ('A' for Active; 'I' for Inactive)
REMARK    1  A    between atoms: C_2  and  N_4
REMARK    2  A    between atoms: N_4  and  C_5
REMARK    3  A    between atoms: N_4  and  C_23
REMARK    4  A    between atoms: C_5  and  C_6
REMARK    5  A    between atoms: C_6  and  C_7
REMARK    6  A    between atoms: C_7  and  C_8
REMARK    7  A    between atoms: C_7  and  C_11
REMARK    8  A    between atoms: C_7  and  C_17
REMARK                            x       y       z     vdW  Elec       q    Type
REMARK                         _______ _______ _______ _____ _____    ______ ____
ROOT
ATOM      1  C   UNL     1     -10.827  14.811  67.979  0.00  0.00    +0.127 C 
ENDROOT
BRANCH   1   2
ATOM      2  C   UNL     1     -11.822  14.521  69.060  0.00  0.00    -0.009 A 
ATOM      3  C   UNL     1     -11.841  13.316  69.725  0.00  0.00    -0.003 A 
ATOM      4  C   UNL     1     -12.458  13.213  70.966  0.00  0.00    -0.000 A 
ATOM      5  C   UNL     1     -12.603  14.365  71.729  0.00  0.00    -0.000 A 
ATOM      6  C   UNL     1     -12.805  15.547  71.029  0.00  0.00    -0.000 A 
ATOM      7  C   UNL     1     -12.254  15.628  69.780  0.00  0.00    -0.003 A 
ENDBRANCH   1   2
BRANCH   1   8
ATOM      8  C   UNL     1     -11.083  14.004  66.765  0.00  0.00    +0.070 A 
ATOM      9  N   UNL     1     -10.125  14.008  65.809  0.00  0.00    -0.247 NA
ATOM     10  C   UNL     1     -10.369  13.430  64.625  0.00  0.00    +0.098 A 
ATOM     11  C   UNL     1     -11.647  13.077  64.219  0.00  0.00    +0.021 A 
ATOM     12  C   UNL     1     -12.678  13.462  65.053  0.00  0.00    +0.003 A 
ATOM     13  C   UNL     1     -12.377  13.810  66.343  0.00  0.00    +0.016 A 
ENDBRANCH   1   8
BRANCH   1  14
ATOM     14  C   UNL     1      -9.498  14.464  68.533  0.00  0.00    +0.269 C 
ATOM     15  O   UNL     1      -9.057  13.302  68.292  0.00  0.00    -0.271 OA
ATOM     16  N   UNL     1      -8.794  15.252  69.471  0.00  0.00    -0.087 NA
ENDBRANCH   1  14
BRANCH   1  17
ATOM     17  C   UNL     1     -10.942  16.289  67.648  0.00  0.00    +0.036 C 
BRANCH  17  18
ATOM     18  C   UNL     1      -9.712  16.744  66.873  0.00  0.00    +0.073 C 
BRANCH  18  19
ATOM     19  N   UNL     1      -9.250  17.989  67.425  0.00  0.00    -0.275 NA
BRANCH  19  20
ATOM     20  C   UNL     1      -7.920  18.353  67.011  0.00  0.00    +0.058 C 
ATOM     21  C   UNL     1      -6.976  18.534  68.192  0.00  0.00    +0.017 C 
ATOM     22  C   UNL     1      -7.371  17.268  66.103  0.00  0.00    +0.017 C 
ENDBRANCH  19  20
BRANCH  19  24
ATOM     23  C   UNL     1     -10.179  19.717  65.964  0.00  0.00    +0.017 C 
ATOM     24  C   UNL     1     -10.190  19.070  67.313  0.00  0.00    +0.058 C 
ATOM     25  C   UNL     1     -10.125  20.056  68.443  0.00  0.00    +0.017 C 
ENDBRANCH  19  24
ENDBRANCH  18  19
ENDBRANCH  17  18
ENDBRANCH   1  17
TORSDOF 8
ENDMDL
MODEL 4
REMARK VINA RESULT:      -5.7      1.662      5.634
REMARK  Name = 
REMARK  8 active torsions:
REMARK  status: ('A' for Active; 'I' for Inactive)
REMARK    1  A    between atoms: C_2  and  N_4
REMARK    2  A    between atoms: N_4  and  C_5
REMARK    3  A    between atoms: N_4  and  C_23
REMARK    4  A    between atoms: C_5  and  C_6
REMARK    5  A    between atoms: C_6  and  C_7
REMARK    6  A    between atoms: C_7  and  C_8
REMARK    7  A    between atoms: C_7  and  C_11
REMARK    8  A    between atoms: C_7  and  C_17
REMARK                            x       y       z     vdW  Elec       q    Type
REMARK                         _______ _______ _______ _____ _____    ______ ____
ROOT
ATOM      1  C   UNL     1     -10.861  15.328  68.317  0.00  0.00    +0.127 C 
ENDROOT
BRANCH   1   2
ATOM      2  C   UNL     1     -11.874  14.779  69.273  0.00  0.00    -0.009 A 
ATOM      3  C   UNL     1     -11.798  13.490  69.751  0.00  0.00    -0.003 A 
ATOM      4  C   UNL     1     -12.464  13.139  70.918  0.00  0.00    -0.000 A 
ATOM      5  C   UNL     1     -12.773  14.140  71.831  0.00  0.00    -0.000 A 
ATOM      6  C   UNL     1     -13.064  15.390  71.301  0.00  0.00    -0.000 A 
ATOM      7  C   UNL     1     -12.460  15.715  70.118  0.00  0.00    -0.003 A 
ENDBRANCH   1   2
BRANCH   1   8
ATOM      8  C   UNL     1     -11.114  14.878  66.930  0.00  0.00    +0.070 A 
ATOM      9  N   UNL     1     -10.827  15.752  65.937  0.00  0.00    -0.247 NA
ATOM     10  C   UNL     1     -11.184  15.463  64.678  0.00  0.00    +0.098 A 
ATOM     11  C   UNL     1     -12.083  14.453  64.372  0.00  0.00    +0.021 A 
ATOM     12  C   UNL     1     -12.687  13.831  65.447  0.00  0.00    +0.003 A 
ATOM     13  C   UNL     1     -12.118  13.971  66.685  0.00  0.00    +0.016 A 
ENDBRANCH   1   8
BRANCH   1  14
ATOM     14  C   UNL     1      -9.545  14.823  68.770  0.00  0.00    +0.269 C 
ATOM     15  O   UNL     1      -9.139  15.205  69.907  0.00  0.00    -0.271 OA
ATOM     16  N   UNL     1      -8.631  14.128  67.946  0.00  0.00    -0.087 NA
ENDBRANCH   1  14
BRANCH   1  17
ATOM     17  C   UNL     1     -10.950  16.843  68.390  0.00  0.00    +0.036 C 
BRANCH  17  18
ATOM     18  C   UNL     1      -9.582  17.428  68.718  0.00  0.00    +0.073 C 
BRANCH  18  19
ATOM     19  N   UNL     1      -9.075  18.104  67.555  0.00  0.00    -0.275 NA
BRANCH  19  20
ATOM     20  C   UNL     1      -9.475  19.484  67.461  0.00  0.00    +0.058 C 
ATOM     21  C   UNL     1      -8.285  20.423  67.325  0.00  0.00    +0.017 C 
ATOM     22  C   UNL     1     -10.378  19.655  66.253  0.00  0.00    +0.017 C 
ENDBRANCH  19  20
BRANCH  19  24
ATOM     23  C   UNL     1      -7.387  17.051  66.132  0.00  0.00    +0.017 C 
ATOM     24  C   UNL     1      -7.669  17.909  67.325  0.00  0.00    +0.058 C 
ATOM     25  C   UNL     1      -6.901  17.496  68.547  0.00  0.00    +0.017 C 
ENDBRANCH  19  24
ENDBRANCH  18  19
ENDBRANCH  17  18
ENDBRANCH   1  17
TORSDOF 8
ENDMDL
MODEL 5
REMARK VINA RESULT:      -5.7      1.587      5.306
REMARK  Name = 
REMARK  8 active torsions:
REMARK  status: ('A' for Active; 'I' for Inactive)
REMARK    1  A    between atoms: C_2  and  N_4
REMARK    2  A    between atoms: N_4  and  C_5
REMARK    3  A    between atoms: N_4  and  C_23
REMARK    4  A    between atoms: C_5  and  C_6
REMARK    5  A    between atoms: C_6  and  C_7
REMARK    6  A    between atoms: C_7  and  C_8
REMARK    7  A    between atoms: C_7  and  C_11
REMARK    8  A    between atoms: C_7  and  C_17
REMARK                            x       y       z     vdW  Elec       q    Type
REMARK                         _______ _______ _______ _____ _____    ______ ____
ROOT
ATOM      1  C   UNL     1     -10.102  15.931  67.799  0.00  0.00    +0.127 C 
ENDROOT
BRANCH   1   2
ATOM      2  C   UNL     1     -10.326  17.410  67.723  0.00  0.00    -0.009 A 
ATOM      3  C   UNL     1      -9.709  18.283  68.589  0.00  0.00    -0.003 A 
ATOM      4  C   UNL     1      -9.588  19.627  68.256  0.00  0.00    -0.000 A 
ATOM      5  C   UNL     1      -9.627  19.981  66.913  0.00  0.00    -0.000 A 
ATOM      6  C   UNL     1     -10.440  19.208  66.095  0.00  0.00    -0.000 A 
ATOM      7  C   UNL     1     -10.614  17.901  66.455  0.00  0.00    -0.003 A 
ENDBRANCH   1   2
BRANCH   1   8
ATOM      8  C   UNL     1     -10.763  15.335  68.980  0.00  0.00    +0.070 A 
ATOM      9  N   UNL     1     -11.227  14.070  68.854  0.00  0.00    -0.247 NA
ATOM     10  C   UNL     1     -11.974  13.538  69.832  0.00  0.00    +0.098 A 
ATOM     11  C   UNL     1     -12.538  14.306  70.839  0.00  0.00    +0.021 A 
ATOM     12  C   UNL     1     -12.388  15.673  70.717  0.00  0.00    +0.003 A 
ATOM     13  C   UNL     1     -11.424  16.150  69.870  0.00  0.00    +0.016 A 
ENDBRANCH   1   8
BRANCH   1  14
ATOM     14  C   UNL     1      -8.637  15.737  67.900  0.00  0.00    +0.269 C 
ATOM     15  O   UNL     1      -8.199  15.188  68.954  0.00  0.00    -0.271 OA
ATOM     16  N   UNL     1      -7.694  16.302  67.014  0.00  0.00    -0.087 NA
ENDBRANCH   1  14
BRANCH   1  17
ATOM     17  C   UNL     1     -10.674  15.324  66.529  0.00  0.00    +0.036 C 
BRANCH  17  18
ATOM     18  C   UNL     1      -9.712  14.281  65.974  0.00  0.00    +0.073 C 
BRANCH  18  19
ATOM     19  N   UNL     1     -10.463  13.120  65.580  0.00  0.00    -0.275 NA
BRANCH  19  20
ATOM     20  C   UNL     1     -10.694  13.027  64.162  0.00  0.00    +0.058 C 
ATOM     21  C   UNL     1     -10.040  11.796  63.550  0.00  0.00    +0.017 C 
ATOM     22  C   UNL     1     -12.189  12.969  63.908  0.00  0.00    +0.017 C 
ENDBRANCH  19  20
BRANCH  19  24
ATOM     23  C   UNL     1     -11.062  11.144  66.892  0.00  0.00    +0.017 C 
ATOM     24  C   UNL     1      -9.994  11.890  66.156  0.00  0.00    +0.058 C 
ATOM     25  C   UNL     1      -8.720  12.029  66.940  0.00  0.00    +0.017 C 
ENDBRANCH  19  24
ENDBRANCH  18  19
ENDBRANCH  17  18
ENDBRANCH   1  17
TORSDOF 8
ENDMDL
MODEL 6
REMARK VINA RESULT:      -5.7      2.593      6.435
REMARK  Name = 
REMARK  8 active torsions:
REMARK  status: ('A' for Active; 'I' for Inactive)
REMARK    1  A    between atoms: C_2  and  N_4
REMARK    2  A    between atoms: N_4  and  C_5
REMARK    3  A    between atoms: N_4  and  C_23
REMARK    4  A    between atoms: C_5  and  C_6
REMARK    5  A    between atoms: C_6  and  C_7
REMARK    6  A    between atoms: C_7  and  C_8
REMARK    7  A    between atoms: C_7  and  C_11
REMARK    8  A    between atoms: C_7  and  C_17
REMARK                            x       y       z     vdW  Elec       q    Type
REMARK                         _______ _______ _______ _____ _____    ______ ____
ROOT
ATOM      1  C   UNL     1      -9.701  16.139  67.222  0.00  0.00    +0.127 C 
ENDROOT
BRANCH   1   2
ATOM      2  C   UNL     1     -10.198  17.542  67.380  0.00  0.00    -0.009 A 
ATOM      3  C   UNL     1      -9.911  18.293  68.498  0.00  0.00    -0.003 A 
ATOM      4  C   UNL     1     -10.006  19.678  68.452  0.00  0.00    -0.000 A 
ATOM      5  C   UNL     1      -9.900  20.307  67.218  0.00  0.00    -0.000 A 
ATOM      6  C   UNL     1     -10.403  19.612  66.126  0.00  0.00    -0.000 A 
ATOM      7  C   UNL     1     -10.371  18.247  66.195  0.00  0.00    -0.003 A 
ENDBRANCH   1   2
BRANCH   1   8
ATOM      8  C   UNL     1     -10.575  15.344  66.330  0.00  0.00    +0.070 A 
ATOM      9  N   UNL     1     -11.697  14.818  66.874  0.00  0.00    -0.247 NA
ATOM     10  C   UNL     1     -12.440  13.960  66.162  0.00  0.00    +0.098 A 
ATOM     11  C   UNL     1     -11.974  13.358  65.003  0.00  0.00    +0.021 A 
ATOM     12  C   UNL     1     -10.652  13.598  64.681  0.00  0.00    +0.003 A 
ATOM     13  C   UNL     1     -10.020  14.658  65.274  0.00  0.00    +0.016 A 
ENDBRANCH   1   8
BRANCH   1  14
ATOM     14  C   UNL     1      -9.702  15.541  68.577  0.00  0.00    +0.269 C 
ATOM     15  O   UNL     1      -9.061  14.460  68.732  0.00  0.00    -0.271 OA
ATOM     16  N   UNL     1     -10.529  15.972  69.638  0.00  0.00    -0.087 NA
ENDBRANCH   1  14
BRANCH   1  17
ATOM     17  C   UNL     1      -8.304  16.220  66.633  0.00  0.00    +0.036 C 
BRANCH  17  18
ATOM     18  C   UNL     1      -7.317  16.679  67.699  0.00  0.00    +0.073 C 
BRANCH  18  19
ATOM     19  N   UNL     1      -6.807  17.972  67.334  0.00  0.00    -0.275 NA
BRANCH  19  20
ATOM     20  C   UNL     1      -5.887  18.528  68.292  0.00  0.00    +0.058 C 
ATOM     21  C   UNL     1      -6.326  19.900  68.786  0.00  0.00    +0.017 C 
ATOM     22  C   UNL     1      -5.780  17.588  69.478  0.00  0.00    +0.017 C 
ENDBRANCH  19  20
BRANCH  19  24
ATOM     23  C   UNL     1      -4.883  17.711  65.846  0.00  0.00    +0.017 C 
ATOM     24  C   UNL     1      -6.331  18.060  65.981  0.00  0.00    +0.058 C 
ATOM     25  C   UNL     1      -6.700  19.339  65.285  0.00  0.00    +0.017 C 
ENDBRANCH  19  24
ENDBRANCH  18  19
ENDBRANCH  17  18
ENDBRANCH   1  17
TORSDOF 8
ENDMDL
MODEL 7
REMARK VINA RESULT:      -5.5      2.315      4.720
REMARK  Name = 
REMARK  8 active torsions:
REMARK  status: ('A' for Active; 'I' for Inactive)
REMARK    1  A    between atoms: C_2  and  N_4
REMARK    2  A    between atoms: N_4  and  C_5
REMARK    3  A    between atoms: N_4  and  C_23
REMARK    4  A    between atoms: C_5  and  C_6
REMARK    5  A    between atoms: C_6  and  C_7
REMARK    6  A    between atoms: C_7  and  C_8
REMARK    7  A    between atoms: C_7  and  C_11
REMARK    8  A    between atoms: C_7  and  C_17
REMARK                            x       y       z     vdW  Elec       q    Type
REMARK                         _______ _______ _______ _____ _____    ______ ____
ROOT
ATOM      1  C   UNL     1     -10.215  16.118  67.359  0.00  0.00    +0.127 C 
ENDROOT
BRANCH   1   2
ATOM      2  C   UNL     1      -8.815  15.709  67.701  0.00  0.00    -0.009 A 
ATOM      3  C   UNL     1      -7.794  15.774  66.779  0.00  0.00    -0.003 A 
ATOM      4  C   UNL     1      -6.472  15.802  67.204  0.00  0.00    -0.000 A 
ATOM      5  C   UNL     1      -6.200  16.254  68.489  0.00  0.00    -0.000 A 
ATOM      6  C   UNL     1      -7.158  15.978  69.456  0.00  0.00    -0.000 A 
ATOM      7  C   UNL     1      -8.455  15.886  69.031  0.00  0.00    -0.003 A 
ENDBRANCH   1   2
BRANCH   1   8
ATOM      8  C   UNL     1     -10.365  17.590  67.327  0.00  0.00    +0.070 A 
ATOM      9  N   UNL     1     -10.365  18.183  66.110  0.00  0.00    -0.247 NA
ATOM     10  C   UNL     1     -10.335  19.520  66.024  0.00  0.00    +0.098 A 
ATOM     11  C   UNL     1     -10.016  20.327  67.106  0.00  0.00    +0.021 A 
ATOM     12  C   UNL     1      -9.612  19.675  68.254  0.00  0.00    +0.003 A 
ATOM     13  C   UNL     1      -9.899  18.341  68.380  0.00  0.00    +0.016 A 
ENDBRANCH   1   8
BRANCH   1  14
ATOM     14  C   UNL     1     -11.083  15.556  68.419  0.00  0.00    +0.269 C 
ATOM     15  O   UNL     1     -12.092  16.240  68.762  0.00  0.00    -0.271 OA
ATOM     16  N   UNL     1     -10.754  14.431  69.206  0.00  0.00    -0.087 NA
ENDBRANCH   1  14
BRANCH   1  17
ATOM     17  C   UNL     1     -10.531  15.539  65.991  0.00  0.00    +0.036 C 
BRANCH  17  18
ATOM     18  C   UNL     1     -11.136  14.150  66.143  0.00  0.00    +0.073 C 
BRANCH  18  19
ATOM     19  N   UNL     1     -10.292  13.199  65.471  0.00  0.00    -0.275 NA
BRANCH  19  20
ATOM     20  C   UNL     1     -10.049  11.998  66.226  0.00  0.00    +0.058 C 
ATOM     21  C   UNL     1      -8.808  12.107  67.103  0.00  0.00    +0.017 C 
ATOM     22  C   UNL     1     -11.252  11.717  67.108  0.00  0.00    +0.017 C 
ENDBRANCH  19  20
BRANCH  19  24
ATOM     23  C   UNL     1     -12.136  13.057  63.869  0.00  0.00    +0.017 C 
ATOM     24  C   UNL     1     -10.663  12.941  64.107  0.00  0.00    +0.058 C 
ATOM     25  C   UNL     1     -10.069  11.684  63.539  0.00  0.00    +0.017 C 
ENDBRANCH  19  24
ENDBRANCH  18  19
ENDBRANCH  17  18
ENDBRANCH   1  17
TORSDOF 8
ENDMDL
MODEL 8
REMARK VINA RESULT:      -5.4      2.429      5.899
REMARK  Name = 
REMARK  8 active torsions:
REMARK  status: ('A' for Active; 'I' for Inactive)
REMARK    1  A    between atoms: C_2  and  N_4
REMARK    2  A    between atoms: N_4  and  C_5
REMARK    3  A    between atoms: N_4  and  C_23
REMARK    4  A    between atoms: C_5  and  C_6
REMARK    5  A    between atoms: C_6  and  C_7
REMARK    6  A    between atoms: C_7  and  C_8
REMARK    7  A    between atoms: C_7  and  C_11
REMARK    8  A    between atoms: C_7  and  C_17
REMARK                            x       y       z     vdW  Elec       q    Type
REMARK                         _______ _______ _______ _____ _____    ______ ____
ROOT
ATOM      1  C   UNL     1     -10.341  11.802  67.364  0.00  0.00    +0.127 C 
ENDROOT
BRANCH   1   2
ATOM      2  C   UNL     1     -11.437  11.871  68.382  0.00  0.00    -0.009 A 
ATOM      3  C   UNL     1     -11.818  10.770  69.115  0.00  0.00    -0.003 A 
ATOM      4  C   UNL     1     -12.508  10.931  70.309  0.00  0.00    -0.000 A 
ATOM      5  C   UNL     1     -12.378  12.136  70.990  0.00  0.00    -0.000 A 
ATOM      6  C   UNL     1     -12.214  13.271  70.208  0.00  0.00    -0.000 A 
ATOM      7  C   UNL     1     -11.592  13.105  69.001  0.00  0.00    -0.003 A 
ENDBRANCH   1   2
BRANCH   1   8
ATOM      8  C   UNL     1     -10.826  12.153  66.010  0.00  0.00    +0.070 A 
ATOM      9  N   UNL     1     -12.156  12.362  65.867  0.00  0.00    -0.247 NA
ATOM     10  C   UNL     1     -12.673  12.523  64.641  0.00  0.00    +0.098 A 
ATOM     11  C   UNL     1     -11.969  12.204  63.490  0.00  0.00    +0.021 A 
ATOM     12  C   UNL     1     -10.743  11.596  63.675  0.00  0.00    +0.003 A 
ATOM     13  C   UNL     1     -10.152  11.684  64.907  0.00  0.00    +0.016 A 
ENDBRANCH   1   8
BRANCH   1  14
ATOM     14  C   UNL     1      -9.856  10.403  67.368  0.00  0.00    +0.269 C 
ATOM     15  O   UNL     1      -8.664  10.206  67.749  0.00  0.00    -0.271 OA
ATOM     16  N   UNL     1     -10.547   9.317  66.787  0.00  0.00    -0.087 NA
ENDBRANCH   1  14
BRANCH   1  17
ATOM     17  C   UNL     1      -9.265  12.783  67.794  0.00  0.00    +0.036 C 
BRANCH  17  18
ATOM     18  C   UNL     1      -9.059  13.836  66.712  0.00  0.00    +0.073 C 
BRANCH  18  19
ATOM     19  N   UNL     1      -8.933  15.125  67.335  0.00  0.00    -0.275 NA
BRANCH  19  20
ATOM     20  C   UNL     1      -7.580  15.613  67.397  0.00  0.00    +0.058 C 
ATOM     21  C   UNL     1      -7.352  16.804  66.476  0.00  0.00    +0.017 C 
ATOM     22  C   UNL     1      -7.270  16.028  68.824  0.00  0.00    +0.017 C 
ENDBRANCH  19  20
BRANCH  19  24
ATOM     23  C   UNL     1     -10.786  16.611  67.918  0.00  0.00    +0.017 C 
ATOM     24  C   UNL     1      -9.865  16.107  66.853  0.00  0.00    +0.058 C 
ATOM     25  C   UNL     1     -10.578  15.707  65.593  0.00  0.00    +0.017 C 
ENDBRANCH  19  24
ENDBRANCH  18  19
ENDBRANCH  17  18
ENDBRANCH   1  17
TORSDOF 8
ENDMDL
MODEL 9
REMARK VINA RESULT:      -5.3      2.944      5.652
REMARK  Name = 
REMARK  8 active torsions:
REMARK  status: ('A' for Active; 'I' for Inactive)
REMARK    1  A    between atoms: C_2  and  N_4
REMARK    2  A    between atoms: N_4  and  C_5
REMARK    3  A    between atoms: N_4  and  C_23
REMARK    4  A    between atoms: C_5  and  C_6
REMARK    5  A    between atoms: C_6  and  C_7
REMARK    6  A    between atoms: C_7  and  C_8
REMARK    7  A    between atoms: C_7  and  C_11
REMARK    8  A    between atoms: C_7  and  C_17
REMARK                            x       y       z     vdW  Elec       q    Type
REMARK                         _______ _______ _______ _____ _____    ______ ____
ROOT
ATOM      1  C   UNL     1      -9.863  16.056  66.515  0.00  0.00    +0.127 C 
ENDROOT
BRANCH   1   2
ATOM      2  C   UNL     1     -10.385  15.063  67.506  0.00  0.00    -0.009 A 
ATOM      3  C   UNL     1     -11.721  14.736  67.570  0.00  0.00    -0.003 A 
ATOM      4  C   UNL     1     -12.120  13.549  68.173  0.00  0.00    -0.000 A 
ATOM      5  C   UNL     1     -11.204  12.508  68.253  0.00  0.00    -0.000 A 
ATOM      6  C   UNL     1      -9.872  12.869  68.411  0.00  0.00    -0.000 A 
ATOM      7  C   UNL     1      -9.490  14.067  67.875  0.00  0.00    -0.003 A 
ENDBRANCH   1   2
BRANCH   1   8
ATOM      8  C   UNL     1     -10.182  17.447  66.909  0.00  0.00    +0.070 A 
ATOM      9  N   UNL     1     -10.135  18.389  65.939  0.00  0.00    -0.247 NA
ATOM     10  C   UNL     1     -10.255  19.683  66.266  0.00  0.00    +0.098 A 
ATOM     11  C   UNL     1     -10.141  20.134  67.572  0.00  0.00    +0.021 A 
ATOM     12  C   UNL     1      -9.775  19.190  68.511  0.00  0.00    +0.003 A 
ATOM     13  C   UNL     1      -9.913  17.865  68.191  0.00  0.00    +0.016 A 
ENDBRANCH   1   8
BRANCH   1  14
ATOM     14  C   UNL     1     -10.521  15.744  65.225  0.00  0.00    +0.269 C 
ATOM     15  O   UNL     1     -10.245  14.630  64.691  0.00  0.00    -0.271 OA
ATOM     16  N   UNL     1     -11.256  16.676  64.459  0.00  0.00    -0.087 NA
ENDBRANCH   1  14
BRANCH   1  17
ATOM     17  C   UNL     1      -8.356  15.875  66.448  0.00  0.00    +0.036 C 
BRANCH  17  18
ATOM     18  C   UNL     1      -7.699  17.159  65.959  0.00  0.00    +0.073 C 
BRANCH  18  19
ATOM     19  N   UNL     1      -6.362  17.225  66.481  0.00  0.00    -0.275 NA
BRANCH  19  20
ATOM     20  C   UNL     1      -5.686  18.465  66.202  0.00  0.00    +0.058 C 
ATOM     21  C   UNL     1      -4.409  18.259  65.398  0.00  0.00    +0.017 C 
ATOM     22  C   UNL     1      -6.619  19.371  65.421  0.00  0.00    +0.017 C 
ENDBRANCH  19  20
BRANCH  19  24
ATOM     23  C   UNL     1      -6.224  17.969  68.808  0.00  0.00    +0.017 C 
ATOM     24  C   UNL     1      -6.244  16.816  67.854  0.00  0.00    +0.058 C 
ATOM     25  C   UNL     1      -5.146  15.822  68.104  0.00  0.00    +0.017 C 
ENDBRANCH  19  24
ENDBRANCH  18  19
ENDBRANCH  17  18
ENDBRANCH   1  17
TORSDOF 8
ENDMDL
