MODEL 1
REMARK VINA RESULT:      -6.7      0.000      0.000
REMARK  Name = 
REMARK  2 active torsions:
REMARK  status: ('A' for Active; 'I' for Inactive)
REMARK    1  A    between atoms: C_3  and  C_4
REMARK    2  A    between atoms: C_9  and  N_10
REMARK                            x       y       z     vdW  Elec       q    Type
REMARK                         _______ _______ _______ _____ _____    ______ ____
ROOT
ATOM      1  N   UNL     1     -10.969  15.832  67.341  0.00  0.00    -0.292 N 
ATOM      2  C   UNL     1     -11.190  14.825  66.456  0.00  0.00    +0.171 A 
ATOM      3  N   UNL     1     -11.720  14.771  65.225  0.00  0.00    -0.192 NA
ATOM      4  C   UNL     1     -12.235  13.609  64.743  0.00  0.00    +0.261 A 
ATOM      5  N   UNL     1     -12.355  12.496  65.506  0.00  0.00    -0.171 NA
ATOM      6  C   UNL     1     -11.635  12.440  66.653  0.00  0.00    +0.302 A 
ATOM      7  O   UNL     1     -11.918  11.506  67.461  0.00  0.00    -0.263 OA
ATOM      8  N   UNL     1     -12.637  13.479  63.387  0.00  0.00    -0.086 NA
ATOM      9  C   UNL     1     -11.093  13.618  67.125  0.00  0.00    +0.175 A 
ATOM     10  N   UNL     1     -10.812  13.941  68.396  0.00  0.00    -0.217 NA
ATOM     11  C   UNL     1     -10.744  15.288  68.484  0.00  0.00    +0.180 A 
ENDROOT
BRANCH   1  14
ATOM     12  C   UNL     1      -8.525  15.946  66.688  0.00  0.00    -0.007 C 
ATOM     13  C   UNL     1      -8.839  16.540  66.462  0.00  0.00    -0.019 C 
ATOM     14  C   UNL     1     -10.327  17.182  66.775  0.00  0.00    +0.110 C 
ATOM     15  C   UNL     1      -9.916  17.696  68.299  0.00  0.00    +0.060 C 
ATOM     16  C   UNL     1      -8.289  17.914  68.133  0.00  0.00    +0.160 C 
ATOM     17  O   UNL     1      -8.403  19.432  68.335  0.00  0.00    -0.223 OA
ATOM     18  C   UNL     1      -8.405  18.090  66.413  0.00  0.00    +0.083 C 
BRANCH  18  19
ATOM     19  C   UNL     1      -6.820  17.736  66.206  0.00  0.00    +0.189 C 
ATOM     20  O   UNL     1      -6.522  18.364  65.010  0.00  0.00    -0.220 OA
ENDBRANCH  18  19
ENDBRANCH   1  14
TORSDOF 2
ENDMDL
MODEL 2
REMARK VINA RESULT:      -6.7      3.184      4.743
REMARK  Name = 
REMARK  2 active torsions:
REMARK  status: ('A' for Active; 'I' for Inactive)
REMARK    1  A    between atoms: C_3  and  C_4
REMARK    2  A    between atoms: C_9  and  N_10
REMARK                            x       y       z     vdW  Elec       q    Type
REMARK                         _______ _______ _______ _____ _____    ______ ____
ROOT
ATOM      1  N   UNL     1     -11.020  14.424  69.188  0.00  0.00    -0.292 N 
ATOM      2  C   UNL     1     -12.060  14.447  70.061  0.00  0.00    +0.171 A 
ATOM      3  N   UNL     1     -12.572  15.386  70.871  0.00  0.00    -0.192 NA
ATOM      4  C   UNL     1     -13.311  15.037  71.957  0.00  0.00    +0.261 A 
ATOM      5  N   UNL     1     -13.465  13.748  72.347  0.00  0.00    -0.171 NA
ATOM      6  C   UNL     1     -13.166  12.780  71.447  0.00  0.00    +0.302 A 
ATOM      7  O   UNL     1     -13.100  11.593  71.886  0.00  0.00    -0.263 OA
ATOM      8  N   UNL     1     -14.012  16.005  72.723  0.00  0.00    -0.086 NA
ATOM      9  C   UNL     1     -12.437  13.144  70.334  0.00  0.00    +0.175 A 
ATOM     10  N   UNL     1     -11.609  12.377  69.608  0.00  0.00    -0.217 NA
ATOM     11  C   UNL     1     -10.770  13.190  68.928  0.00  0.00    +0.180 A 
ENDROOT
BRANCH   1  14
ATOM     12  C   UNL     1     -11.636  14.223  66.739  0.00  0.00    -0.007 C 
ATOM     13  C   UNL     1     -11.524  14.908  66.880  0.00  0.00    -0.019 C 
ATOM     14  C   UNL     1     -10.868  15.666  68.192  0.00  0.00    +0.110 C 
ATOM     15  C   UNL     1      -9.309  15.243  67.806  0.00  0.00    +0.060 C 
ATOM     16  C   UNL     1      -9.417  15.096  66.166  0.00  0.00    +0.160 C 
ATOM     17  O   UNL     1      -8.482  16.291  65.931  0.00  0.00    -0.223 OA
ATOM     18  C   UNL     1     -10.815  16.116  66.084  0.00  0.00    +0.083 C 
BRANCH  18  19
ATOM     19  C   UNL     1     -11.240  15.522  64.618  0.00  0.00    +0.189 C 
ATOM     20  O   UNL     1     -11.617  16.660  63.928  0.00  0.00    -0.220 OA
ENDBRANCH  18  19
ENDBRANCH   1  14
TORSDOF 2
ENDMDL
MODEL 3
REMARK VINA RESULT:      -6.6      2.621      4.144
REMARK  Name = 
REMARK  2 active torsions:
REMARK  status: ('A' for Active; 'I' for Inactive)
REMARK    1  A    between atoms: C_3  and  C_4
REMARK    2  A    between atoms: C_9  and  N_10
REMARK                            x       y       z     vdW  Elec       q    Type
REMARK                         _______ _______ _______ _____ _____    ______ ____
ROOT
ATOM      1  N   UNL     1     -11.489  13.283  67.602  0.00  0.00    -0.292 N 
ATOM      2  C   UNL     1     -11.448  13.760  66.331  0.00  0.00    +0.171 A 
ATOM      3  N   UNL     1     -11.482  14.992  65.800  0.00  0.00    -0.192 NA
ATOM      4  C   UNL     1     -11.878  15.181  64.514  0.00  0.00    +0.261 A 
ATOM      5  N   UNL     1     -12.368  14.175  63.749  0.00  0.00    -0.171 NA
ATOM      6  C   UNL     1     -12.137  12.904  64.159  0.00  0.00    +0.302 A 
ATOM      7  O   UNL     1     -12.780  11.987  63.568  0.00  0.00    -0.263 OA
ATOM      8  N   UNL     1     -11.753  16.442  63.874  0.00  0.00    -0.086 NA
ATOM      9  C   UNL     1     -11.712  12.719  65.459  0.00  0.00    +0.175 A 
ATOM     10  N   UNL     1     -11.900  11.644  66.239  0.00  0.00    -0.217 NA
ATOM     11  C   UNL     1     -11.754  12.027  67.527  0.00  0.00    +0.180 A 
ENDROOT
BRANCH   1  14
ATOM     12  C   UNL     1     -12.496  14.350  69.667  0.00  0.00    -0.007 C 
ATOM     13  C   UNL     1     -11.792  14.338  69.749  0.00  0.00    -0.019 C 
ATOM     14  C   UNL     1     -10.568  14.008  68.691  0.00  0.00    +0.110 C 
ATOM     15  C   UNL     1     -10.692  15.468  67.909  0.00  0.00    +0.060 C 
ATOM     16  C   UNL     1     -11.305  16.420  69.109  0.00  0.00    +0.160 C 
ATOM     17  O   UNL     1     -10.031  17.276  69.173  0.00  0.00    -0.223 OA
ATOM     18  C   UNL     1     -10.715  15.371  70.355  0.00  0.00    +0.083 C 
BRANCH  18  19
ATOM     19  C   UNL     1     -11.773  15.974  71.451  0.00  0.00    +0.189 C 
ATOM     20  O   UNL     1     -11.447  15.278  72.601  0.00  0.00    -0.220 OA
ENDBRANCH  18  19
ENDBRANCH   1  14
TORSDOF 2
ENDMDL
MODEL 4
REMARK VINA RESULT:      -6.6      2.457      5.872
REMARK  Name = 
REMARK  2 active torsions:
REMARK  status: ('A' for Active; 'I' for Inactive)
REMARK    1  A    between atoms: C_3  and  C_4
REMARK    2  A    between atoms: C_9  and  N_10
REMARK                            x       y       z     vdW  Elec       q    Type
REMARK                         _______ _______ _______ _____ _____    ______ ____
ROOT
ATOM      1  N   UNL     1      -9.840  16.125  67.210  0.00  0.00    -0.292 N 
ATOM      2  C   UNL     1      -9.229  17.133  66.534  0.00  0.00    +0.171 A 
ATOM      3  N   UNL     1      -8.040  17.256  65.926  0.00  0.00    -0.192 NA
ATOM      4  C   UNL     1      -7.489  18.482  65.722  0.00  0.00    +0.261 A 
ATOM      5  N   UNL     1      -8.036  19.616  66.222  0.00  0.00    -0.171 NA
ATOM      6  C   UNL     1      -9.327  19.563  66.631  0.00  0.00    +0.302 A 
ATOM      7  O   UNL     1      -9.757  20.553  67.295  0.00  0.00    -0.263 OA
ATOM      8  N   UNL     1      -6.326  18.652  64.926  0.00  0.00    -0.086 NA
ATOM      9  C   UNL     1      -9.890  18.316  66.813  0.00  0.00    +0.175 A 
ATOM     10  N   UNL     1     -10.883  17.978  67.648  0.00  0.00    -0.217 NA
ATOM     11  C   UNL     1     -10.819  16.644  67.861  0.00  0.00    +0.180 A 
ENDROOT
BRANCH   1  14
ATOM     12  C   UNL     1     -11.200  15.552  65.151  0.00  0.00    -0.007 C 
ATOM     13  C   UNL     1     -10.749  15.018  65.271  0.00  0.00    -0.019 C 
ATOM     14  C   UNL     1      -9.783  14.664  66.562  0.00  0.00    +0.110 C 
ATOM     15  C   UNL     1     -11.040  14.131  67.507  0.00  0.00    +0.060 C 
ATOM     16  C   UNL     1     -12.106  13.618  66.357  0.00  0.00    +0.160 C 
ATOM     17  O   UNL     1     -11.981  12.153  66.799  0.00  0.00    -0.223 OA
ATOM     18  C   UNL     1     -10.858  13.414  65.173  0.00  0.00    +0.083 C 
BRANCH  18  19
ATOM     19  C   UNL     1     -11.933  13.470  63.938  0.00  0.00    +0.189 C 
ATOM     20  O   UNL     1     -11.641  12.318  63.230  0.00  0.00    -0.220 OA
ENDBRANCH  18  19
ENDBRANCH   1  14
TORSDOF 2
ENDMDL
MODEL 5
REMARK VINA RESULT:      -6.6      3.687      6.269
REMARK  Name = 
REMARK  2 active torsions:
REMARK  status: ('A' for Active; 'I' for Inactive)
REMARK    1  A    between atoms: C_3  and  C_4
REMARK    2  A    between atoms: C_9  and  N_10
REMARK                            x       y       z     vdW  Elec       q    Type
REMARK                         _______ _______ _______ _____ _____    ______ ____
ROOT
ATOM      1  N   UNL     1     -11.760  15.162  69.343  0.00  0.00    -0.292 N 
ATOM      2  C   UNL     1     -10.979  16.162  68.858  0.00  0.00    +0.171 A 
ATOM      3  N   UNL     1     -11.226  17.410  68.433  0.00  0.00    -0.192 NA
ATOM      4  C   UNL     1     -10.366  18.038  67.590  0.00  0.00    +0.261 A 
ATOM      5  N   UNL     1      -9.297  17.410  67.042  0.00  0.00    -0.171 NA
ATOM      6  C   UNL     1      -8.890  16.250  67.613  0.00  0.00    +0.302 A 
ATOM      7  O   UNL     1      -8.042  15.563  66.969  0.00  0.00    -0.263 OA
ATOM      8  N   UNL     1     -10.508  19.414  67.269  0.00  0.00    -0.086 NA
ATOM      9  C   UNL     1      -9.757  15.629  68.488  0.00  0.00    +0.175 A 
ATOM     10  N   UNL     1      -9.844  14.320  68.767  0.00  0.00    -0.217 NA
ATOM     11  C   UNL     1     -11.070  14.080  69.285  0.00  0.00    +0.180 A 
ENDROOT
BRANCH   1  14
ATOM     12  C   UNL     1     -11.143  15.313  71.795  0.00  0.00    -0.007 C 
ATOM     13  C   UNL     1     -11.795  15.580  71.717  0.00  0.00    -0.019 C 
ATOM     14  C   UNL     1     -12.850  15.549  70.448  0.00  0.00    +0.110 C 
ATOM     15  C   UNL     1     -13.267  13.959  70.679  0.00  0.00    +0.060 C 
ATOM     16  C   UNL     1     -13.000  13.792  72.299  0.00  0.00    +0.160 C 
ATOM     17  O   UNL     1     -14.491  13.571  72.591  0.00  0.00    -0.223 OA
ATOM     18  C   UNL     1     -13.152  15.495  72.582  0.00  0.00    +0.083 C 
BRANCH  18  19
ATOM     19  C   UNL     1     -12.348  15.394  74.005  0.00  0.00    +0.189 C 
ATOM     20  O   UNL     1     -12.691  16.578  74.632  0.00  0.00    -0.220 OA
ENDBRANCH  18  19
ENDBRANCH   1  14
TORSDOF 2
ENDMDL
MODEL 6
REMARK VINA RESULT:      -6.4      2.111      6.002
REMARK  Name = 
REMARK  2 active torsions:
REMARK  status: ('A' for Active; 'I' for Inactive)
REMARK    1  A    between atoms: C_3  and  C_4
REMARK    2  A    between atoms: C_9  and  N_10
REMARK                            x       y       z     vdW  Elec       q    Type
REMARK                         _______ _______ _______ _____ _____    ______ ____
ROOT
ATOM      1  N   UNL     1     -11.455  15.080  65.976  0.00  0.00    -0.292 N 
ATOM      2  C   UNL     1     -11.039  15.521  67.191  0.00  0.00    +0.171 A 
ATOM      3  N   UNL     1     -11.531  15.419  68.435  0.00  0.00    -0.192 NA
ATOM      4  C   UNL     1     -11.178  16.313  69.396  0.00  0.00    +0.261 A 
ATOM      5  N   UNL     1     -10.425  17.407  69.128  0.00  0.00    -0.171 NA
ATOM      6  C   UNL     1      -9.730  17.422  67.964  0.00  0.00    +0.302 A 
ATOM      7  O   UNL     1      -9.212  18.527  67.621  0.00  0.00    -0.263 OA
ATOM      8  N   UNL     1     -11.539  16.126  70.756  0.00  0.00    -0.086 NA
ATOM      9  C   UNL     1     -10.076  16.496  67.001  0.00  0.00    +0.175 A 
ATOM     10  N   UNL     1      -9.942  16.606  65.671  0.00  0.00    -0.217 NA
ATOM     11  C   UNL     1     -10.792  15.731  65.088  0.00  0.00    +0.180 A 
ENDROOT
BRANCH   1  14
ATOM     12  C   UNL     1      -9.907  13.222  65.223  0.00  0.00    -0.007 C 
ATOM     13  C   UNL     1     -10.500  12.924  65.472  0.00  0.00    -0.019 C 
ATOM     14  C   UNL     1     -11.965  13.567  65.878  0.00  0.00    +0.110 C 
ATOM     15  C   UNL     1     -12.445  13.768  64.301  0.00  0.00    +0.060 C 
ATOM     16  C   UNL     1     -11.583  12.578  63.551  0.00  0.00    +0.160 C 
ATOM     17  O   UNL     1     -12.853  11.800  63.178  0.00  0.00    -0.223 OA
ATOM     18  C   UNL     1     -11.404  11.672  65.017  0.00  0.00    +0.083 C 
BRANCH  18  19
ATOM     19  C   UNL     1     -10.122  10.844  64.422  0.00  0.00    +0.189 C 
ATOM     20  O   UNL     1     -10.107   9.705  65.206  0.00  0.00    -0.220 OA
ENDBRANCH  18  19
ENDBRANCH   1  14
TORSDOF 2
ENDMDL
MODEL 7
REMARK VINA RESULT:      -6.3      1.128      1.633
REMARK  Name = 
REMARK  2 active torsions:
REMARK  status: ('A' for Active; 'I' for Inactive)
REMARK    1  A    between atoms: C_3  and  C_4
REMARK    2  A    between atoms: C_9  and  N_10
REMARK                            x       y       z     vdW  Elec       q    Type
REMARK                         _______ _______ _______ _____ _____    ______ ____
ROOT
ATOM      1  N   UNL     1     -10.138  15.485  67.149  0.00  0.00    -0.292 N 
ATOM      2  C   UNL     1     -10.651  14.560  66.297  0.00  0.00    +0.171 A 
ATOM      3  N   UNL     1     -11.275  14.634  65.111  0.00  0.00    -0.192 NA
ATOM      4  C   UNL     1     -12.077  13.623  64.686  0.00  0.00    +0.261 A 
ATOM      5  N   UNL     1     -12.386  12.562  65.470  0.00  0.00    -0.171 NA
ATOM      6  C   UNL     1     -11.609  12.338  66.559  0.00  0.00    +0.302 A 
ATOM      7  O   UNL     1     -12.033  11.489  67.399  0.00  0.00    -0.263 OA
ATOM      8  N   UNL     1     -12.603  13.594  63.368  0.00  0.00    -0.086 NA
ATOM      9  C   UNL     1     -10.778  13.359  66.972  0.00  0.00    +0.175 A 
ATOM     10  N   UNL     1     -10.333  13.603  68.213  0.00  0.00    -0.217 NA
ATOM     11  C   UNL     1      -9.953  14.900  68.278  0.00  0.00    +0.180 A 
ENDROOT
BRANCH   1  14
ATOM     12  C   UNL     1      -9.111  17.283  68.608  0.00  0.00    -0.007 C 
ATOM     13  C   UNL     1      -8.835  17.345  67.959  0.00  0.00    -0.019 C 
ATOM     14  C   UNL     1      -9.253  16.657  66.517  0.00  0.00    +0.110 C 
ATOM     15  C   UNL     1     -10.582  17.629  66.304  0.00  0.00    +0.060 C 
ATOM     16  C   UNL     1     -10.135  18.971  67.153  0.00  0.00    +0.160 C 
ATOM     17  O   UNL     1     -10.083  19.837  65.886  0.00  0.00    -0.223 OA
ATOM     18  C   UNL     1      -8.449  18.595  67.018  0.00  0.00    +0.083 C 
BRANCH  18  19
ATOM     19  C   UNL     1      -8.069  19.554  68.290  0.00  0.00    +0.189 C 
ATOM     20  O   UNL     1      -6.774  19.942  68.000  0.00  0.00    -0.220 OA
ENDBRANCH  18  19
ENDBRANCH   1  14
TORSDOF 2
ENDMDL
MODEL 8
REMARK VINA RESULT:      -6.2      2.812      4.254
REMARK  Name = 
REMARK  2 active torsions:
REMARK  status: ('A' for Active; 'I' for Inactive)
REMARK    1  A    between atoms: C_3  and  C_4
REMARK    2  A    between atoms: C_9  and  N_10
REMARK                            x       y       z     vdW  Elec       q    Type
REMARK                         _______ _______ _______ _____ _____    ______ ____
ROOT
ATOM      1  N   UNL     1      -8.594  18.197  67.101  0.00  0.00    -0.292 N 
ATOM      2  C   UNL     1      -9.230  17.028  66.826  0.00  0.00    +0.171 A 
ATOM      3  N   UNL     1      -8.906  15.736  66.980  0.00  0.00    -0.192 NA
ATOM      4  C   UNL     1      -9.504  14.776  66.226  0.00  0.00    +0.261 A 
ATOM      5  N   UNL     1     -10.352  15.073  65.211  0.00  0.00    -0.171 NA
ATOM      6  C   UNL     1     -10.874  16.323  65.175  0.00  0.00    +0.302 A 
ATOM      7  O   UNL     1     -11.481  16.658  64.114  0.00  0.00    -0.263 OA
ATOM      8  N   UNL     1      -9.313  13.395  66.491  0.00  0.00    -0.086 NA
ATOM      9  C   UNL     1     -10.278  17.289  65.961  0.00  0.00    +0.175 A 
ATOM     10  N   UNL     1     -10.240  18.612  65.747  0.00  0.00    -0.217 NA
ATOM     11  C   UNL     1      -9.209  19.124  66.457  0.00  0.00    +0.180 A 
ENDROOT
BRANCH   1  14
ATOM     12  C   UNL     1      -7.141  20.195  67.659  0.00  0.00    -0.007 C 
ATOM     13  C   UNL     1      -7.245  19.827  68.256  0.00  0.00    -0.019 C 
ATOM     14  C   UNL     1      -7.880  18.327  68.526  0.00  0.00    +0.110 C 
ATOM     15  C   UNL     1      -6.527  17.529  67.987  0.00  0.00    +0.060 C 
ATOM     16  C   UNL     1      -5.353  18.644  68.302  0.00  0.00    +0.160 C 
ATOM     17  O   UNL     1      -4.691  17.748  69.358  0.00  0.00    -0.223 OA
ATOM     18  C   UNL     1      -6.312  19.434  69.508  0.00  0.00    +0.083 C 
BRANCH  18  19
ATOM     19  C   UNL     1      -5.428  20.809  69.400  0.00  0.00    +0.189 C 
ATOM     20  O   UNL     1      -5.314  21.201  70.722  0.00  0.00    -0.220 OA
ENDBRANCH  18  19
ENDBRANCH   1  14
TORSDOF 2
ENDMDL
MODEL 9
REMARK VINA RESULT:      -6.2      3.958      5.826
REMARK  Name = 
REMARK  2 active torsions:
REMARK  status: ('A' for Active; 'I' for Inactive)
REMARK    1  A    between atoms: C_3  and  C_4
REMARK    2  A    between atoms: C_9  and  N_10
REMARK                            x       y       z     vdW  Elec       q    Type
REMARK                         _______ _______ _______ _____ _____    ______ ____
ROOT
ATOM      1  N   UNL     1     -11.745  14.450  69.064  0.00  0.00    -0.292 N 
ATOM      2  C   UNL     1     -12.073  13.815  70.219  0.00  0.00    +0.171 A 
ATOM      3  N   UNL     1     -12.362  12.542  70.530  0.00  0.00    -0.192 NA
ATOM      4  C   UNL     1     -13.086  12.247  71.641  0.00  0.00    +0.261 A 
ATOM      5  N   UNL     1     -13.653  13.205  72.415  0.00  0.00    -0.171 NA
ATOM      6  C   UNL     1     -13.202  14.475  72.272  0.00  0.00    +0.302 A 
ATOM      7  O   UNL     1     -13.881  15.388  72.829  0.00  0.00    -0.263 OA
ATOM      8  N   UNL     1     -13.251  10.910  72.089  0.00  0.00    -0.086 NA
ATOM      9  C   UNL     1     -12.446  14.764  71.154  0.00  0.00    +0.175 A 
ATOM     10  N   UNL     1     -12.325  15.944  70.528  0.00  0.00    -0.217 NA
ATOM     11  C   UNL     1     -11.896  15.710  69.267  0.00  0.00    +0.180 A 
ENDROOT
BRANCH   1  14
ATOM     12  C   UNL     1     -12.011  14.424  66.545  0.00  0.00    -0.007 C 
ATOM     13  C   UNL     1     -11.358  14.195  66.698  0.00  0.00    -0.019 C 
ATOM     14  C   UNL     1     -10.655  13.751  68.125  0.00  0.00    +0.110 C 
ATOM     15  C   UNL     1     -11.443  12.292  68.195  0.00  0.00    +0.060 C 
ATOM     16  C   UNL     1     -11.701  11.991  66.594  0.00  0.00    +0.160 C 
ATOM     17  O   UNL     1     -10.766  10.773  66.602  0.00  0.00    -0.223 OA
ATOM     18  C   UNL     1     -10.408  13.036  66.106  0.00  0.00    +0.083 C 
BRANCH  18  19
ATOM     19  C   UNL     1     -11.015  13.184  64.592  0.00  0.00    +0.189 C 
ATOM     20  O   UNL     1     -10.071  12.529  63.821  0.00  0.00    -0.220 OA
ENDBRANCH  18  19
ENDBRANCH   1  14
TORSDOF 2
ENDMDL
