MODEL 1
REMARK VINA RESULT:      -7.3      0.000      0.000
REMARK  Name = 
REMARK  7 active torsions:
REMARK  status: ('A' for Active; 'I' for Inactive)
REMARK    1  A    between atoms: N_2  and  C_3
REMARK    2  A    between atoms: C_3  and  C_5
REMARK    3  A    between atoms: C_10  and  O_11
REMARK    4  A    between atoms: O_11  and  C_12
REMARK    5  A    between atoms: C_18  and  O_19
REMARK    6  A    between atoms: O_19  and  C_20
REMARK    7  A    between atoms: C_26  and  N_27
REMARK                            x       y       z     vdW  Elec       q    Type
REMARK                         _______ _______ _______ _____ _____    ______ ____
ROOT
ATOM      1  C   UNL     1      -9.527  15.884  65.881  0.00  0.00    +0.168 C 
ATOM      2  C   UNL     1      -9.801  14.857  67.215  0.00  0.00    +0.209 C 
ATOM      3  O   UNL     1      -8.337  14.595  67.356  0.00  0.00    -0.218 OA
ATOM      4  C   UNL     1     -10.037  13.506  66.210  0.00  0.00    +0.168 C 
ATOM      5  C   UNL     1     -11.740  13.514  66.408  0.00  0.00    +0.123 C 
ATOM      6  N   UNL     1     -11.763  13.773  67.949  0.00  0.00    -0.130 NA
ATOM      7  C   UNL     1     -11.876  15.106  66.073  0.00  0.00    +0.043 C 
ATOM      8  C   UNL     1     -10.765  15.232  64.889  0.00  0.00    +0.123 C 
ATOM      9  N   UNL     1     -11.327  16.595  64.376  0.00  0.00    -0.130 NA
ENDROOT
BRANCH   1  10
ATOM     10  O   UNL     1     -10.339  16.980  66.501  0.00  0.00    -0.328 OA
BRANCH  10  13
ATOM     11  C   UNL     1      -7.311  18.564  67.250  0.00  0.00    +0.134 C 
ATOM     12  O   UNL     1      -8.669  17.977  67.556  0.00  0.00    -0.331 OA
ATOM     13  C   UNL     1      -9.294  18.043  66.166  0.00  0.00    +0.253 C 
ATOM     14  C   UNL     1     -10.373  19.348  66.528  0.00  0.00    +0.148 C 
ATOM     15  N   UNL     1     -10.838  18.834  67.922  0.00  0.00    -0.128 NA
ATOM     16  C   UNL     1      -9.185  20.261  67.161  0.00  0.00    +0.027 C 
ATOM     17  C   UNL     1      -7.928  19.865  66.473  0.00  0.00    +0.033 C 
BRANCH  11  18
ATOM     18  C   UNL     1      -7.273  19.371  68.759  0.00  0.00    +0.100 C 
ATOM     19  C   UNL     1      -6.516  18.110  69.458  0.00  0.00    +0.021 C 
BRANCH  18  21
ATOM     20  C   UNL     1      -5.639  20.557  69.143  0.00  0.00    +0.107 C 
ATOM     21  N   UNL     1      -5.920  20.084  68.456  0.00  0.00    -0.215 NA
ENDBRANCH  18  21
ENDBRANCH  11  18
ENDBRANCH  10  13
ENDBRANCH   1  10
BRANCH   4  22
ATOM     22  O   UNL     1      -9.832  12.434  67.238  0.00  0.00    -0.327 OA
BRANCH  22  23
ATOM     23  C   UNL     1      -9.106  11.614  66.161  0.00  0.00    +0.268 C 
ATOM     24  C   UNL     1      -8.234  10.536  67.180  0.00  0.00    +0.226 C 
ATOM     25  O   UNL     1      -8.138  11.439  68.382  0.00  0.00    -0.216 OA
ATOM     26  C   UNL     1      -9.399   9.572  67.948  0.00  0.00    +0.138 C 
ATOM     27  C   UNL     1      -9.632   8.680  66.594  0.00  0.00    +0.171 C 
ATOM     28  O   UNL     1     -10.523   7.700  66.912  0.00  0.00    -0.222 OA
ATOM     29  C   UNL     1      -8.229   8.097  66.411  0.00  0.00    +0.037 C 
ATOM     30  C   UNL     1      -9.860   9.519  65.442  0.00  0.00    +0.176 C 
ATOM     31  O   UNL     1     -10.281  10.722  65.807  0.00  0.00    -0.326 OA
BRANCH  26  32
ATOM     32  N   UNL     1     -10.656  10.474  67.872  0.00  0.00    -0.213 NA
ATOM     33  C   UNL     1     -11.421  10.330  69.021  0.00  0.00    +0.108 C 
ENDBRANCH  26  32
ENDBRANCH  22  23
ENDBRANCH   4  22
TORSDOF 7
ENDMDL
MODEL 2
REMARK VINA RESULT:      -7.1      2.664      4.221
REMARK  Name = 
REMARK  7 active torsions:
REMARK  status: ('A' for Active; 'I' for Inactive)
REMARK    1  A    between atoms: N_2  and  C_3
REMARK    2  A    between atoms: C_3  and  C_5
REMARK    3  A    between atoms: C_10  and  O_11
REMARK    4  A    between atoms: O_11  and  C_12
REMARK    5  A    between atoms: C_18  and  O_19
REMARK    6  A    between atoms: O_19  and  C_20
REMARK    7  A    between atoms: C_26  and  N_27
REMARK                            x       y       z     vdW  Elec       q    Type
REMARK                         _______ _______ _______ _____ _____    ______ ____
ROOT
ATOM      1  C   UNL     1      -8.033  18.490  66.823  0.00  0.00    +0.168 C 
ATOM      2  C   UNL     1      -8.408  17.010  67.583  0.00  0.00    +0.209 C 
ATOM      3  O   UNL     1      -7.547  16.259  66.619  0.00  0.00    -0.218 OA
ATOM      4  C   UNL     1      -9.805  16.802  66.636  0.00  0.00    +0.168 C 
ATOM      5  C   UNL     1     -10.869  17.236  67.908  0.00  0.00    +0.123 C 
ATOM      6  N   UNL     1     -10.165  16.429  69.046  0.00  0.00    -0.130 NA
ATOM      7  C   UNL     1     -10.044  18.596  68.274  0.00  0.00    +0.043 C 
ATOM      8  C   UNL     1      -9.642  19.084  66.773  0.00  0.00    +0.123 C 
ATOM      9  N   UNL     1      -9.314  20.540  67.231  0.00  0.00    -0.130 NA
ENDROOT
BRANCH   1  10
ATOM     10  O   UNL     1      -7.642  19.112  68.130  0.00  0.00    -0.328 OA
BRANCH  10  13
ATOM     11  C   UNL     1      -4.357  17.909  68.158  0.00  0.00    +0.134 C 
ATOM     12  O   UNL     1      -5.690  18.283  68.762  0.00  0.00    -0.331 OA
ATOM     13  C   UNL     1      -6.182  19.265  67.703  0.00  0.00    +0.253 C 
ATOM     14  C   UNL     1      -5.954  20.684  68.668  0.00  0.00    +0.148 C 
ATOM     15  N   UNL     1      -6.534  20.111  69.995  0.00  0.00    -0.128 NA
ATOM     16  C   UNL     1      -4.428  20.273  69.053  0.00  0.00    +0.027 C 
ATOM     17  C   UNL     1      -3.905  19.463  67.922  0.00  0.00    +0.033 C 
BRANCH  11  18
ATOM     18  C   UNL     1      -3.628  17.837  69.705  0.00  0.00    +0.100 C 
ATOM     19  C   UNL     1      -4.362  16.418  70.026  0.00  0.00    +0.021 C 
BRANCH  18  21
ATOM     20  C   UNL     1      -1.938  16.674  69.817  0.00  0.00    +0.107 C 
ATOM     21  N   UNL     1      -2.350  17.117  69.178  0.00  0.00    -0.215 NA
ENDBRANCH  18  21
ENDBRANCH  11  18
ENDBRANCH  10  13
ENDBRANCH   1  10
BRANCH   4  22
ATOM     22  O   UNL     1      -9.997  15.331  66.856  0.00  0.00    -0.327 OA
BRANCH  22  23
ATOM     23  C   UNL     1     -10.087  15.169  65.331  0.00  0.00    +0.268 C 
ATOM     24  C   UNL     1      -9.861  13.467  65.223  0.00  0.00    +0.226 C 
ATOM     25  O   UNL     1      -9.051  13.298  66.483  0.00  0.00    -0.216 OA
ATOM     26  C   UNL     1     -11.221  12.767  65.956  0.00  0.00    +0.138 C 
ATOM     27  C   UNL     1     -12.158  13.089  64.652  0.00  0.00    +0.171 C 
ATOM     28  O   UNL     1     -13.385  12.556  64.902  0.00  0.00    -0.222 OA
ATOM     29  C   UNL     1     -11.422  12.276  63.585  0.00  0.00    +0.037 C 
ATOM     30  C   UNL     1     -12.037  14.469  64.244  0.00  0.00    +0.176 C 
ATOM     31  O   UNL     1     -11.601  15.223  65.244  0.00  0.00    -0.326 OA
BRANCH  26  32
ATOM     32  N   UNL     1     -11.696  13.905  66.893  0.00  0.00    -0.213 NA
ATOM     33  C   UNL     1     -12.026  13.394  68.140  0.00  0.00    +0.108 C 
ENDBRANCH  26  32
ENDBRANCH  22  23
ENDBRANCH   4  22
TORSDOF 7
ENDMDL
MODEL 3
REMARK VINA RESULT:      -6.6      2.537      8.495
REMARK  Name = 
REMARK  7 active torsions:
REMARK  status: ('A' for Active; 'I' for Inactive)
REMARK    1  A    between atoms: N_2  and  C_3
REMARK    2  A    between atoms: C_3  and  C_5
REMARK    3  A    between atoms: C_10  and  O_11
REMARK    4  A    between atoms: O_11  and  C_12
REMARK    5  A    between atoms: C_18  and  O_19
REMARK    6  A    between atoms: O_19  and  C_20
REMARK    7  A    between atoms: C_26  and  N_27
REMARK                            x       y       z     vdW  Elec       q    Type
REMARK                         _______ _______ _______ _____ _____    ______ ____
ROOT
ATOM      1  C   UNL     1      -9.435  16.808  67.692  0.00  0.00    +0.168 C 
ATOM      2  C   UNL     1      -7.774  16.450  67.845  0.00  0.00    +0.209 C 
ATOM      3  O   UNL     1      -7.926  16.216  69.313  0.00  0.00    -0.218 OA
ATOM      4  C   UNL     1      -7.374  18.089  68.057  0.00  0.00    +0.168 C 
ATOM      5  C   UNL     1      -6.755  18.260  66.467  0.00  0.00    +0.123 C 
ATOM      6  N   UNL     1      -5.958  16.917  66.414  0.00  0.00    -0.130 NA
ATOM      7  C   UNL     1      -8.068  17.583  65.772  0.00  0.00    +0.043 C 
ATOM      8  C   UNL     1      -9.233  18.208  66.722  0.00  0.00    +0.123 C 
ATOM      9  N   UNL     1     -10.370  17.890  65.701  0.00  0.00    -0.130 NA
ENDROOT
BRANCH   1  10
ATOM     10  O   UNL     1      -9.590  15.823  66.573  0.00  0.00    -0.328 OA
BRANCH  10  13
ATOM     11  C   UNL     1     -10.392  13.040  68.536  0.00  0.00    +0.134 C 
ATOM     12  O   UNL     1      -9.749  13.769  67.378  0.00  0.00    -0.331 OA
ATOM     13  C   UNL     1     -10.635  15.010  67.336  0.00  0.00    +0.253 C 
ATOM     14  C   UNL     1     -11.478  14.567  65.890  0.00  0.00    +0.148 C 
ATOM     15  N   UNL     1     -10.240  14.069  65.089  0.00  0.00    -0.128 NA
ATOM     16  C   UNL     1     -11.825  13.081  66.453  0.00  0.00    +0.027 C 
ATOM     17  C   UNL     1     -11.905  13.192  67.932  0.00  0.00    +0.033 C 
BRANCH  11  18
ATOM     18  C   UNL     1     -10.143  11.527  67.777  0.00  0.00    +0.100 C 
ATOM     19  C   UNL     1      -8.609  11.463  68.320  0.00  0.00    +0.021 C 
BRANCH  18  21
ATOM     20  C   UNL     1     -10.546   9.850  68.895  0.00  0.00    +0.107 C 
ATOM     21  N   UNL     1     -10.666  10.715  69.001  0.00  0.00    -0.215 NA
ENDBRANCH  18  21
ENDBRANCH  11  18
ENDBRANCH  10  13
ENDBRANCH   1  10
BRANCH   4  22
ATOM     22  O   UNL     1      -6.014  17.902  68.663  0.00  0.00    -0.327 OA
BRANCH  22  23
ATOM     23  C   UNL     1      -6.354  19.034  69.643  0.00  0.00    +0.268 C 
ATOM     24  C   UNL     1      -5.193  18.694  70.866  0.00  0.00    +0.226 C 
ATOM     25  O   UNL     1      -5.072  17.214  70.613  0.00  0.00    -0.216 OA
ATOM     26  C   UNL     1      -3.676  18.979  70.164  0.00  0.00    +0.138 C 
ATOM     27  C   UNL     1      -3.863  20.602  70.285  0.00  0.00    +0.171 C 
ATOM     28  O   UNL     1      -2.708  21.170  69.840  0.00  0.00    -0.222 OA
ATOM     29  C   UNL     1      -3.986  20.745  71.804  0.00  0.00    +0.037 C 
ATOM     30  C   UNL     1      -5.134  21.028  69.748  0.00  0.00    +0.176 C 
ATOM     31  O   UNL     1      -5.614  20.130  68.899  0.00  0.00    -0.326 OA
BRANCH  26  32
ATOM     32  N   UNL     1      -3.988  18.804  68.657  0.00  0.00    -0.213 NA
ATOM     33  C   UNL     1      -2.873  18.318  67.988  0.00  0.00    +0.108 C 
ENDBRANCH  26  32
ENDBRANCH  22  23
ENDBRANCH   4  22
TORSDOF 7
ENDMDL
MODEL 4
REMARK VINA RESULT:      -6.4      2.177      8.260
REMARK  Name = 
REMARK  7 active torsions:
REMARK  status: ('A' for Active; 'I' for Inactive)
REMARK    1  A    between atoms: N_2  and  C_3
REMARK    2  A    between atoms: C_3  and  C_5
REMARK    3  A    between atoms: C_10  and  O_11
REMARK    4  A    between atoms: O_11  and  C_12
REMARK    5  A    between atoms: C_18  and  O_19
REMARK    6  A    between atoms: O_19  and  C_20
REMARK    7  A    between atoms: C_26  and  N_27
REMARK                            x       y       z     vdW  Elec       q    Type
REMARK                         _______ _______ _______ _____ _____    ______ ____
ROOT
ATOM      1  C   UNL     1      -9.705  15.541  67.821  0.00  0.00    +0.168 C 
ATOM      2  C   UNL     1      -8.694  16.502  66.839  0.00  0.00    +0.209 C 
ATOM      3  O   UNL     1      -7.570  15.527  66.986  0.00  0.00    -0.218 OA
ATOM      4  C   UNL     1      -8.179  17.431  68.166  0.00  0.00    +0.168 C 
ATOM      5  C   UNL     1      -9.154  18.778  67.744  0.00  0.00    +0.123 C 
ATOM      6  N   UNL     1      -8.858  18.769  66.210  0.00  0.00    -0.130 NA
ATOM      7  C   UNL     1     -10.501  17.876  67.556  0.00  0.00    +0.043 C 
ATOM      8  C   UNL     1     -10.302  16.827  68.785  0.00  0.00    +0.123 C 
ATOM      9  N   UNL     1     -11.798  16.385  68.776  0.00  0.00    -0.130 NA
ENDROOT
BRANCH   1  10
ATOM     10  O   UNL     1     -10.794  15.556  66.790  0.00  0.00    -0.328 OA
BRANCH  10  13
ATOM     11  C   UNL     1     -10.124  12.145  67.183  0.00  0.00    +0.134 C 
ATOM     12  O   UNL     1     -10.104  13.478  66.473  0.00  0.00    -0.331 OA
ATOM     13  C   UNL     1     -11.276  14.157  67.174  0.00  0.00    +0.253 C 
ATOM     14  C   UNL     1     -12.358  14.062  65.826  0.00  0.00    +0.148 C 
ATOM     15  N   UNL     1     -11.337  14.482  64.727  0.00  0.00    -0.128 NA
ATOM     16  C   UNL     1     -12.075  12.475  65.609  0.00  0.00    +0.027 C 
ATOM     17  C   UNL     1     -11.725  11.917  66.941  0.00  0.00    +0.033 C 
BRANCH  11  18
ATOM     18  C   UNL     1      -9.697  11.323  65.744  0.00  0.00    +0.100 C 
ATOM     19  C   UNL     1      -8.123  11.332  66.160  0.00  0.00    +0.021 C 
BRANCH  18  21
ATOM     20  C   UNL     1      -9.655   9.270  65.823  0.00  0.00    +0.107 C 
ATOM     21  N   UNL     1      -9.910   9.911  66.370  0.00  0.00    -0.215 NA
ENDBRANCH  18  21
ENDBRANCH  11  18
ENDBRANCH  10  13
ENDBRANCH   1  10
BRANCH   4  22
ATOM     22  O   UNL     1      -6.943  18.019  67.552  0.00  0.00    -0.327 OA
BRANCH  22  23
ATOM     23  C   UNL     1      -6.182  17.606  68.820  0.00  0.00    +0.268 C 
ATOM     24  C   UNL     1      -4.571  17.750  68.230  0.00  0.00    +0.226 C 
ATOM     25  O   UNL     1      -4.873  17.490  66.778  0.00  0.00    -0.216 OA
ATOM     26  C   UNL     1      -4.330  19.401  67.927  0.00  0.00    +0.138 C 
ATOM     27  C   UNL     1      -4.160  19.726  69.523  0.00  0.00    +0.171 C 
ATOM     28  O   UNL     1      -3.864  21.051  69.630  0.00  0.00    -0.222 OA
ATOM     29  C   UNL     1      -2.932  18.870  69.842  0.00  0.00    +0.037 C 
ATOM     30  C   UNL     1      -5.241  19.161  70.295  0.00  0.00    +0.176 C 
ATOM     31  O   UNL     1      -6.303  18.941  69.532  0.00  0.00    -0.326 OA
BRANCH  26  32
ATOM     32  N   UNL     1      -5.782  19.900  67.723  0.00  0.00    -0.213 NA
ATOM     33  C   UNL     1      -5.800  20.984  66.856  0.00  0.00    +0.108 C 
ENDBRANCH  26  32
ENDBRANCH  22  23
ENDBRANCH   4  22
TORSDOF 7
ENDMDL
MODEL 5
REMARK VINA RESULT:      -6.3      2.063      8.471
REMARK  Name = 
REMARK  7 active torsions:
REMARK  status: ('A' for Active; 'I' for Inactive)
REMARK    1  A    between atoms: N_2  and  C_3
REMARK    2  A    between atoms: C_3  and  C_5
REMARK    3  A    between atoms: C_10  and  O_11
REMARK    4  A    between atoms: O_11  and  C_12
REMARK    5  A    between atoms: C_18  and  O_19
REMARK    6  A    between atoms: O_19  and  C_20
REMARK    7  A    between atoms: C_26  and  N_27
REMARK                            x       y       z     vdW  Elec       q    Type
REMARK                         _______ _______ _______ _____ _____    ______ ____
ROOT
ATOM      1  C   UNL     1      -9.337  14.031  68.307  0.00  0.00    +0.168 C 
ATOM      2  C   UNL     1      -8.754  15.033  67.055  0.00  0.00    +0.209 C 
ATOM      3  O   UNL     1      -7.352  14.575  67.298  0.00  0.00    -0.218 OA
ATOM      4  C   UNL     1      -8.596  16.362  68.104  0.00  0.00    +0.168 C 
ATOM      5  C   UNL     1      -9.997  17.147  67.502  0.00  0.00    +0.123 C 
ATOM      6  N   UNL     1      -9.735  16.890  65.983  0.00  0.00    -0.130 NA
ATOM      7  C   UNL     1     -10.928  15.813  67.633  0.00  0.00    +0.043 C 
ATOM      8  C   UNL     1     -10.348  15.212  69.032  0.00  0.00    +0.123 C 
ATOM      9  N   UNL     1     -11.583  14.283  69.255  0.00  0.00    -0.130 NA
ENDROOT
BRANCH   1  10
ATOM     10  O   UNL     1     -10.369  13.427  67.402  0.00  0.00    -0.328 OA
BRANCH  10  13
ATOM     11  C   UNL     1      -8.785  11.008  65.432  0.00  0.00    +0.134 C 
ATOM     12  O   UNL     1      -9.887  11.971  65.808  0.00  0.00    -0.331 OA
ATOM     13  C   UNL     1      -9.611  12.104  67.302  0.00  0.00    +0.253 C 
ATOM     14  C   UNL     1     -10.982  11.176  67.811  0.00  0.00    +0.148 C 
ATOM     15  N   UNL     1     -12.013  11.795  66.821  0.00  0.00    -0.128 NA
ATOM     16  C   UNL     1     -10.623   9.947  66.808  0.00  0.00    +0.027 C 
ATOM     17  C   UNL     1      -9.147   9.956  66.632  0.00  0.00    +0.033 C 
BRANCH  11  18
ATOM     18  C   UNL     1      -9.803  10.215  64.307  0.00  0.00    +0.100 C 
ATOM     19  C   UNL     1      -9.656  11.445  63.250  0.00  0.00    +0.021 C 
BRANCH  18  21
ATOM     20  C   UNL     1      -8.845   9.132  62.847  0.00  0.00    +0.107 C 
ATOM     21  N   UNL     1      -8.627   9.435  63.644  0.00  0.00    -0.215 NA
ENDBRANCH  18  21
ENDBRANCH  11  18
ENDBRANCH  10  13
ENDBRANCH   1  10
BRANCH   4  22
ATOM     22  O   UNL     1      -7.664  17.187  67.268  0.00  0.00    -0.327 OA
BRANCH  22  23
ATOM     23  C   UNL     1      -6.906  17.540  68.556  0.00  0.00    +0.268 C 
ATOM     24  C   UNL     1      -5.387  17.969  67.871  0.00  0.00    +0.226 C 
ATOM     25  O   UNL     1      -5.481  17.111  66.637  0.00  0.00    -0.216 OA
ATOM     26  C   UNL     1      -5.663  19.375  66.964  0.00  0.00    +0.138 C 
ATOM     27  C   UNL     1      -5.724  20.301  68.313  0.00  0.00    +0.171 C 
ATOM     28  O   UNL     1      -5.876  21.591  67.904  0.00  0.00    -0.222 OA
ATOM     29  C   UNL     1      -4.315  20.069  68.862  0.00  0.00    +0.037 C 
ATOM     30  C   UNL     1      -6.623  19.742  69.296  0.00  0.00    +0.176 C 
ATOM     31  O   UNL     1      -7.500  18.927  68.727  0.00  0.00    -0.326 OA
BRANCH  26  32
ATOM     32  N   UNL     1      -7.179  19.266  66.666  0.00  0.00    -0.213 NA
ATOM     33  C   UNL     1      -7.480  19.896  65.466  0.00  0.00    +0.108 C 
ENDBRANCH  26  32
ENDBRANCH  22  23
ENDBRANCH   4  22
TORSDOF 7
ENDMDL
MODEL 6
REMARK VINA RESULT:      -6.3      2.451      8.462
REMARK  Name = 
REMARK  7 active torsions:
REMARK  status: ('A' for Active; 'I' for Inactive)
REMARK    1  A    between atoms: N_2  and  C_3
REMARK    2  A    between atoms: C_3  and  C_5
REMARK    3  A    between atoms: C_10  and  O_11
REMARK    4  A    between atoms: O_11  and  C_12
REMARK    5  A    between atoms: C_18  and  O_19
REMARK    6  A    between atoms: O_19  and  C_20
REMARK    7  A    between atoms: C_26  and  N_27
REMARK                            x       y       z     vdW  Elec       q    Type
REMARK                         _______ _______ _______ _____ _____    ______ ____
ROOT
ATOM      1  C   UNL     1      -9.275  15.490  68.431  0.00  0.00    +0.168 C 
ATOM      2  C   UNL     1      -8.634  16.180  67.009  0.00  0.00    +0.209 C 
ATOM      3  O   UNL     1      -7.346  15.444  67.193  0.00  0.00    -0.218 OA
ATOM      4  C   UNL     1      -8.075  17.550  67.848  0.00  0.00    +0.168 C 
ATOM      5  C   UNL     1      -9.331  18.560  67.263  0.00  0.00    +0.123 C 
ATOM      6  N   UNL     1      -9.305  18.076  65.777  0.00  0.00    -0.130 NA
ATOM      7  C   UNL     1     -10.508  17.499  67.655  0.00  0.00    +0.043 C 
ATOM      8  C   UNL     1      -9.918  16.947  69.069  0.00  0.00    +0.123 C 
ATOM      9  N   UNL     1     -11.291  16.359  69.522  0.00  0.00    -0.130 NA
ENDROOT
BRANCH   1  10
ATOM     10  O   UNL     1     -10.509  15.039  67.709  0.00  0.00    -0.328 OA
BRANCH  10  13
ATOM     11  C   UNL     1      -9.506  12.042  66.207  0.00  0.00    +0.134 C 
ATOM     12  O   UNL     1     -10.329  13.301  66.352  0.00  0.00    -0.331 OA
ATOM     13  C   UNL     1     -10.134  13.563  67.842  0.00  0.00    +0.253 C 
ATOM     14  C   UNL     1     -11.738  13.104  68.306  0.00  0.00    +0.148 C 
ATOM     15  N   UNL     1     -12.489  13.827  67.148  0.00  0.00    -0.128 NA
ATOM     16  C   UNL     1     -11.656  11.697  67.494  0.00  0.00    +0.027 C 
ATOM     17  C   UNL     1     -10.225  11.298  67.474  0.00  0.00    +0.033 C 
BRANCH  11  18
ATOM     18  C   UNL     1     -10.618  11.393  65.080  0.00  0.00    +0.100 C 
ATOM     19  C   UNL     1     -10.187  12.497  63.962  0.00  0.00    +0.021 C 
BRANCH  18  21
ATOM     20  C   UNL     1      -9.736  10.187  63.670  0.00  0.00    +0.107 C 
ATOM     21  N   UNL     1      -9.598  10.354  64.523  0.00  0.00    -0.215 NA
ENDBRANCH  18  21
ENDBRANCH  11  18
ENDBRANCH  10  13
ENDBRANCH   1  10
BRANCH   4  22
ATOM     22  O   UNL     1      -7.086  18.037  66.830  0.00  0.00    -0.327 OA
BRANCH  22  23
ATOM     23  C   UNL     1      -6.136  18.368  67.990  0.00  0.00    +0.268 C 
ATOM     24  C   UNL     1      -4.634  18.205  67.167  0.00  0.00    +0.226 C 
ATOM     25  O   UNL     1      -5.087  17.213  66.128  0.00  0.00    -0.216 OA
ATOM     26  C   UNL     1      -4.593  19.451  66.017  0.00  0.00    +0.138 C 
ATOM     27  C   UNL     1      -4.257  20.572  67.162  0.00  0.00    +0.171 C 
ATOM     28  O   UNL     1      -4.079  21.759  66.518  0.00  0.00    -0.222 OA
ATOM     29  C   UNL     1      -2.922  20.034  67.682  0.00  0.00    +0.037 C 
ATOM     30  C   UNL     1      -5.174  20.482  68.274  0.00  0.00    +0.176 C 
ATOM     31  O   UNL     1      -6.296  19.876  67.914  0.00  0.00    -0.326 OA
BRANCH  26  32
ATOM     32  N   UNL     1      -6.100  19.744  65.814  0.00  0.00    -0.213 NA
ATOM     33  C   UNL     1      -6.325  20.250  64.541  0.00  0.00    +0.108 C 
ENDBRANCH  26  32
ENDBRANCH  22  23
ENDBRANCH   4  22
TORSDOF 7
ENDMDL
MODEL 7
REMARK VINA RESULT:      -6.3      2.030      3.124
REMARK  Name = 
REMARK  7 active torsions:
REMARK  status: ('A' for Active; 'I' for Inactive)
REMARK    1  A    between atoms: N_2  and  C_3
REMARK    2  A    between atoms: C_3  and  C_5
REMARK    3  A    between atoms: C_10  and  O_11
REMARK    4  A    between atoms: O_11  and  C_12
REMARK    5  A    between atoms: C_18  and  O_19
REMARK    6  A    between atoms: O_19  and  C_20
REMARK    7  A    between atoms: C_26  and  N_27
REMARK                            x       y       z     vdW  Elec       q    Type
REMARK                         _______ _______ _______ _____ _____    ______ ____
ROOT
ATOM      1  C   UNL     1      -8.273  17.937  66.526  0.00  0.00    +0.168 C 
ATOM      2  C   UNL     1      -8.498  16.949  67.898  0.00  0.00    +0.209 C 
ATOM      3  O   UNL     1      -7.397  16.036  67.462  0.00  0.00    -0.218 OA
ATOM      4  C   UNL     1      -9.694  16.026  67.118  0.00  0.00    +0.168 C 
ATOM      5  C   UNL     1     -10.983  16.769  67.970  0.00  0.00    +0.123 C 
ATOM      6  N   UNL     1     -10.319  16.765  69.385  0.00  0.00    -0.130 NA
ATOM      7  C   UNL     1     -10.455  18.282  67.656  0.00  0.00    +0.043 C 
ATOM      8  C   UNL     1      -9.935  18.078  66.127  0.00  0.00    +0.123 C 
ATOM      9  N   UNL     1      -9.922  19.609  65.826  0.00  0.00    -0.130 NA
ENDROOT
BRANCH   1  10
ATOM     10  O   UNL     1      -8.177  19.169  67.375  0.00  0.00    -0.328 OA
BRANCH  10  13
ATOM     11  C   UNL     1      -5.136  19.295  69.101  0.00  0.00    +0.134 C 
ATOM     12  O   UNL     1      -6.544  19.726  68.760  0.00  0.00    -0.331 OA
ATOM     13  C   UNL     1      -6.649  19.157  67.349  0.00  0.00    +0.253 C 
ATOM     14  C   UNL     1      -6.560  20.687  66.542  0.00  0.00    +0.148 C 
ATOM     15  N   UNL     1      -7.520  21.462  67.493  0.00  0.00    -0.128 NA
ATOM     16  C   UNL     1      -5.234  21.135  67.369  0.00  0.00    +0.027 C 
ATOM     17  C   UNL     1      -4.503  19.888  67.714  0.00  0.00    +0.033 C 
BRANCH  11  18
ATOM     18  C   UNL     1      -4.853  20.749  69.958  0.00  0.00    +0.100 C 
ATOM     19  C   UNL     1      -5.561  20.144  71.294  0.00  0.00    +0.021 C 
BRANCH  18  21
ATOM     20  C   UNL     1      -3.114  20.853  71.048  0.00  0.00    +0.107 C 
ATOM     21  N   UNL     1      -3.439  20.305  70.442  0.00  0.00    -0.215 NA
ENDBRANCH  18  21
ENDBRANCH  11  18
ENDBRANCH  10  13
ENDBRANCH   1  10
BRANCH   4  22
ATOM     22  O   UNL     1      -9.667  14.829  68.022  0.00  0.00    -0.327 OA
BRANCH  22  23
ATOM     23  C   UNL     1      -9.621  13.948  66.766  0.00  0.00    +0.268 C 
ATOM     24  C   UNL     1      -8.969  12.515  67.461  0.00  0.00    +0.226 C 
ATOM     25  O   UNL     1      -8.220  13.171  68.592  0.00  0.00    -0.216 OA
ATOM     26  C   UNL     1     -10.152  11.933  68.528  0.00  0.00    +0.138 C 
ATOM     27  C   UNL     1     -11.060  11.354  67.294  0.00  0.00    +0.171 C 
ATOM     28  O   UNL     1     -12.128  10.718  67.850  0.00  0.00    -0.222 OA
ATOM     29  C   UNL     1     -10.082  10.344  66.691  0.00  0.00    +0.037 C 
ATOM     30  C   UNL     1     -11.265  12.356  66.275  0.00  0.00    +0.176 C 
ATOM     31  O   UNL     1     -11.092  13.575  66.767  0.00  0.00    -0.326 OA
BRANCH  26  32
ATOM     32  N   UNL     1     -10.953  13.220  68.846  0.00  0.00    -0.213 NA
ATOM     33  C   UNL     1     -11.705  13.047  69.999  0.00  0.00    +0.108 C 
ENDBRANCH  26  32
ENDBRANCH  22  23
ENDBRANCH   4  22
TORSDOF 7
ENDMDL
MODEL 8
REMARK VINA RESULT:      -6.0      2.374      3.352
REMARK  Name = 
REMARK  7 active torsions:
REMARK  status: ('A' for Active; 'I' for Inactive)
REMARK    1  A    between atoms: N_2  and  C_3
REMARK    2  A    between atoms: C_3  and  C_5
REMARK    3  A    between atoms: C_10  and  O_11
REMARK    4  A    between atoms: O_11  and  C_12
REMARK    5  A    between atoms: C_18  and  O_19
REMARK    6  A    between atoms: O_19  and  C_20
REMARK    7  A    between atoms: C_26  and  N_27
REMARK                            x       y       z     vdW  Elec       q    Type
REMARK                         _______ _______ _______ _____ _____    ______ ____
ROOT
ATOM      1  C   UNL     1      -8.400  18.051  66.360  0.00  0.00    +0.168 C 
ATOM      2  C   UNL     1      -8.434  16.996  67.700  0.00  0.00    +0.209 C 
ATOM      3  O   UNL     1      -7.412  16.107  67.067  0.00  0.00    -0.218 OA
ATOM      4  C   UNL     1      -9.734  16.111  67.053  0.00  0.00    +0.168 C 
ATOM      5  C   UNL     1     -10.884  16.810  68.116  0.00  0.00    +0.123 C 
ATOM      6  N   UNL     1     -10.027  16.737  69.419  0.00  0.00    -0.130 NA
ATOM      7  C   UNL     1     -10.398  18.337  67.804  0.00  0.00    +0.043 C 
ATOM      8  C   UNL     1     -10.102  18.210  66.208  0.00  0.00    +0.123 C 
ATOM      9  N   UNL     1     -10.123  19.754  65.983  0.00  0.00    -0.130 NA
ENDROOT
BRANCH   1  10
ATOM     10  O   UNL     1      -8.178  19.239  67.246  0.00  0.00    -0.328 OA
BRANCH  10  13
ATOM     11  C   UNL     1      -5.131  19.011  65.540  0.00  0.00    +0.134 C 
ATOM     12  O   UNL     1      -6.051  18.906  66.735  0.00  0.00    -0.331 OA
ATOM     13  C   UNL     1      -7.159  19.854  66.287  0.00  0.00    +0.253 C 
ATOM     14  C   UNL     1      -6.751  21.125  67.391  0.00  0.00    +0.148 C 
ATOM     15  N   UNL     1      -6.507  20.226  68.639  0.00  0.00    -0.128 NA
ATOM     16  C   UNL     1      -5.183  21.105  66.959  0.00  0.00    +0.027 C 
ATOM     17  C   UNL     1      -5.134  20.647  65.546  0.00  0.00    +0.033 C 
BRANCH  11  18
ATOM     18  C   UNL     1      -3.748  18.921  66.544  0.00  0.00    +0.100 C 
ATOM     19  C   UNL     1      -3.834  17.296  66.582  0.00  0.00    +0.021 C 
BRANCH  18  21
ATOM     20  C   UNL     1      -1.943  18.666  65.594  0.00  0.00    +0.107 C 
ATOM     21  N   UNL     1      -2.755  18.894  65.342  0.00  0.00    -0.215 NA
ENDBRANCH  18  21
ENDBRANCH  11  18
ENDBRANCH  10  13
ENDBRANCH   1  10
BRANCH   4  22
ATOM     22  O   UNL     1      -9.586  14.871  67.885  0.00  0.00    -0.327 OA
BRANCH  22  23
ATOM     23  C   UNL     1      -9.615  14.059  66.582  0.00  0.00    +0.268 C 
ATOM     24  C   UNL     1      -8.914  12.596  67.157  0.00  0.00    +0.226 C 
ATOM     25  O   UNL     1      -8.099  13.196  68.273  0.00  0.00    -0.216 OA
ATOM     26  C   UNL     1     -10.025  11.948  68.263  0.00  0.00    +0.138 C 
ATOM     27  C   UNL     1     -11.005  11.429  67.058  0.00  0.00    +0.171 C 
ATOM     28  O   UNL     1     -12.033  10.755  67.644  0.00  0.00    -0.222 OA
ATOM     29  C   UNL     1     -10.061  10.461  66.342  0.00  0.00    +0.037 C 
ATOM     30  C   UNL     1     -11.278  12.483  66.109  0.00  0.00    +0.176 C 
ATOM     31  O   UNL     1     -11.081  13.675  66.654  0.00  0.00    -0.326 OA
BRANCH  26  32
ATOM     32  N   UNL     1     -10.810  13.210  68.698  0.00  0.00    -0.213 NA
ATOM     33  C   UNL     1     -11.539  12.950  69.850  0.00  0.00    +0.108 C 
ENDBRANCH  26  32
ENDBRANCH  22  23
ENDBRANCH   4  22
TORSDOF 7
ENDMDL
MODEL 9
REMARK VINA RESULT:      -5.9      2.838      8.625
REMARK  Name = 
REMARK  7 active torsions:
REMARK  status: ('A' for Active; 'I' for Inactive)
REMARK    1  A    between atoms: N_2  and  C_3
REMARK    2  A    between atoms: C_3  and  C_5
REMARK    3  A    between atoms: C_10  and  O_11
REMARK    4  A    between atoms: O_11  and  C_12
REMARK    5  A    between atoms: C_18  and  O_19
REMARK    6  A    between atoms: O_19  and  C_20
REMARK    7  A    between atoms: C_26  and  N_27
REMARK                            x       y       z     vdW  Elec       q    Type
REMARK                         _______ _______ _______ _____ _____    ______ ____
ROOT
ATOM      1  C   UNL     1      -7.988  14.706  67.036  0.00  0.00    +0.168 C 
ATOM      2  C   UNL     1      -8.358  16.365  67.177  0.00  0.00    +0.209 C 
ATOM      3  O   UNL     1      -8.493  16.495  65.694  0.00  0.00    -0.218 OA
ATOM      4  C   UNL     1      -6.715  16.801  67.156  0.00  0.00    +0.168 C 
ATOM      5  C   UNL     1      -6.658  17.106  68.843  0.00  0.00    +0.123 C 
ATOM      6  N   UNL     1      -8.013  17.876  68.955  0.00  0.00    -0.130 NA
ATOM      7  C   UNL     1      -7.361  15.684  69.229  0.00  0.00    +0.043 C 
ATOM      8  C   UNL     1      -6.658  14.722  68.119  0.00  0.00    +0.123 C 
ATOM      9  N   UNL     1      -7.027  13.411  68.882  0.00  0.00    -0.130 NA
ENDROOT
BRANCH   1  10
ATOM     10  O   UNL     1      -9.043  14.340  68.036  0.00  0.00    -0.328 OA
BRANCH  10  13
ATOM     11  C   UNL     1     -10.556  12.868  65.246  0.00  0.00    +0.134 C 
ATOM     12  O   UNL     1     -10.449  13.831  66.406  0.00  0.00    -0.331 OA
ATOM     13  C   UNL     1      -9.438  13.080  67.267  0.00  0.00    +0.253 C 
ATOM     14  C   UNL     1     -10.576  12.590  68.476  0.00  0.00    +0.148 C 
ATOM     15  N   UNL     1     -11.332  13.946  68.593  0.00  0.00    -0.128 NA
ATOM     16  C   UNL     1     -11.617  12.003  67.373  0.00  0.00    +0.027 C 
ATOM     17  C   UNL     1     -10.804  11.568  66.207  0.00  0.00    +0.033 C 
BRANCH  11  18
ATOM     18  C   UNL     1     -12.231  13.181  65.085  0.00  0.00    +0.100 C 
ATOM     19  C   UNL     1     -11.937  14.709  64.602  0.00  0.00    +0.021 C 
BRANCH  18  21
ATOM     20  C   UNL     1     -12.917  12.068  63.500  0.00  0.00    +0.107 C 
ATOM     21  N   UNL     1     -12.285  12.670  63.613  0.00  0.00    -0.215 NA
ENDBRANCH  18  21
ENDBRANCH  11  18
ENDBRANCH  10  13
ENDBRANCH   1  10
BRANCH   4  22
ATOM     22  O   UNL     1      -6.881  18.250  66.808  0.00  0.00    -0.327 OA
BRANCH  22  23
ATOM     23  C   UNL     1      -5.861  18.040  65.679  0.00  0.00    +0.268 C 
ATOM     24  C   UNL     1      -6.162  19.471  64.771  0.00  0.00    +0.226 C 
ATOM     25  O   UNL     1      -7.599  19.661  65.177  0.00  0.00    -0.216 OA
ATOM     26  C   UNL     1      -5.670  20.762  65.755  0.00  0.00    +0.138 C 
ATOM     27  C   UNL     1      -4.089  20.466  65.449  0.00  0.00    +0.171 C 
ATOM     28  O   UNL     1      -3.373  21.438  66.080  0.00  0.00    -0.222 OA
ATOM     29  C   UNL     1      -4.065  20.673  63.933  0.00  0.00    +0.037 C 
ATOM     30  C   UNL     1      -3.762  19.075  65.659  0.00  0.00    +0.176 C 
ATOM     31  O   UNL     1      -4.644  18.497  66.463  0.00  0.00    -0.326 OA
BRANCH  26  32
ATOM     32  N   UNL     1      -5.773  20.138  67.169  0.00  0.00    -0.213 NA
ATOM     33  C   UNL     1      -6.061  21.119  68.108  0.00  0.00    +0.108 C 
ENDBRANCH  26  32
ENDBRANCH  22  23
ENDBRANCH   4  22
TORSDOF 7
ENDMDL
