MODEL 1
REMARK VINA RESULT:      -6.1      0.000      0.000
REMARK  Name = 
REMARK  3 active torsions:
REMARK  status: ('A' for Active; 'I' for Inactive)
REMARK    1  A    between atoms: C_2  and  C_3
REMARK    2  A    between atoms: C_11  and  C_12
REMARK    3  A    between atoms: C_12  and  N_13
REMARK                            x       y       z     vdW  Elec       q    Type
REMARK                         _______ _______ _______ _____ _____    ______ ____
ROOT
ATOM      1  C   UNL     1     -12.016  12.043  70.153  0.00  0.00    -0.005 A 
ATOM      2  C   UNL     1     -12.234  13.416  70.126  0.00  0.00    +0.045 A 
ATOM      3  C   UNL     1     -11.511  14.391  69.332  0.00  0.00    +0.175 C 
ATOM      4  C   UNL     1     -11.904  15.942  69.640  0.00  0.00    +0.078 C 
ATOM      5  C   UNL     1     -11.410  15.801  71.222  0.00  0.00    +0.015 C 
ATOM      6  C   UNL     1     -12.673  15.179  71.811  0.00  0.00    +0.046 C 
ATOM      7  O   UNL     1     -11.359  14.149  68.112  0.00  0.00    -0.291 OA
ATOM      8  C   UNL     1     -12.832  13.784  71.305  0.00  0.00    +0.061 A 
ATOM      9  N   UNL     1     -13.356  12.638  71.796  0.00  0.00    -0.254 NA
ATOM     10  C   UNL     1     -12.731  11.574  71.242  0.00  0.00    +0.055 A 
ATOM     11  C   UNL     1     -12.738  10.179  71.766  0.00  0.00    +0.052 C 
ENDROOT
BRANCH   1  13
ATOM     12  C   UNL     1     -11.614  10.786  68.386  0.00  0.00    +0.005 C 
ATOM     13  C   UNL     1     -11.089  11.267  69.278  0.00  0.00    +0.028 C 
ENDBRANCH   1  13
BRANCH   4  14
ATOM     14  C   UNL     1     -10.403  16.460  69.154  0.00  0.00    +0.080 C 
BRANCH  14  15
ATOM     15  N   UNL     1     -10.674  17.552  68.255  0.00  0.00    -0.268 NA
ATOM     16  C   UNL     1     -10.351  17.268  66.884  0.00  0.00    +0.105 C 
ATOM     17  C   UNL     1      -9.047  17.875  66.470  0.00  0.00    +0.159 C 
ATOM     18  O   UNL     1      -8.957  19.235  66.658  0.00  0.00    -0.351 OA
ATOM     19  C   UNL     1      -9.638  19.724  67.748  0.00  0.00    +0.159 C 
ATOM     20  C   UNL     1      -9.975  18.691  68.782  0.00  0.00    +0.105 C 
ENDBRANCH  14  15
ENDBRANCH   4  14
TORSDOF 3
ENDMDL
MODEL 2
REMARK VINA RESULT:      -6.0      2.746      4.413
REMARK  Name = 
REMARK  3 active torsions:
REMARK  status: ('A' for Active; 'I' for Inactive)
REMARK    1  A    between atoms: C_2  and  C_3
REMARK    2  A    between atoms: C_11  and  C_12
REMARK    3  A    between atoms: C_12  and  N_13
REMARK                            x       y       z     vdW  Elec       q    Type
REMARK                         _______ _______ _______ _____ _____    ______ ____
ROOT
ATOM      1  C   UNL     1     -12.238  14.243  71.068  0.00  0.00    -0.005 A 
ATOM      2  C   UNL     1     -11.800  14.812  69.876  0.00  0.00    +0.045 A 
ATOM      3  C   UNL     1     -11.456  14.107  68.657  0.00  0.00    +0.175 C 
ATOM      4  C   UNL     1     -10.828  15.049  67.484  0.00  0.00    +0.078 C 
ATOM      5  C   UNL     1      -9.544  15.476  68.449  0.00  0.00    +0.015 C 
ATOM      6  C   UNL     1     -10.205  16.600  69.243  0.00  0.00    +0.046 C 
ATOM      7  O   UNL     1     -12.267  13.254  68.229  0.00  0.00    -0.291 OA
ATOM      8  C   UNL     1     -11.236  16.031  70.159  0.00  0.00    +0.061 A 
ATOM      9  N   UNL     1     -11.730  16.364  71.374  0.00  0.00    -0.254 NA
ATOM     10  C   UNL     1     -12.165  15.254  72.012  0.00  0.00    +0.055 A 
ATOM     11  C   UNL     1     -12.425  15.124  73.473  0.00  0.00    +0.052 C 
ENDROOT
BRANCH   1  13
ATOM     12  C   UNL     1     -13.480  12.667  71.982  0.00  0.00    +0.005 C 
ATOM     13  C   UNL     1     -12.574  12.809  71.303  0.00  0.00    +0.028 C 
ENDBRANCH   1  13
BRANCH   4  14
ATOM     14  C   UNL     1      -9.997  13.763  66.842  0.00  0.00    +0.080 C 
BRANCH  14  15
ATOM     15  N   UNL     1     -10.187  13.886  65.420  0.00  0.00    -0.268 NA
ATOM     16  C   UNL     1     -11.149  14.887  65.047  0.00  0.00    +0.105 C 
ATOM     17  C   UNL     1     -12.476  14.294  64.693  0.00  0.00    +0.159 C 
ATOM     18  O   UNL     1     -12.439  13.346  63.697  0.00  0.00    -0.351 OA
ATOM     19  C   UNL     1     -11.301  12.575  63.663  0.00  0.00    +0.159 C 
ATOM     20  C   UNL     1     -10.515  12.573  64.940  0.00  0.00    +0.105 C 
ENDBRANCH  14  15
ENDBRANCH   4  14
TORSDOF 3
ENDMDL
MODEL 3
REMARK VINA RESULT:      -5.9      1.525      1.996
REMARK  Name = 
REMARK  3 active torsions:
REMARK  status: ('A' for Active; 'I' for Inactive)
REMARK    1  A    between atoms: C_2  and  C_3
REMARK    2  A    between atoms: C_11  and  C_12
REMARK    3  A    between atoms: C_12  and  N_13
REMARK                            x       y       z     vdW  Elec       q    Type
REMARK                         _______ _______ _______ _____ _____    ______ ____
ROOT
ATOM      1  C   UNL     1     -11.630  10.281  70.346  0.00  0.00    -0.005 A 
ATOM      2  C   UNL     1     -12.074  11.574  70.093  0.00  0.00    +0.045 A 
ATOM      3  C   UNL     1     -11.474  12.533  69.186  0.00  0.00    +0.175 C 
ATOM      4  C   UNL     1     -12.143  14.019  69.229  0.00  0.00    +0.078 C 
ATOM      5  C   UNL     1     -11.743  14.204  70.832  0.00  0.00    +0.015 C 
ATOM      6  C   UNL     1     -12.920  13.461  71.459  0.00  0.00    +0.046 C 
ATOM      7  O   UNL     1     -11.199  12.145  68.027  0.00  0.00    -0.291 OA
ATOM      8  C   UNL     1     -12.806  12.001  71.173  0.00  0.00    +0.061 A 
ATOM      9  N   UNL     1     -13.161  10.865  71.816  0.00  0.00    -0.254 NA
ATOM     10  C   UNL     1     -12.329   9.859  71.464  0.00  0.00    +0.055 A 
ATOM     11  C   UNL     1     -12.136   8.579  72.201  0.00  0.00    +0.052 C 
ENDROOT
BRANCH   1  13
ATOM     12  C   UNL     1      -9.515   9.687  70.155  0.00  0.00    +0.005 C 
ATOM     13  C   UNL     1     -10.528   9.561  69.644  0.00  0.00    +0.028 C 
ENDBRANCH   1  13
BRANCH   4  14
ATOM     14  C   UNL     1     -10.722  14.717  68.730  0.00  0.00    +0.080 C 
BRANCH  14  15
ATOM     15  N   UNL     1     -11.119  15.650  67.708  0.00  0.00    -0.268 NA
ATOM     16  C   UNL     1     -10.815  15.213  66.373  0.00  0.00    +0.105 C 
ATOM     17  C   UNL     1      -9.586  15.870  65.828  0.00  0.00    +0.159 C 
ATOM     18  O   UNL     1      -9.615  17.245  65.831  0.00  0.00    -0.351 OA
ATOM     19  C   UNL     1     -10.303  17.815  66.875  0.00  0.00    +0.159 C 
ATOM     20  C   UNL     1     -10.512  16.906  68.050  0.00  0.00    +0.105 C 
ENDBRANCH  14  15
ENDBRANCH   4  14
TORSDOF 3
ENDMDL
MODEL 4
REMARK VINA RESULT:      -5.9      1.798      3.177
REMARK  Name = 
REMARK  3 active torsions:
REMARK  status: ('A' for Active; 'I' for Inactive)
REMARK    1  A    between atoms: C_2  and  C_3
REMARK    2  A    between atoms: C_11  and  C_12
REMARK    3  A    between atoms: C_12  and  N_13
REMARK                            x       y       z     vdW  Elec       q    Type
REMARK                         _______ _______ _______ _____ _____    ______ ____
ROOT
ATOM      1  C   UNL     1     -12.205  14.600  70.830  0.00  0.00    -0.005 A 
ATOM      2  C   UNL     1     -11.428  14.549  69.678  0.00  0.00    +0.045 A 
ATOM      3  C   UNL     1     -10.982  15.678  68.885  0.00  0.00    +0.175 C 
ATOM      4  C   UNL     1     -10.213  15.276  67.505  0.00  0.00    +0.078 C 
ATOM      5  C   UNL     1     -11.559  14.486  66.931  0.00  0.00    +0.015 C 
ATOM      6  C   UNL     1     -11.368  13.146  67.637  0.00  0.00    +0.046 C 
ATOM      7  O   UNL     1     -10.452  16.640  69.488  0.00  0.00    -0.291 OA
ATOM      8  C   UNL     1     -11.584  13.312  69.104  0.00  0.00    +0.061 A 
ATOM      9  N   UNL     1     -12.054  12.528  70.100  0.00  0.00    -0.254 NA
ATOM     10  C   UNL     1     -12.608  13.296  71.066  0.00  0.00    +0.055 A 
ATOM     11  C   UNL     1     -13.548  12.835  72.126  0.00  0.00    +0.052 C 
ENDROOT
BRANCH   1  13
ATOM     12  C   UNL     1     -12.012  16.023  72.504  0.00  0.00    +0.005 C 
ATOM     13  C   UNL     1     -12.632  15.825  71.567  0.00  0.00    +0.028 C 
ENDBRANCH   1  13
BRANCH   4  14
ATOM     14  C   UNL     1     -10.670  16.702  66.789  0.00  0.00    +0.080 C 
BRANCH  14  15
ATOM     15  N   UNL     1      -9.475  17.177  66.140  0.00  0.00    -0.268 NA
ATOM     16  C   UNL     1      -8.270  16.559  66.619  0.00  0.00    +0.105 C 
ATOM     17  C   UNL     1      -7.526  17.435  67.578  0.00  0.00    +0.159 C 
ATOM     18  O   UNL     1      -7.203  18.681  67.093  0.00  0.00    -0.351 OA
ATOM     19  C   UNL     1      -8.114  19.223  66.217  0.00  0.00    +0.159 C 
ATOM     20  C   UNL     1      -9.479  18.606  66.282  0.00  0.00    +0.105 C 
ENDBRANCH  14  15
ENDBRANCH   4  14
TORSDOF 3
ENDMDL
MODEL 5
REMARK VINA RESULT:      -5.8      3.258      7.202
REMARK  Name = 
REMARK  3 active torsions:
REMARK  status: ('A' for Active; 'I' for Inactive)
REMARK    1  A    between atoms: C_2  and  C_3
REMARK    2  A    between atoms: C_11  and  C_12
REMARK    3  A    between atoms: C_12  and  N_13
REMARK                            x       y       z     vdW  Elec       q    Type
REMARK                         _______ _______ _______ _____ _____    ______ ____
ROOT
ATOM      1  C   UNL     1     -11.690  13.533  65.726  0.00  0.00    -0.005 A 
ATOM      2  C   UNL     1     -11.269  13.185  67.004  0.00  0.00    +0.045 A 
ATOM      3  C   UNL     1     -11.672  12.015  67.759  0.00  0.00    +0.175 C 
ATOM      4  C   UNL     1     -11.119  11.974  69.292  0.00  0.00    +0.078 C 
ATOM      5  C   UNL     1     -11.923  13.379  69.670  0.00  0.00    +0.015 C 
ATOM      6  C   UNL     1     -10.903  14.386  69.141  0.00  0.00    +0.046 C 
ATOM      7  O   UNL     1     -11.621  10.904  67.182  0.00  0.00    -0.291 OA
ATOM      8  C   UNL     1     -10.860  14.325  67.651  0.00  0.00    +0.061 A 
ATOM      9  N   UNL     1     -10.617  15.213  66.660  0.00  0.00    -0.254 NA
ATOM     10  C   UNL     1     -11.275  14.841  65.539  0.00  0.00    +0.055 A 
ATOM     11  C   UNL     1     -11.577  15.710  64.367  0.00  0.00    +0.052 C 
ENDROOT
BRANCH   1  13
ATOM     12  C   UNL     1     -11.939  12.216  63.974  0.00  0.00    +0.005 C 
ATOM     13  C   UNL     1     -12.536  12.714  64.810  0.00  0.00    +0.028 C 
ENDBRANCH   1  13
BRANCH   4  14
ATOM     14  C   UNL     1     -12.404  11.038  69.772  0.00  0.00    +0.080 C 
BRANCH  14  15
ATOM     15  N   UNL     1     -11.929  10.350  70.944  0.00  0.00    -0.268 NA
ATOM     16  C   UNL     1     -10.799   9.496  70.698  0.00  0.00    +0.105 C 
ATOM     17  C   UNL     1     -11.189   8.056  70.591  0.00  0.00    +0.159 C 
ATOM     18  O   UNL     1     -11.871   7.558  71.677  0.00  0.00    -0.351 OA
ATOM     19  C   UNL     1     -12.694   8.457  72.315  0.00  0.00    +0.159 C 
ATOM     20  C   UNL     1     -13.061   9.654  71.490  0.00  0.00    +0.105 C 
ENDBRANCH  14  15
ENDBRANCH   4  14
TORSDOF 3
ENDMDL
MODEL 6
REMARK VINA RESULT:      -5.8      3.381      5.883
REMARK  Name = 
REMARK  3 active torsions:
REMARK  status: ('A' for Active; 'I' for Inactive)
REMARK    1  A    between atoms: C_2  and  C_3
REMARK    2  A    between atoms: C_11  and  C_12
REMARK    3  A    between atoms: C_12  and  N_13
REMARK                            x       y       z     vdW  Elec       q    Type
REMARK                         _______ _______ _______ _____ _____    ______ ____
ROOT
ATOM      1  C   UNL     1     -10.872  11.767  64.907  0.00  0.00    -0.005 A 
ATOM      2  C   UNL     1     -11.147  11.685  66.267  0.00  0.00    +0.045 A 
ATOM      3  C   UNL     1     -11.578  12.769  67.129  0.00  0.00    +0.175 C 
ATOM      4  C   UNL     1     -11.669  12.382  68.710  0.00  0.00    +0.078 C 
ATOM      5  C   UNL     1     -10.046  12.028  68.765  0.00  0.00    +0.015 C 
ATOM      6  C   UNL     1     -10.095  10.599  68.230  0.00  0.00    +0.046 C 
ATOM      7  O   UNL     1     -12.531  13.481  66.736  0.00  0.00    -0.291 OA
ATOM      8  C   UNL     1     -10.464  10.613  66.784  0.00  0.00    +0.061 A 
ATOM      9  N   UNL     1     -10.178   9.839  65.713  0.00  0.00    -0.254 NA
ATOM     10  C   UNL     1     -10.235  10.580  64.583  0.00  0.00    +0.055 A 
ATOM     11  C   UNL     1      -9.640  10.223  63.265  0.00  0.00    +0.052 C 
ENDROOT
BRANCH   1  13
ATOM     12  C   UNL     1     -12.044  12.874  63.402  0.00  0.00    +0.005 C 
ATOM     13  C   UNL     1     -11.087  12.948  64.020  0.00  0.00    +0.028 C 
ENDBRANCH   1  13
BRANCH   4  14
ATOM     14  C   UNL     1     -11.403  13.960  69.151  0.00  0.00    +0.080 C 
BRANCH  14  15
ATOM     15  N   UNL     1     -12.527  14.295  69.986  0.00  0.00    -0.268 NA
ATOM     16  C   UNL     1     -12.459  15.615  70.551  0.00  0.00    +0.105 C 
ATOM     17  C   UNL     1     -12.010  15.598  71.978  0.00  0.00    +0.159 C 
ATOM     18  O   UNL     1     -12.771  14.815  72.815  0.00  0.00    -0.351 OA
ATOM     19  C   UNL     1     -13.301  13.685  72.239  0.00  0.00    +0.159 C 
ATOM     20  C   UNL     1     -12.620  13.256  70.974  0.00  0.00    +0.105 C 
ENDBRANCH  14  15
ENDBRANCH   4  14
TORSDOF 3
ENDMDL
MODEL 7
REMARK VINA RESULT:      -5.8      3.994      7.415
REMARK  Name = 
REMARK  3 active torsions:
REMARK  status: ('A' for Active; 'I' for Inactive)
REMARK    1  A    between atoms: C_2  and  C_3
REMARK    2  A    between atoms: C_11  and  C_12
REMARK    3  A    between atoms: C_12  and  N_13
REMARK                            x       y       z     vdW  Elec       q    Type
REMARK                         _______ _______ _______ _____ _____    ______ ____
ROOT
ATOM      1  C   UNL     1      -8.793  18.594  66.465  0.00  0.00    -0.005 A 
ATOM      2  C   UNL     1      -8.813  17.228  66.207  0.00  0.00    +0.045 A 
ATOM      3  C   UNL     1      -9.979  16.424  65.896  0.00  0.00    +0.175 C 
ATOM      4  C   UNL     1      -9.691  14.822  65.798  0.00  0.00    +0.078 C 
ATOM      5  C   UNL     1      -9.188  14.768  67.382  0.00  0.00    +0.015 C 
ATOM      6  C   UNL     1      -7.743  15.220  67.188  0.00  0.00    +0.046 C 
ATOM      7  O   UNL     1     -10.756  16.845  65.008  0.00  0.00    -0.291 OA
ATOM      8  C   UNL     1      -7.711  16.659  66.796  0.00  0.00    +0.061 A 
ATOM      9  N   UNL     1      -6.855  17.689  66.988  0.00  0.00    -0.254 NA
ATOM     10  C   UNL     1      -7.535  18.858  66.981  0.00  0.00    +0.055 A 
ATOM     11  C   UNL     1      -7.050  20.161  67.516  0.00  0.00    +0.052 C 
ENDROOT
BRANCH   1  13
ATOM     12  C   UNL     1     -10.565  19.610  67.296  0.00  0.00    +0.005 C 
ATOM     13  C   UNL     1      -9.938  19.543  66.345  0.00  0.00    +0.028 C 
ENDBRANCH   1  13
BRANCH   4  14
ATOM     14  C   UNL     1     -11.259  14.475  66.221  0.00  0.00    +0.080 C 
BRANCH  14  15
ATOM     15  N   UNL     1     -11.585  13.299  65.456  0.00  0.00    -0.268 NA
ATOM     16  C   UNL     1     -11.638  12.094  66.239  0.00  0.00    +0.105 C 
ATOM     17  C   UNL     1     -10.399  11.267  66.091  0.00  0.00    +0.159 C 
ATOM     18  O   UNL     1     -10.085  10.922  64.797  0.00  0.00    -0.351 OA
ATOM     19  C   UNL     1     -10.416  11.856  63.844  0.00  0.00    +0.159 C 
ATOM     20  C   UNL     1     -10.634  13.239  64.381  0.00  0.00    +0.105 C 
ENDBRANCH  14  15
ENDBRANCH   4  14
TORSDOF 3
ENDMDL
MODEL 8
REMARK VINA RESULT:      -5.8      1.144      1.301
REMARK  Name = 
REMARK  3 active torsions:
REMARK  status: ('A' for Active; 'I' for Inactive)
REMARK    1  A    between atoms: C_2  and  C_3
REMARK    2  A    between atoms: C_11  and  C_12
REMARK    3  A    between atoms: C_12  and  N_13
REMARK                            x       y       z     vdW  Elec       q    Type
REMARK                         _______ _______ _______ _____ _____    ______ ____
ROOT
ATOM      1  C   UNL     1     -11.757  12.136  69.064  0.00  0.00    -0.005 A 
ATOM      2  C   UNL     1     -11.891  13.517  69.145  0.00  0.00    +0.045 A 
ATOM      3  C   UNL     1     -11.370  14.493  68.208  0.00  0.00    +0.175 C 
ATOM      4  C   UNL     1     -11.564  16.045  68.666  0.00  0.00    +0.078 C 
ATOM      5  C   UNL     1     -10.647  15.805  70.032  0.00  0.00    +0.015 C 
ATOM      6  C   UNL     1     -11.723  15.216  70.942  0.00  0.00    +0.046 C 
ATOM      7  O   UNL     1     -11.588  14.303  66.989  0.00  0.00    -0.291 OA
ATOM      8  C   UNL     1     -12.103  13.856  70.458  0.00  0.00    +0.061 A 
ATOM      9  N   UNL     1     -12.532  12.714  71.043  0.00  0.00    -0.254 NA
ATOM     10  C   UNL     1     -12.157  11.650  70.298  0.00  0.00    +0.055 A 
ATOM     11  C   UNL     1     -12.097  10.233  70.757  0.00  0.00    +0.052 C 
ENDROOT
BRANCH   1  13
ATOM     12  C   UNL     1     -10.038  11.228  68.023  0.00  0.00    +0.005 C 
ATOM     13  C   UNL     1     -11.169  11.359  67.935  0.00  0.00    +0.028 C 
ENDBRANCH   1  13
BRANCH   4  14
ATOM     14  C   UNL     1     -10.237  16.513  67.784  0.00  0.00    +0.080 C 
BRANCH  14  15
ATOM     15  N   UNL     1     -10.001  17.875  68.186  0.00  0.00    -0.268 NA
ATOM     16  C   UNL     1     -10.669  18.847  67.364  0.00  0.00    +0.105 C 
ATOM     17  C   UNL     1      -9.746  19.480  66.370  0.00  0.00    +0.159 C 
ATOM     18  O   UNL     1      -8.631  20.075  66.914  0.00  0.00    -0.351 OA
ATOM     19  C   UNL     1      -8.130  19.463  68.039  0.00  0.00    +0.159 C 
ATOM     20  C   UNL     1      -8.575  18.043  68.224  0.00  0.00    +0.105 C 
ENDBRANCH  14  15
ENDBRANCH   4  14
TORSDOF 3
ENDMDL
MODEL 9
REMARK VINA RESULT:      -5.7      4.129      5.764
REMARK  Name = 
REMARK  3 active torsions:
REMARK  status: ('A' for Active; 'I' for Inactive)
REMARK    1  A    between atoms: C_2  and  C_3
REMARK    2  A    between atoms: C_11  and  C_12
REMARK    3  A    between atoms: C_12  and  N_13
REMARK                            x       y       z     vdW  Elec       q    Type
REMARK                         _______ _______ _______ _____ _____    ______ ____
ROOT
ATOM      1  C   UNL     1     -10.069  15.326  65.705  0.00  0.00    -0.005 A 
ATOM      2  C   UNL     1      -9.548  16.594  65.940  0.00  0.00    +0.045 A 
ATOM      3  C   UNL     1      -8.574  16.955  66.951  0.00  0.00    +0.175 C 
ATOM      4  C   UNL     1      -8.283  18.555  67.071  0.00  0.00    +0.078 C 
ATOM      5  C   UNL     1      -9.869  18.862  67.463  0.00  0.00    +0.015 C 
ATOM      6  C   UNL     1     -10.461  18.895  66.056  0.00  0.00    +0.046 C 
ATOM      7  O   UNL     1      -7.541  16.253  67.042  0.00  0.00    -0.291 OA
ATOM      8  C   UNL     1     -10.441  17.523  65.468  0.00  0.00    +0.061 A 
ATOM      9  N   UNL     1     -11.218  16.841  64.596  0.00  0.00    -0.254 NA
ATOM     10  C   UNL     1     -11.147  15.516  64.858  0.00  0.00    +0.055 A 
ATOM     11  C   UNL     1     -12.107  14.476  64.394  0.00  0.00    +0.052 C 
ENDROOT
BRANCH   1  13
ATOM     12  C   UNL     1     -10.178  13.846  67.337  0.00  0.00    +0.005 C 
ATOM     13  C   UNL     1      -9.641  14.051  66.351  0.00  0.00    +0.028 C 
ENDBRANCH   1  13
BRANCH   4  14
ATOM     14  C   UNL     1      -7.854  18.397  68.667  0.00  0.00    +0.080 C 
BRANCH  14  15
ATOM     15  N   UNL     1      -6.501  18.886  68.726  0.00  0.00    -0.268 NA
ATOM     16  C   UNL     1      -5.896  18.765  70.023  0.00  0.00    +0.105 C 
ATOM     17  C   UNL     1      -5.893  20.061  70.772  0.00  0.00    +0.159 C 
ATOM     18  O   UNL     1      -5.288  21.107  70.115  0.00  0.00    -0.351 OA
ATOM     19  C   UNL     1      -5.417  21.094  68.746  0.00  0.00    +0.159 C 
ATOM     20  C   UNL     1      -6.538  20.237  68.238  0.00  0.00    +0.105 C 
ENDBRANCH  14  15
ENDBRANCH   4  14
TORSDOF 3
ENDMDL
