MODEL 1
REMARK VINA RESULT:      -5.9      0.000      0.000
REMARK  Name = 
REMARK  5 active torsions:
REMARK  status: ('A' for Active; 'I' for Inactive)
REMARK    1  A    between atoms: O_2  and  C_3
REMARK    2  A    between atoms: C_6  and  C_7
REMARK    3  A    between atoms: C_7  and  C_8
REMARK    4  A    between atoms: C_7  and  C_12
REMARK    5  A    between atoms: C_8  and  N_9
REMARK                            x       y       z     vdW  Elec       q    Type
REMARK                         _______ _______ _______ _____ _____    ______ ____
ROOT
ATOM      1  C   UNL     1      -9.173  16.169  66.109  0.00  0.00    +0.066 C 
ENDROOT
BRANCH   1   2
ATOM      2  C   UNL     1      -9.386  17.668  66.722  0.00  0.00    +0.132 C 
ATOM      3  C   UNL     1      -9.393  17.620  68.195  0.00  0.00    +0.031 C 
ATOM      4  C   UNL     1      -9.201  19.058  68.627  0.00  0.00    +0.003 C 
ATOM      5  C   UNL     1     -10.033  20.042  67.900  0.00  0.00    +0.000 C 
ATOM      6  C   UNL     1     -10.208  19.847  66.439  0.00  0.00    +0.003 C 
ATOM      7  C   UNL     1     -10.450  18.399  66.047  0.00  0.00    +0.031 C 
ATOM      8  O   UNL     1      -8.168  18.262  66.347  0.00  0.00    -0.225 OA
ENDBRANCH   1   2
BRANCH   1  12
ATOM      9  C   UNL     1     -12.523  13.760  65.269  0.00  0.00    +0.139 A 
ATOM     10  C   UNL     1     -12.025  14.691  64.366  0.00  0.00    +0.037 A 
ATOM     11  C   UNL     1     -11.199  15.721  64.802  0.00  0.00    -0.001 A 
ATOM     12  C   UNL     1     -10.746  15.780  66.120  0.00  0.00    -0.019 A 
ATOM     13  C   UNL     1     -11.172  14.789  66.925  0.00  0.00    -0.001 A 
ATOM     14  C   UNL     1     -12.314  14.062  66.604  0.00  0.00    +0.037 A 
BRANCH   9  16
ATOM     15  C   UNL     1     -12.444  12.052  63.694  0.00  0.00    +0.252 C 
ATOM     16  O   UNL     1     -12.899  12.482  64.842  0.00  0.00    -0.471 OA
ENDBRANCH   9  16
ENDBRANCH   1  12
BRANCH   1  17
ATOM     17  C   UNL     1      -8.840  15.493  67.584  0.00  0.00    +0.079 C 
BRANCH  17  18
ATOM     18  N   UNL     1      -7.686  14.707  67.167  0.00  0.00    -0.270 NA
ATOM     19  C   UNL     1      -6.476  15.377  67.535  0.00  0.00    +0.090 C 
ATOM     20  C   UNL     1      -7.758  13.329  67.513  0.00  0.00    +0.090 C 
ENDBRANCH  17  18
ENDBRANCH   1  17
TORSDOF 5
ENDMDL
MODEL 2
REMARK VINA RESULT:      -5.7      3.681      5.901
REMARK  Name = 
REMARK  5 active torsions:
REMARK  status: ('A' for Active; 'I' for Inactive)
REMARK    1  A    between atoms: O_2  and  C_3
REMARK    2  A    between atoms: C_6  and  C_7
REMARK    3  A    between atoms: C_7  and  C_8
REMARK    4  A    between atoms: C_7  and  C_12
REMARK    5  A    between atoms: C_8  and  N_9
REMARK                            x       y       z     vdW  Elec       q    Type
REMARK                         _______ _______ _______ _____ _____    ______ ____
ROOT
ATOM      1  C   UNL     1     -10.478  14.306  68.641  0.00  0.00    +0.066 C 
ENDROOT
BRANCH   1   2
ATOM      2  C   UNL     1     -11.041  13.654  67.253  0.00  0.00    +0.132 C 
ATOM      3  C   UNL     1     -12.160  14.457  66.730  0.00  0.00    +0.031 C 
ATOM      4  C   UNL     1     -12.323  14.001  65.296  0.00  0.00    +0.003 C 
ATOM      5  C   UNL     1     -12.292  12.534  65.103  0.00  0.00    +0.000 C 
ATOM      6  C   UNL     1     -11.307  11.758  65.897  0.00  0.00    +0.003 C 
ATOM      7  C   UNL     1     -11.207  12.210  67.344  0.00  0.00    +0.031 C 
ATOM      8  O   UNL     1      -9.945  13.895  66.406  0.00  0.00    -0.225 OA
ENDBRANCH   1   2
BRANCH   1  12
ATOM      9  C   UNL     1     -13.100  14.332  71.936  0.00  0.00    +0.139 A 
ATOM     10  C   UNL     1     -12.649  13.157  71.346  0.00  0.00    +0.037 A 
ATOM     11  C   UNL     1     -12.127  13.172  70.058  0.00  0.00    -0.001 A 
ATOM     12  C   UNL     1     -11.923  14.369  69.372  0.00  0.00    -0.019 A 
ATOM     13  C   UNL     1     -12.276  15.485  70.035  0.00  0.00    -0.001 A 
ATOM     14  C   UNL     1     -13.182  15.424  71.088  0.00  0.00    +0.037 A 
BRANCH   9  16
ATOM     15  C   UNL     1     -12.559  15.499  73.872  0.00  0.00    +0.252 C 
ATOM     16  O   UNL     1     -13.141  14.462  73.328  0.00  0.00    -0.471 OA
ENDBRANCH   9  16
ENDBRANCH   1  12
BRANCH   1  17
ATOM     17  C   UNL     1     -10.533  15.857  68.064  0.00  0.00    +0.079 C 
BRANCH  17  18
ATOM     18  N   UNL     1      -9.142  16.200  68.333  0.00  0.00    -0.270 NA
ATOM     19  C   UNL     1      -9.012  17.611  68.533  0.00  0.00    +0.090 C 
ATOM     20  C   UNL     1      -8.514  15.377  69.309  0.00  0.00    +0.090 C 
ENDBRANCH  17  18
ENDBRANCH   1  17
TORSDOF 5
ENDMDL
MODEL 3
REMARK VINA RESULT:      -5.3      1.925      2.677
REMARK  Name = 
REMARK  5 active torsions:
REMARK  status: ('A' for Active; 'I' for Inactive)
REMARK    1  A    between atoms: O_2  and  C_3
REMARK    2  A    between atoms: C_6  and  C_7
REMARK    3  A    between atoms: C_7  and  C_8
REMARK    4  A    between atoms: C_7  and  C_12
REMARK    5  A    between atoms: C_8  and  N_9
REMARK                            x       y       z     vdW  Elec       q    Type
REMARK                         _______ _______ _______ _____ _____    ______ ____
ROOT
ATOM      1  C   UNL     1      -9.603  15.785  68.059  0.00  0.00    +0.066 C 
ENDROOT
BRANCH   1   2
ATOM      2  C   UNL     1      -9.309  17.334  67.630  0.00  0.00    +0.132 C 
ATOM      3  C   UNL     1     -10.563  18.108  67.623  0.00  0.00    +0.031 C 
ATOM      4  C   UNL     1     -10.121  19.555  67.605  0.00  0.00    +0.003 C 
ATOM      5  C   UNL     1      -9.039  19.863  66.644  0.00  0.00    +0.000 C 
ATOM      6  C   UNL     1      -7.941  18.873  66.507  0.00  0.00    +0.003 C 
ATOM      7  C   UNL     1      -8.426  17.433  66.476  0.00  0.00    +0.031 C 
ATOM      8  O   UNL     1      -8.580  17.764  68.752  0.00  0.00    -0.225 OA
ENDBRANCH   1   2
BRANCH   1  12
ATOM      9  C   UNL     1     -11.191  13.323  65.034  0.00  0.00    +0.139 A 
ATOM     10  C   UNL     1     -10.098  12.950  65.806  0.00  0.00    +0.037 A 
ATOM     11  C   UNL     1      -9.366  13.909  66.498  0.00  0.00    -0.001 A 
ATOM     12  C   UNL     1      -9.775  15.242  66.542  0.00  0.00    -0.019 A 
ATOM     13  C   UNL     1     -10.903  15.525  65.866  0.00  0.00    -0.001 A 
ATOM     14  C   UNL     1     -11.345  14.687  64.848  0.00  0.00    +0.037 A 
BRANCH   9  16
ATOM     15  C   UNL     1     -12.440  12.081  63.516  0.00  0.00    +0.252 C 
ATOM     16  O   UNL     1     -12.217  12.411  64.762  0.00  0.00    -0.471 OA
ENDBRANCH   9  16
ENDBRANCH   1  12
BRANCH   1  17
ATOM     17  C   UNL     1     -11.220  16.045  68.309  0.00  0.00    +0.079 C 
BRANCH  17  18
ATOM     18  N   UNL     1     -11.366  15.176  69.470  0.00  0.00    -0.270 NA
ATOM     19  C   UNL     1     -11.827  15.931  70.594  0.00  0.00    +0.090 C 
ATOM     20  C   UNL     1     -12.064  13.964  69.211  0.00  0.00    +0.090 C 
ENDBRANCH  17  18
ENDBRANCH   1  17
TORSDOF 5
ENDMDL
MODEL 4
REMARK VINA RESULT:      -5.3      1.833      5.898
REMARK  Name = 
REMARK  5 active torsions:
REMARK  status: ('A' for Active; 'I' for Inactive)
REMARK    1  A    between atoms: O_2  and  C_3
REMARK    2  A    between atoms: C_6  and  C_7
REMARK    3  A    between atoms: C_7  and  C_8
REMARK    4  A    between atoms: C_7  and  C_12
REMARK    5  A    between atoms: C_8  and  N_9
REMARK                            x       y       z     vdW  Elec       q    Type
REMARK                         _______ _______ _______ _____ _____    ______ ____
ROOT
ATOM      1  C   UNL     1     -11.194  14.207  66.812  0.00  0.00    +0.066 C 
ENDROOT
BRANCH   1   2
ATOM      2  C   UNL     1     -11.242  13.115  65.598  0.00  0.00    +0.132 C 
ATOM      3  C   UNL     1     -10.053  12.247  65.646  0.00  0.00    +0.031 C 
ATOM      4  C   UNL     1     -10.399  11.072  64.756  0.00  0.00    +0.003 C 
ATOM      5  C   UNL     1     -11.018  11.434  63.462  0.00  0.00    +0.000 C 
ATOM      6  C   UNL     1     -12.015  12.533  63.461  0.00  0.00    +0.003 C 
ATOM      7  C   UNL     1     -11.611  13.717  64.324  0.00  0.00    +0.031 C 
ATOM      8  O   UNL     1     -12.329  12.329  66.019  0.00  0.00    -0.225 OA
ENDBRANCH   1   2
BRANCH   1  12
ATOM      9  C   UNL     1      -8.457  17.404  66.658  0.00  0.00    +0.139 A 
ATOM     10  C   UNL     1      -9.771  17.521  66.220  0.00  0.00    +0.037 A 
ATOM     11  C   UNL     1     -10.514  16.386  65.915  0.00  0.00    -0.001 A 
ATOM     12  C   UNL     1     -10.015  15.105  66.157  0.00  0.00    -0.019 A 
ATOM     13  C   UNL     1      -8.779  15.055  66.685  0.00  0.00    -0.001 A 
ATOM     14  C   UNL     1      -7.912  16.135  66.558  0.00  0.00    +0.037 A 
BRANCH   9  16
ATOM     15  C   UNL     1      -8.509  18.822  68.500  0.00  0.00    +0.252 C 
ATOM     16  O   UNL     1      -7.872  18.410  67.435  0.00  0.00    -0.471 OA
ENDBRANCH   9  16
ENDBRANCH   1  12
BRANCH   1  17
ATOM     17  C   UNL     1     -10.181  13.288  67.747  0.00  0.00    +0.079 C 
BRANCH  17  18
ATOM     18  N   UNL     1     -10.980  13.320  68.965  0.00  0.00    -0.270 NA
ATOM     19  C   UNL     1     -11.891  14.422  68.927  0.00  0.00    +0.090 C 
ATOM     20  C   UNL     1     -11.543  12.065  69.330  0.00  0.00    +0.090 C 
ENDBRANCH  17  18
ENDBRANCH   1  17
TORSDOF 5
ENDMDL
MODEL 5
REMARK VINA RESULT:      -5.3      3.595      4.742
REMARK  Name = 
REMARK  5 active torsions:
REMARK  status: ('A' for Active; 'I' for Inactive)
REMARK    1  A    between atoms: O_2  and  C_3
REMARK    2  A    between atoms: C_6  and  C_7
REMARK    3  A    between atoms: C_7  and  C_8
REMARK    4  A    between atoms: C_7  and  C_12
REMARK    5  A    between atoms: C_8  and  N_9
REMARK                            x       y       z     vdW  Elec       q    Type
REMARK                         _______ _______ _______ _____ _____    ______ ____
ROOT
ATOM      1  C   UNL     1     -11.595  15.596  69.093  0.00  0.00    +0.066 C 
ENDROOT
BRANCH   1   2
ATOM      2  C   UNL     1     -12.241  15.228  70.548  0.00  0.00    +0.132 C 
ATOM      3  C   UNL     1     -11.537  15.958  71.617  0.00  0.00    +0.031 C 
ATOM      4  C   UNL     1     -12.448  15.848  72.821  0.00  0.00    +0.003 C 
ATOM      5  C   UNL     1     -12.995  14.495  73.065  0.00  0.00    +0.000 C 
ATOM      6  C   UNL     1     -13.423  13.705  71.884  0.00  0.00    +0.003 C 
ATOM      7  C   UNL     1     -12.459  13.797  70.713  0.00  0.00    +0.031 C 
ATOM      8  O   UNL     1     -13.504  15.830  70.416  0.00  0.00    -0.225 OA
ENDBRANCH   1   2
BRANCH   1  12
ATOM      9  C   UNL     1     -10.651  12.519  66.377  0.00  0.00    +0.139 A 
ATOM     10  C   UNL     1     -11.818  13.270  66.284  0.00  0.00    +0.037 A 
ATOM     11  C   UNL     1     -12.286  13.981  67.383  0.00  0.00    -0.001 A 
ATOM     12  C   UNL     1     -11.545  14.066  68.562  0.00  0.00    -0.019 A 
ATOM     13  C   UNL     1     -10.371  13.410  68.557  0.00  0.00    -0.001 A 
ATOM     14  C   UNL     1     -10.144  12.374  67.658  0.00  0.00    +0.037 A 
BRANCH   9  16
ATOM     15  C   UNL     1     -10.468  12.343  64.067  0.00  0.00    +0.252 C 
ATOM     16  O   UNL     1      -9.894  12.232  65.237  0.00  0.00    -0.471 OA
ENDBRANCH   9  16
ENDBRANCH   1  12
BRANCH   1  17
ATOM     17  C   UNL     1     -10.040  15.609  69.663  0.00  0.00    +0.079 C 
BRANCH  17  18
ATOM     18  N   UNL     1      -9.590  16.789  68.936  0.00  0.00    -0.270 NA
ATOM     19  C   UNL     1      -8.319  16.539  68.329  0.00  0.00    +0.090 C 
ATOM     20  C   UNL     1     -10.577  17.367  68.089  0.00  0.00    +0.090 C 
ENDBRANCH  17  18
ENDBRANCH   1  17
TORSDOF 5
ENDMDL
MODEL 6
REMARK VINA RESULT:      -5.3      3.570      5.890
REMARK  Name = 
REMARK  5 active torsions:
REMARK  status: ('A' for Active; 'I' for Inactive)
REMARK    1  A    between atoms: O_2  and  C_3
REMARK    2  A    between atoms: C_6  and  C_7
REMARK    3  A    between atoms: C_7  and  C_8
REMARK    4  A    between atoms: C_7  and  C_12
REMARK    5  A    between atoms: C_8  and  N_9
REMARK                            x       y       z     vdW  Elec       q    Type
REMARK                         _______ _______ _______ _____ _____    ______ ____
ROOT
ATOM      1  C   UNL     1     -11.012  14.335  69.523  0.00  0.00    +0.066 C 
ENDROOT
BRANCH   1   2
ATOM      2  C   UNL     1     -11.995  14.690  70.779  0.00  0.00    +0.132 C 
ATOM      3  C   UNL     1     -13.265  15.253  70.289  0.00  0.00    +0.031 C 
ATOM      4  C   UNL     1     -14.205  15.169  71.473  0.00  0.00    +0.003 C 
ATOM      5  C   UNL     1     -13.627  15.618  72.759  0.00  0.00    +0.000 C 
ATOM      6  C   UNL     1     -12.221  15.239  73.049  0.00  0.00    +0.003 C 
ATOM      7  C   UNL     1     -11.296  15.386  71.852  0.00  0.00    +0.031 C 
ATOM      8  O   UNL     1     -12.283  13.394  71.240  0.00  0.00    -0.225 OA
ENDBRANCH   1   2
BRANCH   1  12
ATOM      9  C   UNL     1      -9.071  17.496  67.531  0.00  0.00    +0.139 A 
ATOM     10  C   UNL     1      -8.380  16.523  68.243  0.00  0.00    +0.037 A 
ATOM     11  C   UNL     1      -9.036  15.749  69.194  0.00  0.00    -0.001 A 
ATOM     12  C   UNL     1     -10.418  15.834  69.372  0.00  0.00    -0.019 A 
ATOM     13  C   UNL     1     -11.051  16.716  68.576  0.00  0.00    -0.001 A 
ATOM     14  C   UNL     1     -10.352  17.762  67.985  0.00  0.00    +0.037 A 
BRANCH   9  16
ATOM     15  C   UNL     1      -8.086  19.102  66.168  0.00  0.00    +0.252 C 
ATOM     16  O   UNL     1      -8.622  17.914  66.273  0.00  0.00    -0.471 OA
ENDBRANCH   9  16
ENDBRANCH   1  12
BRANCH   1  17
ATOM     17  C   UNL     1     -12.206  14.531  68.391  0.00  0.00    +0.079 C 
BRANCH  17  18
ATOM     18  N   UNL     1     -11.674  13.599  67.405  0.00  0.00    -0.270 NA
ATOM     19  C   UNL     1     -11.682  12.269  67.930  0.00  0.00    +0.090 C 
ATOM     20  C   UNL     1     -12.221  13.752  66.100  0.00  0.00    +0.090 C 
ENDBRANCH  17  18
ENDBRANCH   1  17
TORSDOF 5
ENDMDL
MODEL 7
REMARK VINA RESULT:      -5.2      3.303      5.914
REMARK  Name = 
REMARK  5 active torsions:
REMARK  status: ('A' for Active; 'I' for Inactive)
REMARK    1  A    between atoms: O_2  and  C_3
REMARK    2  A    between atoms: C_6  and  C_7
REMARK    3  A    between atoms: C_7  and  C_8
REMARK    4  A    between atoms: C_7  and  C_12
REMARK    5  A    between atoms: C_8  and  N_9
REMARK                            x       y       z     vdW  Elec       q    Type
REMARK                         _______ _______ _______ _____ _____    ______ ____
ROOT
ATOM      1  C   UNL     1     -10.325  12.999  68.270  0.00  0.00    +0.066 C 
ENDROOT
BRANCH   1   2
ATOM      2  C   UNL     1     -11.030  12.735  66.819  0.00  0.00    +0.132 C 
ATOM      3  C   UNL     1     -10.075  12.096  65.897  0.00  0.00    +0.031 C 
ATOM      4  C   UNL     1     -10.930  11.561  64.769  0.00  0.00    +0.003 C 
ATOM      5  C   UNL     1     -11.953  12.503  64.263  0.00  0.00    +0.000 C 
ATOM      6  C   UNL     1     -12.680  13.327  65.260  0.00  0.00    +0.003 C 
ATOM      7  C   UNL     1     -11.781  13.891  66.349  0.00  0.00    +0.031 C 
ATOM      8  O   UNL     1     -11.964  11.747  67.176  0.00  0.00    -0.225 OA
ENDBRANCH   1   2
BRANCH   1  12
ATOM      9  C   UNL     1     -12.375  15.165  71.243  0.00  0.00    +0.139 A 
ATOM     10  C   UNL     1     -12.405  13.777  71.171  0.00  0.00    +0.037 A 
ATOM     11  C   UNL     1     -12.067  13.126  69.990  0.00  0.00    -0.001 A 
ATOM     12  C   UNL     1     -11.571  13.827  68.891  0.00  0.00    -0.019 A 
ATOM     13  C   UNL     1     -11.458  15.158  69.055  0.00  0.00    -0.001 A 
ATOM     14  C   UNL     1     -12.200  15.814  70.032  0.00  0.00    +0.037 A 
BRANCH   9  16
ATOM     15  C   UNL     1     -12.587  15.197  73.558  0.00  0.00    +0.252 C 
ATOM     16  O   UNL     1     -12.201  15.812  72.470  0.00  0.00    -0.471 OA
ENDBRANCH   9  16
ENDBRANCH   1  12
BRANCH   1  17
ATOM     17  C   UNL     1      -9.499  14.336  67.749  0.00  0.00    +0.079 C 
BRANCH  17  18
ATOM     18  N   UNL     1      -8.250  14.062  68.449  0.00  0.00    -0.270 NA
ATOM     19  C   UNL     1      -7.263  13.591  67.527  0.00  0.00    +0.090 C 
ATOM     20  C   UNL     1      -7.831  15.099  69.328  0.00  0.00    +0.090 C 
ENDBRANCH  17  18
ENDBRANCH   1  17
TORSDOF 5
ENDMDL
MODEL 8
REMARK VINA RESULT:      -5.2      1.269      1.587
REMARK  Name = 
REMARK  5 active torsions:
REMARK  status: ('A' for Active; 'I' for Inactive)
REMARK    1  A    between atoms: O_2  and  C_3
REMARK    2  A    between atoms: C_6  and  C_7
REMARK    3  A    between atoms: C_7  and  C_8
REMARK    4  A    between atoms: C_7  and  C_12
REMARK    5  A    between atoms: C_8  and  N_9
REMARK                            x       y       z     vdW  Elec       q    Type
REMARK                         _______ _______ _______ _____ _____    ______ ____
ROOT
ATOM      1  C   UNL     1      -8.708  16.296  66.162  0.00  0.00    +0.066 C 
ENDROOT
BRANCH   1   2
ATOM      2  C   UNL     1      -9.002  17.819  66.676  0.00  0.00    +0.132 C 
ATOM      3  C   UNL     1     -10.365  18.230  66.296  0.00  0.00    +0.031 C 
ATOM      4  C   UNL     1     -10.647  19.453  67.141  0.00  0.00    +0.003 C 
ATOM      5  C   UNL     1      -9.547  20.442  67.192  0.00  0.00    +0.000 C 
ATOM      6  C   UNL     1      -8.161  19.921  67.290  0.00  0.00    +0.003 C 
ATOM      7  C   UNL     1      -7.899  18.725  66.389  0.00  0.00    +0.031 C 
ATOM      8  O   UNL     1      -9.020  17.610  68.066  0.00  0.00    -0.225 OA
ENDBRANCH   1   2
BRANCH   1  12
ATOM      9  C   UNL     1     -11.801  13.441  66.249  0.00  0.00    +0.139 A 
ATOM     10  C   UNL     1     -11.355  14.027  65.070  0.00  0.00    +0.037 A 
ATOM     11  C   UNL     1     -10.639  15.218  65.105  0.00  0.00    -0.001 A 
ATOM     12  C   UNL     1     -10.239  15.790  66.313  0.00  0.00    -0.019 A 
ATOM     13  C   UNL     1     -10.605  15.120  67.421  0.00  0.00    -0.001 A 
ATOM     14  C   UNL     1     -11.666  14.222  67.385  0.00  0.00    +0.037 A 
BRANCH   9  16
ATOM     15  C   UNL     1     -11.222  11.317  66.999  0.00  0.00    +0.252 C 
ATOM     16  O   UNL     1     -12.048  12.065  66.314  0.00  0.00    -0.471 OA
ENDBRANCH   9  16
ENDBRANCH   1  12
BRANCH   1  17
ATOM     17  C   UNL     1      -8.227  15.767  67.657  0.00  0.00    +0.079 C 
BRANCH  17  18
ATOM     18  N   UNL     1      -7.020  15.075  67.224  0.00  0.00    -0.270 NA
ATOM     19  C   UNL     1      -5.860  15.791  67.660  0.00  0.00    +0.090 C 
ATOM     20  C   UNL     1      -7.018  13.677  67.488  0.00  0.00    +0.090 C 
ENDBRANCH  17  18
ENDBRANCH   1  17
TORSDOF 5
ENDMDL
MODEL 9
REMARK VINA RESULT:      -5.2      2.454      6.097
REMARK  Name = 
REMARK  5 active torsions:
REMARK  status: ('A' for Active; 'I' for Inactive)
REMARK    1  A    between atoms: O_2  and  C_3
REMARK    2  A    between atoms: C_6  and  C_7
REMARK    3  A    between atoms: C_7  and  C_8
REMARK    4  A    between atoms: C_7  and  C_12
REMARK    5  A    between atoms: C_8  and  N_9
REMARK                            x       y       z     vdW  Elec       q    Type
REMARK                         _______ _______ _______ _____ _____    ______ ____
ROOT
ATOM      1  C   UNL     1     -10.587  13.531  65.998  0.00  0.00    +0.066 C 
ENDROOT
BRANCH   1   2
ATOM      2  C   UNL     1     -10.259  12.248  66.956  0.00  0.00    +0.132 C 
ATOM      3  C   UNL     1     -11.491  11.769  67.606  0.00  0.00    +0.031 C 
ATOM      4  C   UNL     1     -11.141  10.392  68.126  0.00  0.00    +0.003 C 
ATOM      5  C   UNL     1      -9.837  10.302  68.821  0.00  0.00    +0.000 C 
ATOM      6  C   UNL     1      -8.699  11.060  68.243  0.00  0.00    +0.003 C 
ATOM      7  C   UNL     1      -9.076  12.457  67.779  0.00  0.00    +0.031 C 
ATOM      8  O   UNL     1      -9.925  11.293  65.980  0.00  0.00    -0.225 OA
ENDBRANCH   1   2
BRANCH   1  12
ATOM      9  C   UNL     1     -10.462  17.407  67.640  0.00  0.00    +0.139 A 
ATOM     10  C   UNL     1      -9.507  16.941  66.743  0.00  0.00    +0.037 A 
ATOM     11  C   UNL     1      -9.346  15.576  66.533  0.00  0.00    -0.001 A 
ATOM     12  C   UNL     1     -10.210  14.646  67.111  0.00  0.00    -0.019 A 
ATOM     13  C   UNL     1     -11.185  15.161  67.883  0.00  0.00    -0.001 A 
ATOM     14  C   UNL     1     -11.056  16.434  68.427  0.00  0.00    +0.037 A 
BRANCH   9  16
ATOM     15  C   UNL     1     -10.233  19.716  67.781  0.00  0.00    +0.252 C 
ATOM     16  O   UNL     1     -10.999  18.692  67.507  0.00  0.00    -0.471 OA
ENDBRANCH   9  16
ENDBRANCH   1  12
BRANCH   1  17
ATOM     17  C   UNL     1     -12.207  13.514  66.344  0.00  0.00    +0.079 C 
BRANCH  17  18
ATOM     18  N   UNL     1     -12.686  13.636  64.973  0.00  0.00    -0.270 NA
ATOM     19  C   UNL     1     -12.216  14.856  64.394  0.00  0.00    +0.090 C 
ATOM     20  C   UNL     1     -12.505  12.467  64.183  0.00  0.00    +0.090 C 
ENDBRANCH  17  18
ENDBRANCH   1  17
TORSDOF 5
ENDMDL
