MODEL 1
REMARK VINA RESULT:      -6.0      0.000      0.000
REMARK  Name = 
REMARK  9 active torsions:
REMARK  status: ('A' for Active; 'I' for Inactive)
REMARK    1  A    between atoms: C_2  and  C_3
REMARK    2  A    between atoms: C_2  and  C_18
REMARK    3  A    between atoms: C_3  and  C_4
REMARK    4  A    between atoms: C_4  and  C_5
REMARK    5  A    between atoms: N_7  and  C_8
REMARK    6  A    between atoms: C_8  and  C_9
REMARK    7  A    between atoms: C_8  and  C_11
REMARK    8  A    between atoms: N_13  and  CA_14
REMARK    9  A    between atoms: CA_14  and  C_15
REMARK                            x       y       z     vdW  Elec       q    Type
REMARK                         _______ _______ _______ _____ _____    ______ ____
ROOT
ATOM      1  C   UNK A   1     -11.932  13.864  69.023  0.00  0.00    +0.242 C 
ATOM      2  N   UNK A   1     -11.988  12.856  68.049  0.00  0.00    -0.197 NA
ATOM      3  O   UNK A   1     -11.538  14.883  68.428  0.00  0.00    -0.273 OA
ENDROOT
BRANCH   1   4
ATOM      4  C   UNK A   1     -12.181  13.754  70.474  0.00  0.00    +0.089 C 
BRANCH   4   5
ATOM      5  C   UNK A   1     -12.775  15.073  70.912  0.00  0.00    +0.040 C 
BRANCH   5   7
ATOM      6  N   UNK A   1     -14.678  15.743  72.087  0.00  0.00    -0.121 NA
ATOM      7  C   UNK A   1     -13.458  14.787  72.384  0.00  0.00    +0.195 C 
BRANCH   7   8
ATOM      8  C   UNK A   1     -12.642  15.947  73.146  0.00  0.00    +0.382 C 
ATOM      9  O   UNK A   1     -12.742  15.928  74.519  0.00  0.00    -0.244 OA
ATOM     10  O   UNK A   1     -11.801  16.597  72.572  0.00  0.00    -0.244 OA
ENDBRANCH   7   8
ENDBRANCH   5   7
ENDBRANCH   4   5
ENDBRANCH   1   4
BRANCH   2  11
ATOM     11  C   UNK A   1     -10.607  12.201  67.663  0.00  0.00    +0.184 C 
BRANCH  11  12
ATOM     12  C   UNK A   1     -10.787  12.239  66.051  0.00  0.00    +0.263 C 
ATOM     13  N   GLY A   2     -10.282  13.432  65.409  0.00  0.00    -0.192 NA
ATOM     14  O   UNK A   1     -12.063  12.233  65.922  0.00  0.00    -0.271 OA
BRANCH  13  15
ATOM     15  CA  GLY A   2     -11.157  14.361  64.813  0.00  0.00    +0.228 C 
BRANCH  15  16
ATOM     16  C   GLY A   2     -11.072  15.766  64.988  0.00  0.00    +0.387 C 
ATOM     17  OXT GLY A   2     -11.573  16.531  63.919  0.00  0.00    -0.244 OA
ATOM     18  O   GLY A   2      -9.913  16.168  65.339  0.00  0.00    -0.244 OA
ENDBRANCH  15  16
ENDBRANCH  13  15
ENDBRANCH  11  12
BRANCH  11  19
ATOM     19  C   UNK A   1     -11.251  10.692  67.819  0.00  0.00    +0.100 C 
ATOM     20  S   UNK A   1     -10.789  10.195  69.516  0.00  0.00    -0.080 S 
ENDBRANCH  11  19
ENDBRANCH   2  11
TORSDOF 9
ENDMDL
MODEL 2
REMARK VINA RESULT:      -6.0      2.138      2.658
REMARK  Name = 
REMARK  9 active torsions:
REMARK  status: ('A' for Active; 'I' for Inactive)
REMARK    1  A    between atoms: C_2  and  C_3
REMARK    2  A    between atoms: C_2  and  C_18
REMARK    3  A    between atoms: C_3  and  C_4
REMARK    4  A    between atoms: C_4  and  C_5
REMARK    5  A    between atoms: N_7  and  C_8
REMARK    6  A    between atoms: C_8  and  C_9
REMARK    7  A    between atoms: C_8  and  C_11
REMARK    8  A    between atoms: N_13  and  CA_14
REMARK    9  A    between atoms: CA_14  and  C_15
REMARK                            x       y       z     vdW  Elec       q    Type
REMARK                         _______ _______ _______ _____ _____    ______ ____
ROOT
ATOM      1  C   UNK A   1     -11.694  15.577  69.591  0.00  0.00    +0.242 C 
ATOM      2  N   UNK A   1     -12.141  14.355  69.066  0.00  0.00    -0.197 NA
ATOM      3  O   UNK A   1     -11.861  16.411  68.682  0.00  0.00    -0.273 OA
ENDROOT
BRANCH   1   4
ATOM      4  C   UNK A   1     -11.062  15.840  70.898  0.00  0.00    +0.089 C 
BRANCH   4   5
ATOM      5  C   UNK A   1     -11.763  14.956  71.903  0.00  0.00    +0.040 C 
BRANCH   5   7
ATOM      6  N   UNK A   1     -12.643  15.255  74.046  0.00  0.00    -0.121 NA
ATOM      7  C   UNK A   1     -12.887  15.915  72.633  0.00  0.00    +0.195 C 
BRANCH   7   8
ATOM      8  C   UNK A   1     -14.131  14.943  72.315  0.00  0.00    +0.382 C 
ATOM      9  O   UNK A   1     -15.080  15.465  71.465  0.00  0.00    -0.244 OA
ATOM     10  O   UNK A   1     -14.084  13.765  72.581  0.00  0.00    -0.244 OA
ENDBRANCH   7   8
ENDBRANCH   5   7
ENDBRANCH   4   5
ENDBRANCH   1   4
BRANCH   2  11
ATOM     11  C   UNK A   1     -11.139  13.622  68.094  0.00  0.00    +0.184 C 
BRANCH  11  12
ATOM     12  C   UNK A   1     -12.022  13.741  66.738  0.00  0.00    +0.263 C 
ATOM     13  N   GLY A   2     -12.102  12.529  65.954  0.00  0.00    -0.192 NA
ATOM     14  O   UNK A   1     -11.359  14.605  66.060  0.00  0.00    -0.271 OA
BRANCH  13  15
ATOM     15  CA  GLY A   2     -11.483  12.439  64.692  0.00  0.00    +0.228 C 
BRANCH  15  16
ATOM     16  C   GLY A   2     -12.167  12.565  63.456  0.00  0.00    +0.387 C 
ATOM     17  OXT GLY A   2     -12.574  13.872  63.131  0.00  0.00    -0.244 OA
ATOM     18  O   GLY A   2     -13.127  11.735  63.315  0.00  0.00    -0.244 OA
ENDBRANCH  15  16
ENDBRANCH  13  15
ENDBRANCH  11  12
BRANCH  11  19
ATOM     19  C   UNK A   1     -11.763  12.157  68.515  0.00  0.00    +0.100 C 
ATOM     20  S   UNK A   1     -10.289  11.096  68.711  0.00  0.00    -0.080 S 
ENDBRANCH  11  19
ENDBRANCH   2  11
TORSDOF 9
ENDMDL
MODEL 3
REMARK VINA RESULT:      -6.0      2.939      3.420
REMARK  Name = 
REMARK  9 active torsions:
REMARK  status: ('A' for Active; 'I' for Inactive)
REMARK    1  A    between atoms: C_2  and  C_3
REMARK    2  A    between atoms: C_2  and  C_18
REMARK    3  A    between atoms: C_3  and  C_4
REMARK    4  A    between atoms: C_4  and  C_5
REMARK    5  A    between atoms: N_7  and  C_8
REMARK    6  A    between atoms: C_8  and  C_9
REMARK    7  A    between atoms: C_8  and  C_11
REMARK    8  A    between atoms: N_13  and  CA_14
REMARK    9  A    between atoms: CA_14  and  C_15
REMARK                            x       y       z     vdW  Elec       q    Type
REMARK                         _______ _______ _______ _____ _____    ______ ____
ROOT
ATOM      1  C   UNK A   1     -11.335  14.962  69.519  0.00  0.00    +0.242 C 
ATOM      2  N   UNK A   1     -10.377  14.819  68.504  0.00  0.00    -0.197 NA
ATOM      3  O   UNK A   1     -12.205  14.105  69.280  0.00  0.00    -0.273 OA
ENDROOT
BRANCH   1   4
ATOM      4  C   UNK A   1     -11.388  15.968  70.598  0.00  0.00    +0.089 C 
BRANCH   4   5
ATOM      5  C   UNK A   1     -11.531  15.205  71.894  0.00  0.00    +0.040 C 
BRANCH   5   7
ATOM      6  N   UNK A   1     -12.442  15.113  74.042  0.00  0.00    -0.121 NA
ATOM      7  C   UNK A   1     -12.658  16.026  72.773  0.00  0.00    +0.195 C 
BRANCH   7   8
ATOM      8  C   UNK A   1     -13.905  15.144  72.262  0.00  0.00    +0.382 C 
ATOM      9  O   UNK A   1     -13.915  13.838  72.696  0.00  0.00    -0.244 OA
ATOM     10  O   UNK A   1     -14.880  15.668  71.775  0.00  0.00    -0.244 OA
ENDBRANCH   7   8
ENDBRANCH   5   7
ENDBRANCH   4   5
ENDBRANCH   1   4
BRANCH   2  11
ATOM     11  C   UNK A   1     -10.752  15.463  67.115  0.00  0.00    +0.184 C 
BRANCH  11  12
ATOM     12  C   UNK A   1      -9.913  14.448  66.167  0.00  0.00    +0.263 C 
ATOM     13  N   GLY A   2     -10.471  14.243  64.849  0.00  0.00    -0.192 NA
ATOM     14  O   UNK A   1     -10.004  13.343  66.810  0.00  0.00    -0.271 OA
BRANCH  13  15
ATOM     15  CA  GLY A   2     -11.018  12.998  64.479  0.00  0.00    +0.228 C 
BRANCH  15  16
ATOM     16  C   GLY A   2     -12.392  12.665  64.589  0.00  0.00    +0.387 C 
ATOM     17  OXT GLY A   2     -12.953  12.068  63.445  0.00  0.00    -0.244 OA
ATOM     18  O   GLY A   2     -13.119  13.625  65.012  0.00  0.00    -0.244 OA
ENDBRANCH  15  16
ENDBRANCH  13  15
ENDBRANCH  11  12
BRANCH  11  19
ATOM     19  C   UNK A   1      -9.518  16.545  67.255  0.00  0.00    +0.100 C 
ATOM     20  S   UNK A   1     -10.365  18.138  67.542  0.00  0.00    -0.080 S 
ENDBRANCH  11  19
ENDBRANCH   2  11
TORSDOF 9
ENDMDL
MODEL 4
REMARK VINA RESULT:      -5.9      2.684      7.147
REMARK  Name = 
REMARK  9 active torsions:
REMARK  status: ('A' for Active; 'I' for Inactive)
REMARK    1  A    between atoms: C_2  and  C_3
REMARK    2  A    between atoms: C_2  and  C_18
REMARK    3  A    between atoms: C_3  and  C_4
REMARK    4  A    between atoms: C_4  and  C_5
REMARK    5  A    between atoms: N_7  and  C_8
REMARK    6  A    between atoms: C_8  and  C_9
REMARK    7  A    between atoms: C_8  and  C_11
REMARK    8  A    between atoms: N_13  and  CA_14
REMARK    9  A    between atoms: CA_14  and  C_15
REMARK                            x       y       z     vdW  Elec       q    Type
REMARK                         _______ _______ _______ _____ _____    ______ ____
ROOT
ATOM      1  C   UNK A   1     -11.741  12.795  68.021  0.00  0.00    +0.242 C 
ATOM      2  N   UNK A   1     -11.802  14.130  68.451  0.00  0.00    -0.197 NA
ATOM      3  O   UNK A   1     -11.777  12.108  69.058  0.00  0.00    -0.273 OA
ENDROOT
BRANCH   1   4
ATOM      4  C   UNK A   1     -11.568  12.279  66.649  0.00  0.00    +0.089 C 
BRANCH   4   5
ATOM      5  C   UNK A   1     -12.426  13.142  65.752  0.00  0.00    +0.040 C 
BRANCH   5   7
ATOM      6  N   UNK A   1     -12.529  14.655  63.976  0.00  0.00    -0.121 NA
ATOM      7  C   UNK A   1     -11.408  13.734  64.599  0.00  0.00    +0.195 C 
BRANCH   7   8
ATOM      8  C   UNK A   1     -11.691  12.553  63.541  0.00  0.00    +0.382 C 
ATOM      9  O   UNK A   1     -10.586  11.819  63.174  0.00  0.00    -0.244 OA
ATOM     10  O   UNK A   1     -12.817  12.179  63.312  0.00  0.00    -0.244 OA
ENDBRANCH   7   8
ENDBRANCH   5   7
ENDBRANCH   4   5
ENDBRANCH   1   4
BRANCH   2  11
ATOM     11  C   UNK A   1     -10.453  14.733  69.000  0.00  0.00    +0.184 C 
BRANCH  11  12
ATOM     12  C   UNK A   1     -11.092  15.937  69.880  0.00  0.00    +0.263 C 
ATOM     13  N   GLY A   2     -11.657  15.532  71.148  0.00  0.00    -0.192 NA
ATOM     14  O   UNK A   1     -12.052  16.338  69.131  0.00  0.00    -0.271 OA
BRANCH  13  15
ATOM     15  CA  GLY A   2     -13.047  15.589  71.374  0.00  0.00    +0.228 C 
BRANCH  15  16
ATOM     16  C   GLY A   2     -13.665  15.311  72.620  0.00  0.00    +0.387 C 
ATOM     17  OXT GLY A   2     -13.352  16.212  73.654  0.00  0.00    -0.244 OA
ATOM     18  O   GLY A   2     -13.524  14.102  73.003  0.00  0.00    -0.244 OA
ENDBRANCH  15  16
ENDBRANCH  13  15
ENDBRANCH  11  12
BRANCH  11  19
ATOM     19  C   UNK A   1     -10.284  15.653  67.644  0.00  0.00    +0.100 C 
ATOM     20  S   UNK A   1      -8.709  16.539  67.913  0.00  0.00    -0.080 S 
ENDBRANCH  11  19
ENDBRANCH   2  11
TORSDOF 9
ENDMDL
MODEL 5
REMARK VINA RESULT:      -5.8      3.091      3.816
REMARK  Name = 
REMARK  9 active torsions:
REMARK  status: ('A' for Active; 'I' for Inactive)
REMARK    1  A    between atoms: C_2  and  C_3
REMARK    2  A    between atoms: C_2  and  C_18
REMARK    3  A    between atoms: C_3  and  C_4
REMARK    4  A    between atoms: C_4  and  C_5
REMARK    5  A    between atoms: N_7  and  C_8
REMARK    6  A    between atoms: C_8  and  C_9
REMARK    7  A    between atoms: C_8  and  C_11
REMARK    8  A    between atoms: N_13  and  CA_14
REMARK    9  A    between atoms: CA_14  and  C_15
REMARK                            x       y       z     vdW  Elec       q    Type
REMARK                         _______ _______ _______ _____ _____    ______ ____
ROOT
ATOM      1  C   UNK A   1     -11.180  15.488  69.195  0.00  0.00    +0.242 C 
ATOM      2  N   UNK A   1     -10.161  15.686  68.251  0.00  0.00    -0.197 NA
ATOM      3  O   UNK A   1     -12.024  14.769  68.630  0.00  0.00    -0.273 OA
ENDROOT
BRANCH   1   4
ATOM      4  C   UNK A   1     -11.310  16.074  70.544  0.00  0.00    +0.089 C 
BRANCH   4   5
ATOM      5  C   UNK A   1     -11.955  15.019  71.413  0.00  0.00    +0.040 C 
BRANCH   5   7
ATOM      6  N   UNK A   1     -12.474  14.961  73.689  0.00  0.00    -0.121 NA
ATOM      7  C   UNK A   1     -12.930  15.839  72.459  0.00  0.00    +0.195 C 
BRANCH   7   8
ATOM      8  C   UNK A   1     -14.226  14.920  72.193  0.00  0.00    +0.382 C 
ATOM      9  O   UNK A   1     -15.187  15.484  71.385  0.00  0.00    -0.244 OA
ATOM     10  O   UNK A   1     -14.217  13.740  72.455  0.00  0.00    -0.244 OA
ENDBRANCH   7   8
ENDBRANCH   5   7
ENDBRANCH   4   5
ENDBRANCH   1   4
BRANCH   2  11
ATOM     11  C   UNK A   1     -10.459  16.762  67.139  0.00  0.00    +0.184 C 
BRANCH  11  12
ATOM     12  C   UNK A   1      -9.841  15.952  65.877  0.00  0.00    +0.263 C 
ATOM     13  N   GLY A   2     -10.820  15.403  64.966  0.00  0.00    -0.192 NA
ATOM     14  O   UNK A   1      -9.245  14.973  66.451  0.00  0.00    -0.271 OA
BRANCH  13  15
ATOM     15  CA  GLY A   2     -11.006  14.011  64.853  0.00  0.00    +0.228 C 
BRANCH  15  16
ATOM     16  C   GLY A   2     -12.273  13.373  64.835  0.00  0.00    +0.387 C 
ATOM     17  OXT GLY A   2     -12.605  12.745  63.621  0.00  0.00    -0.244 OA
ATOM     18  O   GLY A   2     -13.226  14.116  65.246  0.00  0.00    -0.244 OA
ENDBRANCH  15  16
ENDBRANCH  13  15
ENDBRANCH  11  12
BRANCH  11  19
ATOM     19  C   UNK A   1      -9.050  17.544  67.482  0.00  0.00    +0.100 C 
ATOM     20  S   UNK A   1      -9.577  18.969  68.496  0.00  0.00    -0.080 S 
ENDBRANCH  11  19
ENDBRANCH   2  11
TORSDOF 9
ENDMDL
MODEL 6
REMARK VINA RESULT:      -5.6      4.371      6.599
REMARK  Name = 
REMARK  9 active torsions:
REMARK  status: ('A' for Active; 'I' for Inactive)
REMARK    1  A    between atoms: C_2  and  C_3
REMARK    2  A    between atoms: C_2  and  C_18
REMARK    3  A    between atoms: C_3  and  C_4
REMARK    4  A    between atoms: C_4  and  C_5
REMARK    5  A    between atoms: N_7  and  C_8
REMARK    6  A    between atoms: C_8  and  C_9
REMARK    7  A    between atoms: C_8  and  C_11
REMARK    8  A    between atoms: N_13  and  CA_14
REMARK    9  A    between atoms: CA_14  and  C_15
REMARK                            x       y       z     vdW  Elec       q    Type
REMARK                         _______ _______ _______ _____ _____    ______ ____
ROOT
ATOM      1  C   UNK A   1     -11.173  15.778  64.610  0.00  0.00    +0.242 C 
ATOM      2  N   UNK A   1     -10.043  16.207  65.321  0.00  0.00    -0.197 NA
ATOM      3  O   UNK A   1     -11.568  16.774  63.978  0.00  0.00    -0.273 OA
ENDROOT
BRANCH   1   4
ATOM      4  C   UNK A   1     -11.842  14.463  64.653  0.00  0.00    +0.089 C 
BRANCH   4   5
ATOM      5  C   UNK A   1     -10.757  13.421  64.507  0.00  0.00    +0.040 C 
BRANCH   5   7
ATOM      6  N   UNK A   1     -12.912  12.639  64.950  0.00  0.00    -0.121 NA
ATOM      7  C   UNK A   1     -11.509  11.965  64.682  0.00  0.00    +0.195 C 
BRANCH   7   8
ATOM      8  C   UNK A   1     -11.193  11.832  66.255  0.00  0.00    +0.382 C 
ATOM      9  O   UNK A   1      -9.877  12.028  66.607  0.00  0.00    -0.244 OA
ATOM     10  O   UNK A   1     -12.085  11.835  67.072  0.00  0.00    -0.244 OA
ENDBRANCH   7   8
ENDBRANCH   5   7
ENDBRANCH   4   5
ENDBRANCH   1   4
BRANCH   2  11
ATOM     11  C   UNK A   1     -10.333  17.030  66.634  0.00  0.00    +0.184 C 
BRANCH  11  12
ATOM     12  C   UNK A   1      -8.811  17.496  66.944  0.00  0.00    +0.263 C 
ATOM     13  N   GLY A   2      -8.672  18.860  67.403  0.00  0.00    -0.192 NA
ATOM     14  O   UNK A   1      -8.262  17.411  65.789  0.00  0.00    -0.271 OA
BRANCH  13  15
ATOM     15  CA  GLY A   2      -8.048  19.835  66.600  0.00  0.00    +0.228 C 
BRANCH  15  16
ATOM     16  C   GLY A   2      -6.744  20.345  66.831  0.00  0.00    +0.387 C 
ATOM     17  OXT GLY A   2      -5.918  19.530  67.626  0.00  0.00    -0.244 OA
ATOM     18  O   GLY A   2      -6.733  21.554  67.242  0.00  0.00    -0.244 OA
ENDBRANCH  15  16
ENDBRANCH  13  15
ENDBRANCH  11  12
BRANCH  11  19
ATOM     19  C   UNK A   1     -10.228  15.662  67.545  0.00  0.00    +0.100 C 
ATOM     20  S   UNK A   1     -10.995  16.137  69.135  0.00  0.00    -0.080 S 
ENDBRANCH  11  19
ENDBRANCH   2  11
TORSDOF 9
ENDMDL
MODEL 7
REMARK VINA RESULT:      -5.6      2.850      3.491
REMARK  Name = 
REMARK  9 active torsions:
REMARK  status: ('A' for Active; 'I' for Inactive)
REMARK    1  A    between atoms: C_2  and  C_3
REMARK    2  A    between atoms: C_2  and  C_18
REMARK    3  A    between atoms: C_3  and  C_4
REMARK    4  A    between atoms: C_4  and  C_5
REMARK    5  A    between atoms: N_7  and  C_8
REMARK    6  A    between atoms: C_8  and  C_9
REMARK    7  A    between atoms: C_8  and  C_11
REMARK    8  A    between atoms: N_13  and  CA_14
REMARK    9  A    between atoms: CA_14  and  C_15
REMARK                            x       y       z     vdW  Elec       q    Type
REMARK                         _______ _______ _______ _____ _____    ______ ____
ROOT
ATOM      1  C   UNK A   1     -11.211  15.830  68.960  0.00  0.00    +0.242 C 
ATOM      2  N   UNK A   1     -10.889  15.941  67.599  0.00  0.00    -0.197 NA
ATOM      3  O   UNK A   1     -10.609  16.762  69.522  0.00  0.00    -0.273 OA
ENDROOT
BRANCH   1   4
ATOM      4  C   UNK A   1     -12.008  14.787  69.633  0.00  0.00    +0.089 C 
BRANCH   4   5
ATOM      5  C   UNK A   1     -12.832  15.486  70.690  0.00  0.00    +0.040 C 
BRANCH   5   7
ATOM      6  N   UNK A   1     -13.183  13.643  72.080  0.00  0.00    -0.121 NA
ATOM      7  C   UNK A   1     -12.269  14.929  72.135  0.00  0.00    +0.195 C 
BRANCH   7   8
ATOM      8  C   UNK A   1     -13.340  15.738  73.025  0.00  0.00    +0.382 C 
ATOM      9  O   UNK A   1     -12.843  16.283  74.187  0.00  0.00    -0.244 OA
ATOM     10  O   UNK A   1     -14.409  16.067  72.567  0.00  0.00    -0.244 OA
ENDBRANCH   7   8
ENDBRANCH   5   7
ENDBRANCH   4   5
ENDBRANCH   1   4
BRANCH   2  11
ATOM     11  C   UNK A   1      -9.472  15.388  67.185  0.00  0.00    +0.184 C 
BRANCH  11  12
ATOM     12  C   UNK A   1      -9.181  16.416  65.965  0.00  0.00    +0.263 C 
ATOM     13  N   GLY A   2      -8.609  17.684  66.359  0.00  0.00    -0.192 NA
ATOM     14  O   UNK A   1     -10.360  16.639  65.514  0.00  0.00    -0.271 OA
BRANCH  13  15
ATOM     15  CA  GLY A   2      -9.347  18.879  66.244  0.00  0.00    +0.228 C 
BRANCH  15  16
ATOM     16  C   GLY A   2      -9.916  19.575  67.341  0.00  0.00    +0.387 C 
ATOM     17  OXT GLY A   2      -9.198  19.474  68.547  0.00  0.00    -0.244 OA
ATOM     18  O   GLY A   2     -11.155  19.323  67.519  0.00  0.00    -0.244 OA
ENDBRANCH  15  16
ENDBRANCH  13  15
ENDBRANCH  11  12
BRANCH  11  19
ATOM     19  C   UNK A   1     -10.169  14.250  66.220  0.00  0.00    +0.100 C 
ATOM     20  S   UNK A   1      -9.765  12.671  67.045  0.00  0.00    -0.080 S 
ENDBRANCH  11  19
ENDBRANCH   2  11
TORSDOF 9
ENDMDL
MODEL 8
REMARK VINA RESULT:      -5.5      4.609      7.328
REMARK  Name = 
REMARK  9 active torsions:
REMARK  status: ('A' for Active; 'I' for Inactive)
REMARK    1  A    between atoms: C_2  and  C_3
REMARK    2  A    between atoms: C_2  and  C_18
REMARK    3  A    between atoms: C_3  and  C_4
REMARK    4  A    between atoms: C_4  and  C_5
REMARK    5  A    between atoms: N_7  and  C_8
REMARK    6  A    between atoms: C_8  and  C_9
REMARK    7  A    between atoms: C_8  and  C_11
REMARK    8  A    between atoms: N_13  and  CA_14
REMARK    9  A    between atoms: CA_14  and  C_15
REMARK                            x       y       z     vdW  Elec       q    Type
REMARK                         _______ _______ _______ _____ _____    ______ ____
ROOT
ATOM      1  C   UNK A   1     -10.545  16.208  65.225  0.00  0.00    +0.242 C 
ATOM      2  N   UNK A   1      -9.767  17.234  65.782  0.00  0.00    -0.197 NA
ATOM      3  O   UNK A   1     -11.246  16.755  64.355  0.00  0.00    -0.273 OA
ENDROOT
BRANCH   1   4
ATOM      4  C   UNK A   1     -10.618  14.789  65.626  0.00  0.00    +0.089 C 
BRANCH   4   5
ATOM      5  C   UNK A   1     -12.067  14.379  65.501  0.00  0.00    +0.040 C 
BRANCH   5   7
ATOM      6  N   UNK A   1     -10.490  12.658  65.595  0.00  0.00    -0.121 NA
ATOM      7  C   UNK A   1     -12.057  12.733  65.419  0.00  0.00    +0.195 C 
BRANCH   7   8
ATOM      8  C   UNK A   1     -11.951  12.672  63.813  0.00  0.00    +0.382 C 
ATOM      9  O   UNK A   1     -12.633  13.662  63.143  0.00  0.00    -0.244 OA
ATOM     10  O   UNK A   1     -11.119  11.983  63.270  0.00  0.00    -0.244 OA
ENDBRANCH   7   8
ENDBRANCH   5   7
ENDBRANCH   4   5
ENDBRANCH   1   4
BRANCH   2  11
ATOM     11  C   UNK A   1     -10.501  18.154  66.831  0.00  0.00    +0.184 C 
BRANCH  11  12
ATOM     12  C   UNK A   1      -9.626  19.500  66.595  0.00  0.00    +0.263 C 
ATOM     13  N   GLY A   2      -8.395  19.306  65.861  0.00  0.00    -0.192 NA
ATOM     14  O   UNK A   1      -9.320  19.836  67.794  0.00  0.00    -0.271 OA
BRANCH  13  15
ATOM     15  CA  GLY A   2      -7.144  19.460  66.489  0.00  0.00    +0.228 C 
BRANCH  15  16
ATOM     16  C   GLY A   2      -6.254  20.537  66.243  0.00  0.00    +0.387 C 
ATOM     17  OXT GLY A   2      -6.448  21.668  67.057  0.00  0.00    -0.244 OA
ATOM     18  O   GLY A   2      -6.175  20.865  65.011  0.00  0.00    -0.244 OA
ENDBRANCH  15  16
ENDBRANCH  13  15
ENDBRANCH  11  12
BRANCH  11  19
ATOM     19  C   UNK A   1      -9.533  17.592  68.039  0.00  0.00    +0.100 C 
ATOM     20  S   UNK A   1     -10.659  16.588  69.069  0.00  0.00    -0.080 S 
ENDBRANCH  11  19
ENDBRANCH   2  11
TORSDOF 9
ENDMDL
MODEL 9
REMARK VINA RESULT:      -5.4      4.454      6.793
REMARK  Name = 
REMARK  9 active torsions:
REMARK  status: ('A' for Active; 'I' for Inactive)
REMARK    1  A    between atoms: C_2  and  C_3
REMARK    2  A    between atoms: C_2  and  C_18
REMARK    3  A    between atoms: C_3  and  C_4
REMARK    4  A    between atoms: C_4  and  C_5
REMARK    5  A    between atoms: N_7  and  C_8
REMARK    6  A    between atoms: C_8  and  C_9
REMARK    7  A    between atoms: C_8  and  C_11
REMARK    8  A    between atoms: N_13  and  CA_14
REMARK    9  A    between atoms: CA_14  and  C_15
REMARK                            x       y       z     vdW  Elec       q    Type
REMARK                         _______ _______ _______ _____ _____    ______ ____
ROOT
ATOM      1  C   UNK A   1     -10.496  16.262  65.177  0.00  0.00    +0.242 C 
ATOM      2  N   UNK A   1      -9.864  17.307  65.867  0.00  0.00    -0.197 NA
ATOM      3  O   UNK A   1     -11.269  16.812  64.371  0.00  0.00    -0.273 OA
ENDROOT
BRANCH   1   4
ATOM      4  C   UNK A   1     -10.374  14.808  65.399  0.00  0.00    +0.089 C 
BRANCH   4   5
ATOM      5  C   UNK A   1     -11.772  14.240  65.322  0.00  0.00    +0.040 C 
BRANCH   5   7
ATOM      6  N   UNK A   1     -13.183  12.541  64.563  0.00  0.00    -0.121 NA
ATOM      7  C   UNK A   1     -11.655  12.893  64.380  0.00  0.00    +0.195 C 
BRANCH   7   8
ATOM      8  C   UNK A   1     -11.213  11.917  65.582  0.00  0.00    +0.382 C 
ATOM      9  O   UNK A   1     -12.043  11.928  66.680  0.00  0.00    -0.244 OA
ATOM     10  O   UNK A   1     -10.384  11.055  65.411  0.00  0.00    -0.244 OA
ENDBRANCH   7   8
ENDBRANCH   5   7
ENDBRANCH   4   5
ENDBRANCH   1   4
BRANCH   2  11
ATOM     11  C   UNK A   1     -10.713  17.982  67.011  0.00  0.00    +0.184 C 
BRANCH  11  12
ATOM     12  C   UNK A   1     -10.122  19.486  66.867  0.00  0.00    +0.263 C 
ATOM     13  N   GLY A   2      -9.015  19.621  65.946  0.00  0.00    -0.192 NA
ATOM     14  O   UNK A   1      -9.682  19.716  68.048  0.00  0.00    -0.271 OA
BRANCH  13  15
ATOM     15  CA  GLY A   2      -7.719  19.924  66.410  0.00  0.00    +0.228 C 
BRANCH  15  16
ATOM     16  C   GLY A   2      -6.571  19.134  66.145  0.00  0.00    +0.387 C 
ATOM     17  OXT GLY A   2      -6.607  18.420  64.932  0.00  0.00    -0.244 OA
ATOM     18  O   GLY A   2      -6.235  18.377  67.116  0.00  0.00    -0.244 OA
ENDBRANCH  15  16
ENDBRANCH  13  15
ENDBRANCH  11  12
BRANCH  11  19
ATOM     19  C   UNK A   1      -9.603  17.525  68.139  0.00  0.00    +0.100 C 
ATOM     20  S   UNK A   1     -10.517  16.350  69.198  0.00  0.00    -0.080 S 
ENDBRANCH  11  19
ENDBRANCH   2  11
TORSDOF 9
ENDMDL
