MODEL 1
REMARK VINA RESULT:      -7.5      0.000      0.000
REMARK  Name = 
REMARK  4 active torsions:
REMARK  status: ('A' for Active; 'I' for Inactive)
REMARK    1  A    between atoms: C_5  and  C_6
REMARK    2  A    between atoms: C_11  and  C_12
REMARK    3  A    between atoms: C_12  and  O_13
REMARK    4  A    between atoms: O_13  and  C_14
REMARK                            x       y       z     vdW  Elec       q    Type
REMARK                         _______ _______ _______ _____ _____    ______ ____
ROOT
ATOM      1  C   UNL     1     -12.077  13.554  71.564  0.00  0.00    +0.029 C 
ATOM      2  C   UNL     1     -12.782  14.401  70.262  0.00  0.00    +0.065 C 
ATOM      3  C   UNL     1     -13.041  15.746  71.132  0.00  0.00    +0.093 C 
ATOM      4  N   UNL     1     -14.461  15.581  71.443  0.00  0.00    -0.218 NA
ATOM      5  C   UNL     1     -14.519  14.194  71.902  0.00  0.00    +0.089 C 
ATOM      6  C   UNL     1     -13.266  13.896  72.625  0.00  0.00    +0.023 C 
ENDROOT
BRANCH   1  11
ATOM      7  F   UNL     1     -12.096   8.239  70.979  0.00  0.00    -0.204 F 
ATOM      8  C   UNL     1     -12.229   9.343  70.929  0.00  0.00    +0.140 A 
ATOM      9  C   UNL     1     -13.289   9.926  71.610  0.00  0.00    +0.029 A 
ATOM     10  C   UNL     1     -13.245  11.285  71.902  0.00  0.00    -0.002 A 
ATOM     11  C   UNL     1     -12.649  12.145  71.071  0.00  0.00    -0.022 A 
ATOM     12  C   UNL     1     -11.771  11.585  70.142  0.00  0.00    -0.002 A 
ATOM     13  C   UNL     1     -11.521  10.218  70.112  0.00  0.00    +0.029 A 
ENDBRANCH   1  11
BRANCH   2  14
ATOM     14  C   UNL     1     -11.368  14.974  69.701  0.00  0.00    +0.207 C 
BRANCH  14  15
ATOM     15  O   UNL     1     -11.116  14.496  68.470  0.00  0.00    -0.475 OA
BRANCH  15  16
ATOM     16  C   UNL     1     -11.503  14.744  67.199  0.00  0.00    +0.142 A 
ATOM     17  C   UNL     1     -12.439  13.866  66.655  0.00  0.00    +0.077 A 
ATOM     18  C   UNL     1     -12.330  13.386  65.353  0.00  0.00    +0.179 A 
ATOM     19  O   UNL     1     -13.095  12.520  64.568  0.00  0.00    -0.435 OA
ATOM     20  C   UNL     1     -12.209  11.873  63.667  0.00  0.00    +0.429 C 
ATOM     21  O   UNL     1     -11.060  12.713  63.667  0.00  0.00    -0.435 OA
ATOM     22  C   UNL     1     -11.242  13.744  64.567  0.00  0.00    +0.177 A 
ATOM     23  C   UNL     1     -10.406  14.754  65.028  0.00  0.00    +0.043 A 
ATOM     24  C   UNL     1     -10.756  15.385  66.217  0.00  0.00    +0.040 A 
ENDBRANCH  15  16
ENDBRANCH  14  15
ENDBRANCH   2  14
TORSDOF 4
ENDMDL
MODEL 2
REMARK VINA RESULT:      -7.4      4.147      8.105
REMARK  Name = 
REMARK  4 active torsions:
REMARK  status: ('A' for Active; 'I' for Inactive)
REMARK    1  A    between atoms: C_5  and  C_6
REMARK    2  A    between atoms: C_11  and  C_12
REMARK    3  A    between atoms: C_12  and  O_13
REMARK    4  A    between atoms: O_13  and  C_14
REMARK                            x       y       z     vdW  Elec       q    Type
REMARK                         _______ _______ _______ _____ _____    ______ ____
ROOT
ATOM      1  C   UNL     1      -9.621  15.674  66.888  0.00  0.00    +0.029 C 
ATOM      2  C   UNL     1     -11.038  14.821  67.309  0.00  0.00    +0.065 C 
ATOM      3  C   UNL     1     -10.717  13.578  66.317  0.00  0.00    +0.093 C 
ATOM      4  N   UNL     1     -11.580  13.920  65.187  0.00  0.00    -0.218 NA
ATOM      5  C   UNL     1     -11.270  15.333  64.977  0.00  0.00    +0.089 C 
ATOM      6  C   UNL     1      -9.840  15.541  65.279  0.00  0.00    +0.023 C 
ENDROOT
BRANCH   1  11
ATOM      7  F   UNL     1      -9.775  20.985  67.485  0.00  0.00    -0.204 F 
ATOM      8  C   UNL     1      -9.946  19.886  67.445  0.00  0.00    +0.140 A 
ATOM      9  C   UNL     1     -10.558  19.340  66.325  0.00  0.00    +0.029 A 
ATOM     10  C   UNL     1     -10.416  17.981  66.066  0.00  0.00    -0.002 A 
ATOM     11  C   UNL     1     -10.321  17.100  67.067  0.00  0.00    -0.022 A 
ATOM     12  C   UNL     1      -9.990  17.628  68.315  0.00  0.00    -0.002 A 
ATOM     13  C   UNL     1      -9.748  18.986  68.487  0.00  0.00    +0.029 A 
ENDBRANCH   1  11
BRANCH   2  14
ATOM     14  C   UNL     1     -10.359  14.057  68.572  0.00  0.00    +0.207 C 
BRANCH  14  15
ATOM     15  O   UNL     1     -10.686  14.665  69.726  0.00  0.00    -0.475 OA
BRANCH  15  16
ATOM     16  C   UNL     1     -11.806  14.952  70.425  0.00  0.00    +0.142 A 
ATOM     17  C   UNL     1     -11.717  16.012  71.327  0.00  0.00    +0.077 A 
ATOM     18  C   UNL     1     -12.272  15.944  72.602  0.00  0.00    +0.179 A 
ATOM     19  O   UNL     1     -12.332  16.825  73.685  0.00  0.00    -0.435 OA
ATOM     20  C   UNL     1     -12.368  16.038  74.866  0.00  0.00    +0.429 C 
ATOM     21  O   UNL     1     -12.777  14.756  74.402  0.00  0.00    -0.435 OA
ATOM     22  C   UNL     1     -12.899  14.780  73.028  0.00  0.00    +0.177 A 
ATOM     23  C   UNL     1     -13.154  13.791  72.085  0.00  0.00    +0.043 A 
ATOM     24  C   UNL     1     -12.822  14.064  70.762  0.00  0.00    +0.040 A 
ENDBRANCH  15  16
ENDBRANCH  14  15
ENDBRANCH   2  14
TORSDOF 4
ENDMDL
MODEL 3
REMARK VINA RESULT:      -7.1      4.094      6.486
REMARK  Name = 
REMARK  4 active torsions:
REMARK  status: ('A' for Active; 'I' for Inactive)
REMARK    1  A    between atoms: C_5  and  C_6
REMARK    2  A    between atoms: C_11  and  C_12
REMARK    3  A    between atoms: C_12  and  O_13
REMARK    4  A    between atoms: O_13  and  C_14
REMARK                            x       y       z     vdW  Elec       q    Type
REMARK                         _______ _______ _______ _____ _____    ______ ____
ROOT
ATOM      1  C   UNL     1     -11.950  14.353  66.584  0.00  0.00    +0.029 C 
ATOM      2  C   UNL     1     -10.326  14.541  66.096  0.00  0.00    +0.065 C 
ATOM      3  C   UNL     1     -10.540  13.750  64.695  0.00  0.00    +0.093 C 
ATOM      4  N   UNL     1     -10.000  12.439  65.054  0.00  0.00    -0.218 NA
ATOM      5  C   UNL     1     -10.650  12.177  66.337  0.00  0.00    +0.089 C 
ATOM      6  C   UNL     1     -12.009  12.751  66.291  0.00  0.00    +0.023 C 
ENDROOT
BRANCH   1  11
ATOM      7  F   UNL     1     -12.853  14.545  71.851  0.00  0.00    -0.204 F 
ATOM      8  C   UNL     1     -12.455  14.535  70.811  0.00  0.00    +0.140 A 
ATOM      9  C   UNL     1     -12.012  13.335  70.271  0.00  0.00    +0.029 A 
ATOM     10  C   UNL     1     -11.904  13.209  68.891  0.00  0.00    -0.002 A 
ATOM     11  C   UNL     1     -11.564  14.257  68.132  0.00  0.00    -0.022 A 
ATOM     12  C   UNL     1     -11.707  15.511  68.727  0.00  0.00    -0.002 A 
ATOM     13  C   UNL     1     -12.201  15.649  70.020  0.00  0.00    +0.029 A 
ENDBRANCH   1  11
BRANCH   2  14
ATOM     14  C   UNL     1     -10.572  15.979  65.381  0.00  0.00    +0.207 C 
BRANCH  14  15
ATOM     15  O   UNL     1      -9.647  16.871  65.779  0.00  0.00    -0.475 OA
BRANCH  15  16
ATOM     16  C   UNL     1      -9.615  18.085  66.371  0.00  0.00    +0.142 A 
ATOM     17  C   UNL     1      -8.440  18.819  66.212  0.00  0.00    +0.077 A 
ATOM     18  C   UNL     1      -7.860  19.520  67.266  0.00  0.00    +0.179 A 
ATOM     19  O   UNL     1      -6.719  20.315  67.394  0.00  0.00    -0.435 OA
ATOM     20  C   UNL     1      -6.258  20.179  68.730  0.00  0.00    +0.429 C 
ATOM     21  O   UNL     1      -7.394  19.677  69.426  0.00  0.00    -0.435 OA
ATOM     22  C   UNL     1      -8.425  19.466  68.533  0.00  0.00    +0.177 A 
ATOM     23  C   UNL     1      -9.685  18.894  68.665  0.00  0.00    +0.043 A 
ATOM     24  C   UNL     1     -10.324  18.474  67.503  0.00  0.00    +0.040 A 
ENDBRANCH  15  16
ENDBRANCH  14  15
ENDBRANCH   2  14
TORSDOF 4
ENDMDL
MODEL 4
REMARK VINA RESULT:      -7.0      3.674      7.220
REMARK  Name = 
REMARK  4 active torsions:
REMARK  status: ('A' for Active; 'I' for Inactive)
REMARK    1  A    between atoms: C_5  and  C_6
REMARK    2  A    between atoms: C_11  and  C_12
REMARK    3  A    between atoms: C_12  and  O_13
REMARK    4  A    between atoms: O_13  and  C_14
REMARK                            x       y       z     vdW  Elec       q    Type
REMARK                         _______ _______ _______ _____ _____    ______ ____
ROOT
ATOM      1  C   UNL     1     -10.354  13.645  66.168  0.00  0.00    +0.029 C 
ATOM      2  C   UNL     1     -11.912  12.976  66.367  0.00  0.00    +0.065 C 
ATOM      3  C   UNL     1     -11.891  12.220  64.932  0.00  0.00    +0.093 C 
ATOM      4  N   UNL     1     -12.687  13.155  64.137  0.00  0.00    -0.218 NA
ATOM      5  C   UNL     1     -12.084  14.443  64.477  0.00  0.00    +0.089 C 
ATOM      6  C   UNL     1     -10.636  14.235  64.675  0.00  0.00    +0.023 C 
ENDROOT
BRANCH   1  11
ATOM      7  F   UNL     1      -9.352  18.000  69.104  0.00  0.00    -0.204 F 
ATOM      8  C   UNL     1      -9.765  17.113  68.573  0.00  0.00    +0.140 A 
ATOM      9  C   UNL     1     -10.364  17.289  67.333  0.00  0.00    +0.029 A 
ATOM     10  C   UNL     1     -10.509  16.195  66.486  0.00  0.00    -0.002 A 
ATOM     11  C   UNL     1     -10.725  14.971  66.979  0.00  0.00    -0.022 A 
ATOM     12  C   UNL     1     -10.415  14.795  68.328  0.00  0.00    -0.002 A 
ATOM     13  C   UNL     1      -9.888  15.829  69.093  0.00  0.00    +0.029 A 
ENDBRANCH   1  11
BRANCH   2  14
ATOM     14  C   UNL     1     -11.383  11.645  67.135  0.00  0.00    +0.207 C 
BRANCH  14  15
ATOM     15  O   UNL     1     -12.044  11.471  68.293  0.00  0.00    -0.475 OA
BRANCH  15  16
ATOM     16  C   UNL     1     -11.748  11.319  69.602  0.00  0.00    +0.142 A 
ATOM     17  C   UNL     1     -10.982  10.204  69.938  0.00  0.00    +0.077 A 
ATOM     18  C   UNL     1     -11.268   9.420  71.052  0.00  0.00    +0.179 A 
ATOM     19  O   UNL     1     -10.692   8.278  71.613  0.00  0.00    -0.435 OA
ATOM     20  C   UNL     1     -11.731   7.551  72.253  0.00  0.00    +0.429 C 
ATOM     21  O   UNL     1     -12.762   8.519  72.418  0.00  0.00    -0.435 OA
ATOM     22  C   UNL     1     -12.372   9.712  71.844  0.00  0.00    +0.177 A 
ATOM     23  C   UNL     1     -13.031  10.917  71.630  0.00  0.00    +0.043 A 
ATOM     24  C   UNL     1     -12.498  11.781  70.679  0.00  0.00    +0.040 A 
ENDBRANCH  15  16
ENDBRANCH  14  15
ENDBRANCH   2  14
TORSDOF 4
ENDMDL
MODEL 5
REMARK VINA RESULT:      -7.0      2.975      4.361
REMARK  Name = 
REMARK  4 active torsions:
REMARK  status: ('A' for Active; 'I' for Inactive)
REMARK    1  A    between atoms: C_5  and  C_6
REMARK    2  A    between atoms: C_11  and  C_12
REMARK    3  A    between atoms: C_12  and  O_13
REMARK    4  A    between atoms: O_13  and  C_14
REMARK                            x       y       z     vdW  Elec       q    Type
REMARK                         _______ _______ _______ _____ _____    ______ ____
ROOT
ATOM      1  C   UNL     1     -10.859  14.487  69.713  0.00  0.00    +0.029 C 
ATOM      2  C   UNL     1     -11.878  14.853  68.394  0.00  0.00    +0.065 C 
ATOM      3  C   UNL     1     -10.645  15.127  67.375  0.00  0.00    +0.093 C 
ATOM      4  N   UNL     1     -10.606  16.589  67.405  0.00  0.00    -0.218 NA
ATOM      5  C   UNL     1     -10.660  16.871  68.839  0.00  0.00    +0.089 C 
ATOM      6  C   UNL     1      -9.919  15.808  69.546  0.00  0.00    +0.023 C 
ENDROOT
BRANCH   1  11
ATOM      7  F   UNL     1     -12.911  15.288  74.586  0.00  0.00    -0.204 F 
ATOM      8  C   UNL     1     -12.681  15.187  73.501  0.00  0.00    +0.140 A 
ATOM      9  C   UNL     1     -12.201  16.291  72.808  0.00  0.00    +0.029 A 
ATOM     10  C   UNL     1     -11.535  16.100  71.603  0.00  0.00    -0.002 A 
ATOM     11  C   UNL     1     -11.876  15.102  70.782  0.00  0.00    -0.022 A 
ATOM     12  C   UNL     1     -12.630  14.075  71.352  0.00  0.00    -0.002 A 
ATOM     13  C   UNL     1     -12.973  14.089  72.699  0.00  0.00    +0.029 A 
ENDBRANCH   1  11
BRANCH   2  14
ATOM     14  C   UNL     1     -12.011  13.310  67.902  0.00  0.00    +0.207 C 
BRANCH  14  15
ATOM     15  O   UNL     1     -11.789  13.213  66.580  0.00  0.00    -0.475 OA
BRANCH  15  16
ATOM     16  C   UNL     1     -11.831  12.259  65.624  0.00  0.00    +0.142 A 
ATOM     17  C   UNL     1     -10.854  11.267  65.698  0.00  0.00    +0.077 A 
ATOM     18  C   UNL     1     -10.185  10.805  64.568  0.00  0.00    +0.179 A 
ATOM     19  O   UNL     1      -9.189   9.850  64.349  0.00  0.00    -0.435 OA
ATOM     20  C   UNL     1      -8.437  10.276  63.221  0.00  0.00    +0.429 C 
ATOM     21  O   UNL     1      -9.301  11.206  62.576  0.00  0.00    -0.435 OA
ATOM     22  C   UNL     1     -10.450  11.364  63.324  0.00  0.00    +0.177 A 
ATOM     23  C   UNL     1     -11.542  12.216  63.208  0.00  0.00    +0.043 A 
ATOM     24  C   UNL     1     -12.336  12.399  64.336  0.00  0.00    +0.040 A 
ENDBRANCH  15  16
ENDBRANCH  14  15
ENDBRANCH   2  14
TORSDOF 4
ENDMDL
MODEL 6
REMARK VINA RESULT:      -6.9      3.853      5.905
REMARK  Name = 
REMARK  4 active torsions:
REMARK  status: ('A' for Active; 'I' for Inactive)
REMARK    1  A    between atoms: C_5  and  C_6
REMARK    2  A    between atoms: C_11  and  C_12
REMARK    3  A    between atoms: C_12  and  O_13
REMARK    4  A    between atoms: O_13  and  C_14
REMARK                            x       y       z     vdW  Elec       q    Type
REMARK                         _______ _______ _______ _____ _____    ______ ____
ROOT
ATOM      1  C   UNL     1     -10.523  14.172  68.238  0.00  0.00    +0.029 C 
ATOM      2  C   UNL     1     -11.581  15.252  69.029  0.00  0.00    +0.065 C 
ATOM      3  C   UNL     1     -11.143  14.767  70.514  0.00  0.00    +0.093 C 
ATOM      4  N   UNL     1     -12.253  13.869  70.830  0.00  0.00    -0.218 NA
ATOM      5  C   UNL     1     -12.350  13.057  69.618  0.00  0.00    +0.089 C 
ATOM      6  C   UNL     1     -10.988  12.860  69.085  0.00  0.00    +0.023 C 
ENDROOT
BRANCH   1  11
ATOM      7  F   UNL     1     -11.841  12.961  63.199  0.00  0.00    -0.204 F 
ATOM      8  C   UNL     1     -11.758  13.322  64.249  0.00  0.00    +0.140 A 
ATOM      9  C   UNL     1     -12.321  12.565  65.268  0.00  0.00    +0.029 A 
ATOM     10  C   UNL     1     -11.892  12.760  66.576  0.00  0.00    -0.002 A 
ATOM     11  C   UNL     1     -11.514  13.970  67.000  0.00  0.00    -0.022 A 
ATOM     12  C   UNL     1     -11.209  14.897  66.002  0.00  0.00    -0.002 A 
ATOM     13  C   UNL     1     -11.271  14.560  64.655  0.00  0.00    +0.029 A 
ENDBRANCH   1  11
BRANCH   2  14
ATOM     14  C   UNL     1     -10.516  16.479  69.058  0.00  0.00    +0.207 C 
BRANCH  14  15
ATOM     15  O   UNL     1     -10.968  17.516  68.331  0.00  0.00    -0.475 OA
BRANCH  15  16
ATOM     16  C   UNL     1     -10.518  18.317  67.340  0.00  0.00    +0.142 A 
ATOM     17  C   UNL     1      -9.457  17.824  66.581  0.00  0.00    +0.077 A 
ATOM     18  C   UNL     1      -8.382  18.627  66.210  0.00  0.00    +0.179 A 
ATOM     19  O   UNL     1      -7.213  18.409  65.476  0.00  0.00    -0.435 OA
ATOM     20  C   UNL     1      -6.223  19.289  65.988  0.00  0.00    +0.429 C 
ATOM     21  O   UNL     1      -6.980  20.277  66.680  0.00  0.00    -0.435 OA
ATOM     22  C   UNL     1      -8.320  19.949  66.632  0.00  0.00    +0.177 A 
ATOM     23  C   UNL     1      -9.449  20.499  67.229  0.00  0.00    +0.043 A 
ATOM     24  C   UNL     1     -10.589  19.705  67.300  0.00  0.00    +0.040 A 
ENDBRANCH  15  16
ENDBRANCH  14  15
ENDBRANCH   2  14
TORSDOF 4
ENDMDL
MODEL 7
REMARK VINA RESULT:      -6.9      5.040      7.275
REMARK  Name = 
REMARK  4 active torsions:
REMARK  status: ('A' for Active; 'I' for Inactive)
REMARK    1  A    between atoms: C_5  and  C_6
REMARK    2  A    between atoms: C_11  and  C_12
REMARK    3  A    between atoms: C_12  and  O_13
REMARK    4  A    between atoms: O_13  and  C_14
REMARK                            x       y       z     vdW  Elec       q    Type
REMARK                         _______ _______ _______ _____ _____    ______ ____
ROOT
ATOM      1  C   UNL     1      -7.862  18.887  67.013  0.00  0.00    +0.029 C 
ATOM      2  C   UNL     1      -9.015  17.684  67.378  0.00  0.00    +0.065 C 
ATOM      3  C   UNL     1     -10.182  18.376  66.488  0.00  0.00    +0.093 C 
ATOM      4  N   UNL     1     -10.944  19.048  67.540  0.00  0.00    -0.218 NA
ATOM      5  C   UNL     1      -9.893  19.712  68.308  0.00  0.00    +0.089 C 
ATOM      6  C   UNL     1      -8.838  20.142  67.370  0.00  0.00    +0.023 C 
ENDROOT
BRANCH   1  11
ATOM      7  F   UNL     1      -3.818  19.220  70.496  0.00  0.00    -0.204 F 
ATOM      8  C   UNL     1      -4.748  19.014  69.919  0.00  0.00    +0.140 A 
ATOM      9  C   UNL     1      -5.872  19.796  70.151  0.00  0.00    +0.029 A 
ATOM     10  C   UNL     1      -6.879  19.840  69.194  0.00  0.00    -0.002 A 
ATOM     11  C   UNL     1      -7.158  18.769  68.444  0.00  0.00    -0.022 A 
ATOM     12  C   UNL     1      -6.172  17.783  68.399  0.00  0.00    -0.002 A 
ATOM     13  C   UNL     1      -4.966  17.931  69.074  0.00  0.00    +0.029 A 
ENDBRANCH   1  11
BRANCH   2  14
ATOM     14  C   UNL     1      -8.582  16.713  66.149  0.00  0.00    +0.207 C 
BRANCH  14  15
ATOM     15  O   UNL     1      -9.616  15.947  65.761  0.00  0.00    -0.475 OA
BRANCH  15  16
ATOM     16  C   UNL     1     -10.107  14.716  66.025  0.00  0.00    +0.142 A 
ATOM     17  C   UNL     1     -10.023  13.783  64.993  0.00  0.00    +0.077 A 
ATOM     18  C   UNL     1     -11.075  12.923  64.688  0.00  0.00    +0.179 A 
ATOM     19  O   UNL     1     -11.267  11.920  63.735  0.00  0.00    -0.435 OA
ATOM     20  C   UNL     1     -12.653  11.886  63.431  0.00  0.00    +0.429 C 
ATOM     21  O   UNL     1     -13.254  12.553  64.536  0.00  0.00    -0.435 OA
ATOM     22  C   UNL     1     -12.270  13.009  65.390  0.00  0.00    +0.177 A 
ATOM     23  C   UNL     1     -12.304  13.801  66.532  0.00  0.00    +0.043 A 
ATOM     24  C   UNL     1     -11.115  14.403  66.931  0.00  0.00    +0.040 A 
ENDBRANCH  15  16
ENDBRANCH  14  15
ENDBRANCH   2  14
TORSDOF 4
ENDMDL
MODEL 8
REMARK VINA RESULT:      -6.8      3.292      6.522
REMARK  Name = 
REMARK  4 active torsions:
REMARK  status: ('A' for Active; 'I' for Inactive)
REMARK    1  A    between atoms: C_5  and  C_6
REMARK    2  A    between atoms: C_11  and  C_12
REMARK    3  A    between atoms: C_12  and  O_13
REMARK    4  A    between atoms: O_13  and  C_14
REMARK                            x       y       z     vdW  Elec       q    Type
REMARK                         _______ _______ _______ _____ _____    ______ ____
ROOT
ATOM      1  C   UNL     1     -11.553  15.030  67.730  0.00  0.00    +0.029 C 
ATOM      2  C   UNL     1     -10.775  14.201  69.002  0.00  0.00    +0.065 C 
ATOM      3  C   UNL     1     -10.395  15.560  69.803  0.00  0.00    +0.093 C 
ATOM      4  N   UNL     1      -8.996  15.711  69.404  0.00  0.00    -0.218 NA
ATOM      5  C   UNL     1      -9.063  15.517  67.957  0.00  0.00    +0.089 C 
ATOM      6  C   UNL     1     -10.337  16.085  67.475  0.00  0.00    +0.023 C 
ENDROOT
BRANCH   1  11
ATOM      7  F   UNL     1     -11.688  12.554  62.992  0.00  0.00    -0.204 F 
ATOM      8  C   UNL     1     -11.564  12.884  64.049  0.00  0.00    +0.140 A 
ATOM      9  C   UNL     1     -10.377  13.495  64.429  0.00  0.00    +0.029 A 
ATOM     10  C   UNL     1     -10.349  14.266  65.586  0.00  0.00    -0.002 A 
ATOM     11  C   UNL     1     -11.111  13.949  66.638  0.00  0.00    -0.022 A 
ATOM     12  C   UNL     1     -12.175  13.084  66.382  0.00  0.00    -0.002 A 
ATOM     13  C   UNL     1     -12.432  12.609  65.101  0.00  0.00    +0.029 A 
ENDBRANCH   1  11
BRANCH   2  14
ATOM     14  C   UNL     1     -12.131  14.003  69.876  0.00  0.00    +0.207 C 
BRANCH  14  15
ATOM     15  O   UNL     1     -12.107  12.828  70.529  0.00  0.00    -0.475 OA
BRANCH  15  16
ATOM     16  C   UNL     1     -12.082  11.512  70.225  0.00  0.00    +0.142 A 
ATOM     17  C   UNL     1     -12.619  10.647  71.178  0.00  0.00    +0.077 A 
ATOM     18  C   UNL     1     -12.001   9.446  71.515  0.00  0.00    +0.179 A 
ATOM     19  O   UNL     1     -12.301   8.415  72.409  0.00  0.00    -0.435 OA
ATOM     20  C   UNL     1     -11.068   7.853  72.834  0.00  0.00    +0.429 C 
ATOM     21  O   UNL     1     -10.145   8.279  71.836  0.00  0.00    -0.435 OA
ATOM     22  C   UNL     1     -10.790   9.097  70.931  0.00  0.00    +0.177 A 
ATOM     23  C   UNL     1     -10.340   9.854  69.855  0.00  0.00    +0.043 A 
ATOM     24  C   UNL     1     -11.170  10.871  69.394  0.00  0.00    +0.040 A 
ENDBRANCH  15  16
ENDBRANCH  14  15
ENDBRANCH   2  14
TORSDOF 4
ENDMDL
MODEL 9
REMARK VINA RESULT:      -6.8      2.999      4.814
REMARK  Name = 
REMARK  4 active torsions:
REMARK  status: ('A' for Active; 'I' for Inactive)
REMARK    1  A    between atoms: C_5  and  C_6
REMARK    2  A    between atoms: C_11  and  C_12
REMARK    3  A    between atoms: C_12  and  O_13
REMARK    4  A    between atoms: O_13  and  C_14
REMARK                            x       y       z     vdW  Elec       q    Type
REMARK                         _______ _______ _______ _____ _____    ______ ____
ROOT
ATOM      1  C   UNL     1     -12.510  10.989  69.810  0.00  0.00    +0.029 C 
ATOM      2  C   UNL     1     -10.841  10.661  69.941  0.00  0.00    +0.065 C 
ATOM      3  C   UNL     1     -11.023   9.066  69.705  0.00  0.00    +0.093 C 
ATOM      4  N   UNL     1     -10.952   8.591  71.087  0.00  0.00    -0.218 NA
ATOM      5  C   UNL     1     -11.864   9.503  71.775  0.00  0.00    +0.089 C 
ATOM      6  C   UNL     1     -12.972   9.828  70.856  0.00  0.00    +0.023 C 
ENDROOT
BRANCH   1  11
ATOM      7  F   UNL     1     -14.045  15.598  72.046  0.00  0.00    -0.204 F 
ATOM      8  C   UNL     1     -13.534  14.679  71.681  0.00  0.00    +0.140 A 
ATOM      9  C   UNL     1     -13.565  13.533  72.465  0.00  0.00    +0.029 A 
ATOM     10  C   UNL     1     -13.309  12.299  71.878  0.00  0.00    -0.002 A 
ATOM     11  C   UNL     1     -12.445  12.190  70.864  0.00  0.00    -0.022 A 
ATOM     12  C   UNL     1     -12.132  13.377  70.200  0.00  0.00    -0.002 A 
ATOM     13  C   UNL     1     -12.712  14.586  70.563  0.00  0.00    +0.029 A 
ENDBRANCH   1  11
BRANCH   2  14
ATOM     14  C   UNL     1     -10.536  10.912  68.365  0.00  0.00    +0.207 C 
BRANCH  14  15
ATOM     15  O   UNL     1      -9.727  11.973  68.201  0.00  0.00    -0.475 OA
BRANCH  15  16
ATOM     16  C   UNL     1      -9.725  13.135  67.511  0.00  0.00    +0.142 A 
ATOM     17  C   UNL     1      -9.036  14.198  68.093  0.00  0.00    +0.077 A 
ATOM     18  C   UNL     1      -9.550  15.492  68.105  0.00  0.00    +0.179 A 
ATOM     19  O   UNL     1      -9.095  16.715  68.604  0.00  0.00    -0.435 OA
ATOM     20  C   UNL     1     -10.239  17.479  68.957  0.00  0.00    +0.429 C 
ATOM     21  O   UNL     1     -11.294  16.851  68.237  0.00  0.00    -0.435 OA
ATOM     22  C   UNL     1     -10.804  15.748  67.567  0.00  0.00    +0.177 A 
ATOM     23  C   UNL     1     -11.417  14.744  66.827  0.00  0.00    +0.043 A 
ATOM     24  C   UNL     1     -10.699  13.570  66.619  0.00  0.00    +0.040 A 
ENDBRANCH  15  16
ENDBRANCH  14  15
ENDBRANCH   2  14
TORSDOF 4
ENDMDL
