MODEL 1
REMARK VINA RESULT:      -6.8      0.000      0.000
REMARK  Name = 
REMARK  0 active torsions:
REMARK  status: ('A' for Active; 'I' for Inactive)
REMARK                            x       y       z     vdW  Elec       q    Type
REMARK                         _______ _______ _______ _____ _____    ______ ____
ROOT
ATOM      1  C   UNL     1     -13.919  15.189  70.778  0.00  0.00    +0.003 C 
ATOM      2  C   UNL     1     -12.528  15.312  70.978  0.00  0.00    +0.028 C 
ATOM      3  C   UNL     1     -12.177  15.297  72.610  0.00  0.00    +0.152 C 
ATOM      4  O   UNL     1     -13.290  16.325  72.927  0.00  0.00    -0.223 OA
ATOM      5  C   UNL     1     -13.225  14.016  72.887  0.00  0.00    +0.033 C 
ATOM      6  C   UNL     1     -13.081  13.197  71.674  0.00  0.00    +0.003 C 
ATOM      7  C   UNL     1     -11.774  13.859  70.951  0.00  0.00    +0.002 C 
ATOM      8  C   UNL     1     -12.321  13.553  69.365  0.00  0.00    +0.001 C 
ATOM      9  C   UNL     1     -11.756  12.049  69.438  0.00  0.00    +0.004 C 
ATOM     10  C   UNL     1     -11.391  11.585  68.086  0.00  0.00    +0.022 C 
ATOM     11  C   UNL     1     -11.744  12.640  67.074  0.00  0.00    -0.042 C 
ATOM     12  C   UNL     1     -11.204  13.994  67.222  0.00  0.00    +0.016 C 
ATOM     13  C   UNL     1     -11.942  15.091  66.633  0.00  0.00    +0.004 C 
ATOM     14  C   UNL     1      -9.795  13.935  66.637  0.00  0.00    +0.012 C 
ATOM     15  C   UNL     1      -9.945  13.877  65.124  0.00  0.00    +0.069 C 
ATOM     16  C   UNL     1     -11.017  12.929  64.741  0.00  0.00    +0.173 C 
ATOM     17  O   UNL     1     -10.996  12.429  63.574  0.00  0.00    -0.291 OA
ATOM     18  C   UNL     1     -11.696  12.193  65.815  0.00  0.00    +0.029 C 
ATOM     19  C   UNL     1     -10.854  14.219  68.800  0.00  0.00    +0.003 C 
ATOM     20  C   UNL     1     -11.453  15.745  68.863  0.00  0.00    +0.000 C 
ATOM     21  C   UNL     1     -11.600  16.142  70.284  0.00  0.00    +0.002 C 
ENDROOT
TORSDOF 0
ENDMDL
MODEL 2
REMARK VINA RESULT:      -6.6      3.290      4.862
REMARK  Name = 
REMARK  0 active torsions:
REMARK  status: ('A' for Active; 'I' for Inactive)
REMARK                            x       y       z     vdW  Elec       q    Type
REMARK                         _______ _______ _______ _____ _____    ______ ____
ROOT
ATOM      1  C   UNL     1      -8.049  17.912  67.219  0.00  0.00    +0.003 C 
ATOM      2  C   UNL     1      -9.208  17.691  67.992  0.00  0.00    +0.028 C 
ATOM      3  C   UNL     1      -9.798  19.141  68.574  0.00  0.00    +0.152 C 
ATOM      4  O   UNL     1      -8.397  19.597  69.048  0.00  0.00    -0.223 OA
ATOM      5  C   UNL     1      -9.584  19.894  67.090  0.00  0.00    +0.033 C 
ATOM      6  C   UNL     1      -9.902  18.830  66.125  0.00  0.00    +0.003 C 
ATOM      7  C   UNL     1     -10.563  17.676  67.074  0.00  0.00    +0.002 C 
ATOM      8  C   UNL     1      -9.973  16.375  66.143  0.00  0.00    +0.001 C 
ATOM      9  C   UNL     1     -11.210  16.515  65.125  0.00  0.00    +0.004 C 
ATOM     10  C   UNL     1     -11.517  15.202  64.525  0.00  0.00    +0.022 C 
ATOM     11  C   UNL     1     -10.519  14.182  65.000  0.00  0.00    -0.042 C 
ATOM     12  C   UNL     1     -10.336  13.963  66.437  0.00  0.00    +0.016 C 
ATOM     13  C   UNL     1      -9.064  13.444  66.891  0.00  0.00    +0.004 C 
ATOM     14  C   UNL     1     -11.465  13.021  66.851  0.00  0.00    +0.012 C 
ATOM     15  C   UNL     1     -11.102  11.638  66.327  0.00  0.00    +0.069 C 
ATOM     16  C   UNL     1     -10.591  11.723  64.939  0.00  0.00    +0.173 C 
ATOM     17  O   UNL     1     -10.654  10.688  64.207  0.00  0.00    -0.291 OA
ATOM     18  C   UNL     1     -10.562  13.044  64.299  0.00  0.00    +0.029 C 
ATOM     19  C   UNL     1     -10.797  15.324  67.208  0.00  0.00    +0.003 C 
ATOM     20  C   UNL     1      -9.543  15.319  68.268  0.00  0.00    +0.000 C 
ATOM     21  C   UNL     1      -9.469  16.646  68.925  0.00  0.00    +0.002 C 
ENDROOT
TORSDOF 0
ENDMDL
MODEL 3
REMARK VINA RESULT:      -6.5      3.328      6.131
REMARK  Name = 
REMARK  0 active torsions:
REMARK  status: ('A' for Active; 'I' for Inactive)
REMARK                            x       y       z     vdW  Elec       q    Type
REMARK                         _______ _______ _______ _____ _____    ______ ____
ROOT
ATOM      1  C   UNL     1     -10.210  13.668  64.704  0.00  0.00    +0.003 C 
ATOM      2  C   UNL     1     -11.162  14.611  65.146  0.00  0.00    +0.028 C 
ATOM      3  C   UNL     1     -12.701  13.976  65.025  0.00  0.00    +0.152 C 
ATOM      4  O   UNL     1     -12.449  13.463  63.586  0.00  0.00    -0.223 OA
ATOM      5  C   UNL     1     -12.213  12.507  65.675  0.00  0.00    +0.033 C 
ATOM      6  C   UNL     1     -11.209  12.901  66.675  0.00  0.00    +0.003 C 
ATOM      7  C   UNL     1     -11.410  14.521  66.761  0.00  0.00    +0.002 C 
ATOM      8  C   UNL     1      -9.766  14.848  67.078  0.00  0.00    +0.001 C 
ATOM      9  C   UNL     1      -9.985  14.546  68.642  0.00  0.00    +0.004 C 
ATOM     10  C   UNL     1      -9.026  15.331  69.444  0.00  0.00    +0.022 C 
ATOM     11  C   UNL     1      -8.105  16.092  68.530  0.00  0.00    -0.042 C 
ATOM     12  C   UNL     1      -8.667  16.999  67.527  0.00  0.00    +0.016 C 
ATOM     13  C   UNL     1      -7.884  17.275  66.342  0.00  0.00    +0.004 C 
ATOM     14  C   UNL     1      -8.964  18.297  68.274  0.00  0.00    +0.012 C 
ATOM     15  C   UNL     1      -7.626  18.980  68.524  0.00  0.00    +0.069 C 
ATOM     16  C   UNL     1      -6.617  17.998  68.983  0.00  0.00    +0.173 C 
ATOM     17  O   UNL     1      -5.615  18.421  69.639  0.00  0.00    -0.291 OA
ATOM     18  C   UNL     1      -7.048  16.607  69.166  0.00  0.00    +0.029 C 
ATOM     19  C   UNL     1     -10.186  16.498  67.201  0.00  0.00    +0.003 C 
ATOM     20  C   UNL     1     -10.062  16.712  65.578  0.00  0.00    +0.000 C 
ATOM     21  C   UNL     1     -11.192  16.017  64.918  0.00  0.00    +0.002 C 
ENDROOT
TORSDOF 0
ENDMDL
MODEL 4
REMARK VINA RESULT:      -6.3      4.223      5.929
REMARK  Name = 
REMARK  0 active torsions:
REMARK  status: ('A' for Active; 'I' for Inactive)
REMARK                            x       y       z     vdW  Elec       q    Type
REMARK                         _______ _______ _______ _____ _____    ______ ____
ROOT
ATOM      1  C   UNL     1      -7.960  19.186  68.644  0.00  0.00    +0.003 C 
ATOM      2  C   UNL     1      -8.192  19.091  67.255  0.00  0.00    +0.028 C 
ATOM      3  C   UNL     1      -7.066  19.999  66.420  0.00  0.00    +0.152 C 
ATOM      4  O   UNL     1      -7.264  21.221  67.348  0.00  0.00    -0.223 OA
ATOM      5  C   UNL     1      -5.808  19.429  67.374  0.00  0.00    +0.033 C 
ATOM      6  C   UNL     1      -6.191  18.034  67.636  0.00  0.00    +0.003 C 
ATOM      7  C   UNL     1      -7.429  17.804  66.593  0.00  0.00    +0.002 C 
ATOM      8  C   UNL     1      -8.270  16.724  67.611  0.00  0.00    +0.001 C 
ATOM      9  C   UNL     1      -7.361  15.500  67.100  0.00  0.00    +0.004 C 
ATOM     10  C   UNL     1      -8.124  14.240  67.182  0.00  0.00    +0.022 C 
ATOM     11  C   UNL     1      -9.472  14.502  67.795  0.00  0.00    -0.042 C 
ATOM     12  C   UNL     1     -10.359  15.501  67.192  0.00  0.00    +0.016 C 
ATOM     13  C   UNL     1     -11.343  16.138  68.040  0.00  0.00    +0.004 C 
ATOM     14  C   UNL     1     -11.048  14.784  66.034  0.00  0.00    +0.012 C 
ATOM     15  C   UNL     1     -12.083  13.849  66.644  0.00  0.00    +0.069 C 
ATOM     16  C   UNL     1     -11.517  13.134  67.811  0.00  0.00    +0.173 C 
ATOM     17  O   UNL     1     -12.048  12.037  68.166  0.00  0.00    -0.291 OA
ATOM     18  C   UNL     1     -10.110  13.382  68.151  0.00  0.00    +0.029 C 
ATOM     19  C   UNL     1      -9.428  16.557  66.368  0.00  0.00    +0.003 C 
ATOM     20  C   UNL     1     -10.246  17.889  66.869  0.00  0.00    +0.000 C 
ATOM     21  C   UNL     1      -9.435  19.091  66.559  0.00  0.00    +0.002 C 
ENDROOT
TORSDOF 0
ENDMDL
MODEL 5
REMARK VINA RESULT:      -6.3      3.269      6.383
REMARK  Name = 
REMARK  0 active torsions:
REMARK  status: ('A' for Active; 'I' for Inactive)
REMARK                            x       y       z     vdW  Elec       q    Type
REMARK                         _______ _______ _______ _____ _____    ______ ____
ROOT
ATOM      1  C   UNL     1     -11.504  12.181  66.415  0.00  0.00    +0.003 C 
ATOM      2  C   UNL     1     -10.218  12.373  65.868  0.00  0.00    +0.028 C 
ATOM      3  C   UNL     1     -10.011  11.400  64.528  0.00  0.00    +0.152 C 
ATOM      4  O   UNL     1     -10.570  10.156  65.261  0.00  0.00    -0.223 OA
ATOM      5  C   UNL     1     -11.534  11.784  63.936  0.00  0.00    +0.033 C 
ATOM      6  C   UNL     1     -11.693  13.196  64.316  0.00  0.00    +0.003 C 
ATOM      7  C   UNL     1     -10.186  13.608  64.795  0.00  0.00    +0.002 C 
ATOM      8  C   UNL     1     -10.714  14.713  65.982  0.00  0.00    +0.001 C 
ATOM      9  C   UNL     1     -10.880  15.862  64.870  0.00  0.00    +0.004 C 
ATOM     10  C   UNL     1     -10.676  17.188  65.484  0.00  0.00    +0.022 C 
ATOM     11  C   UNL     1     -10.461  17.034  66.964  0.00  0.00    -0.042 C 
ATOM     12  C   UNL     1      -9.387  16.166  67.453  0.00  0.00    +0.016 C 
ATOM     13  C   UNL     1      -9.525  15.589  68.773  0.00  0.00    +0.004 C 
ATOM     14  C   UNL     1      -8.118  17.011  67.379  0.00  0.00    +0.012 C 
ATOM     15  C   UNL     1      -8.185  18.014  68.522  0.00  0.00    +0.069 C 
ATOM     16  C   UNL     1      -9.540  18.603  68.621  0.00  0.00    +0.173 C 
ATOM     17  O   UNL     1      -9.671  19.729  69.193  0.00  0.00    -0.291 OA
ATOM     18  C   UNL     1     -10.539  18.193  67.626  0.00  0.00    +0.029 C 
ATOM     19  C   UNL     1      -9.072  15.065  66.292  0.00  0.00    +0.003 C 
ATOM     20  C   UNL     1      -8.935  13.799  67.328  0.00  0.00    +0.000 C 
ATOM     21  C   UNL     1      -8.977  12.539  66.550  0.00  0.00    +0.002 C 
ENDROOT
TORSDOF 0
ENDMDL
MODEL 6
REMARK VINA RESULT:      -6.3      3.155      5.239
REMARK  Name = 
REMARK  0 active torsions:
REMARK  status: ('A' for Active; 'I' for Inactive)
REMARK                            x       y       z     vdW  Elec       q    Type
REMARK                         _______ _______ _______ _____ _____    ______ ____
ROOT
ATOM      1  C   UNL     1      -8.670   9.793  68.187  0.00  0.00    +0.003 C 
ATOM      2  C   UNL     1      -9.972   9.409  67.801  0.00  0.00    +0.028 C 
ATOM      3  C   UNL     1     -10.524   8.177  68.784  0.00  0.00    +0.152 C 
ATOM      4  O   UNL     1      -9.204   7.382  68.643  0.00  0.00    -0.223 OA
ATOM      5  C   UNL     1      -9.961   8.944  70.167  0.00  0.00    +0.033 C 
ATOM      6  C   UNL     1     -10.186  10.368  69.875  0.00  0.00    +0.003 C 
ATOM      7  C   UNL     1     -11.121  10.313  68.536  0.00  0.00    +0.002 C 
ATOM      8  C   UNL     1     -10.488  11.747  67.864  0.00  0.00    +0.001 C 
ATOM      9  C   UNL     1     -11.488  12.633  68.759  0.00  0.00    +0.004 C 
ATOM     10  C   UNL     1     -11.795  13.898  68.064  0.00  0.00    +0.022 C 
ATOM     11  C   UNL     1     -11.007  13.979  66.785  0.00  0.00    -0.042 C 
ATOM     12  C   UNL     1     -11.124  12.907  65.794  0.00  0.00    +0.016 C 
ATOM     13  C   UNL     1     -10.016  12.692  64.888  0.00  0.00    +0.004 C 
ATOM     14  C   UNL     1     -12.394  13.220  65.006  0.00  0.00    +0.012 C 
ATOM     15  C   UNL     1     -12.068  14.390  64.089  0.00  0.00    +0.069 C 
ATOM     16  C   UNL     1     -11.295  15.424  64.815  0.00  0.00    +0.173 C 
ATOM     17  O   UNL     1     -11.313  16.615  64.374  0.00  0.00    -0.291 OA
ATOM     18  C   UNL     1     -11.021  15.200  66.240  0.00  0.00    +0.029 C 
ATOM     19  C   UNL     1     -11.595  11.556  66.578  0.00  0.00    +0.003 C 
ATOM     20  C   UNL     1     -10.573  10.558  65.769  0.00  0.00    +0.000 C 
ATOM     21  C   UNL     1     -10.503   9.263  66.487  0.00  0.00    +0.002 C 
ENDROOT
TORSDOF 0
ENDMDL
MODEL 7
REMARK VINA RESULT:      -6.3      3.685      5.900
REMARK  Name = 
REMARK  0 active torsions:
REMARK  status: ('A' for Active; 'I' for Inactive)
REMARK                            x       y       z     vdW  Elec       q    Type
REMARK                         _______ _______ _______ _____ _____    ______ ____
ROOT
ATOM      1  C   UNL     1      -9.390  13.102  67.732  0.00  0.00    +0.003 C 
ATOM      2  C   UNL     1     -10.361  13.726  66.922  0.00  0.00    +0.028 C 
ATOM      3  C   UNL     1     -11.774  12.837  66.927  0.00  0.00    +0.152 C 
ATOM      4  O   UNL     1     -11.019  11.509  66.676  0.00  0.00    -0.223 OA
ATOM      5  C   UNL     1     -11.698  12.611  68.589  0.00  0.00    +0.033 C 
ATOM      6  C   UNL     1     -11.140  13.882  69.074  0.00  0.00    +0.003 C 
ATOM      7  C   UNL     1     -11.230  14.838  67.751  0.00  0.00    +0.002 C 
ATOM      8  C   UNL     1      -9.823  15.725  68.125  0.00  0.00    +0.001 C 
ATOM      9  C   UNL     1     -10.661  16.683  69.107  0.00  0.00    +0.004 C 
ATOM     10  C   UNL     1     -10.035  18.018  69.162  0.00  0.00    +0.022 C 
ATOM     11  C   UNL     1      -8.773  18.020  68.345  0.00  0.00    -0.042 C 
ATOM     12  C   UNL     1      -8.822  17.628  66.934  0.00  0.00    +0.016 C 
ATOM     13  C   UNL     1      -7.618  17.101  66.330  0.00  0.00    +0.004 C 
ATOM     14  C   UNL     1      -9.285  18.874  66.183  0.00  0.00    +0.012 C 
ATOM     15  C   UNL     1      -8.104  19.833  66.146  0.00  0.00    +0.069 C 
ATOM     16  C   UNL     1      -7.436  19.890  67.467  0.00  0.00    +0.173 C 
ATOM     17  O   UNL     1      -6.742  20.915  67.752  0.00  0.00    -0.291 OA
ATOM     18  C   UNL     1      -8.013  19.099  68.561  0.00  0.00    +0.029 C 
ATOM     19  C   UNL     1     -10.125  16.667  66.733  0.00  0.00    +0.003 C 
ATOM     20  C   UNL     1      -9.358  15.587  65.763  0.00  0.00    +0.000 C 
ATOM     21  C   UNL     1     -10.189  14.365  65.659  0.00  0.00    +0.002 C 
ENDROOT
TORSDOF 0
ENDMDL
MODEL 8
REMARK VINA RESULT:      -6.3      4.963      6.710
REMARK  Name = 
REMARK  0 active torsions:
REMARK  status: ('A' for Active; 'I' for Inactive)
REMARK                            x       y       z     vdW  Elec       q    Type
REMARK                         _______ _______ _______ _____ _____    ______ ____
ROOT
ATOM      1  C   UNL     1      -5.496  18.838  67.184  0.00  0.00    +0.003 C 
ATOM      2  C   UNL     1      -6.260  18.842  68.371  0.00  0.00    +0.028 C 
ATOM      3  C   UNL     1      -5.888  20.185  69.290  0.00  0.00    +0.152 C 
ATOM      4  O   UNL     1      -4.366  19.960  69.125  0.00  0.00    -0.223 OA
ATOM      5  C   UNL     1      -5.925  21.191  67.947  0.00  0.00    +0.033 C 
ATOM      6  C   UNL     1      -7.009  20.622  67.132  0.00  0.00    +0.003 C 
ATOM      7  C   UNL     1      -7.712  19.567  68.163  0.00  0.00    +0.002 C 
ATOM      8  C   UNL     1      -8.146  18.452  66.948  0.00  0.00    +0.001 C 
ATOM      9  C   UNL     1      -9.470  19.301  66.612  0.00  0.00    +0.004 C 
ATOM     10  C   UNL     1     -10.521  18.405  66.091  0.00  0.00    +0.022 C 
ATOM     11  C   UNL     1      -9.981  17.007  65.969  0.00  0.00    -0.042 C 
ATOM     12  C   UNL     1      -9.401  16.349  67.142  0.00  0.00    +0.016 C 
ATOM     13  C   UNL     1      -8.422  15.306  66.925  0.00  0.00    +0.004 C 
ATOM     14  C   UNL     1     -10.589  15.799  67.927  0.00  0.00    +0.012 C 
ATOM     15  C   UNL     1     -11.095  14.580  67.168  0.00  0.00    +0.069 C 
ATOM     16  C   UNL     1     -11.148  14.856  65.714  0.00  0.00    +0.173 C 
ATOM     17  O   UNL     1     -11.926  14.158  64.993  0.00  0.00    -0.291 OA
ATOM     18  C   UNL     1     -10.776  16.201  65.257  0.00  0.00    +0.029 C 
ATOM     19  C   UNL     1      -8.893  17.516  68.164  0.00  0.00    +0.003 C 
ATOM     20  C   UNL     1      -7.481  16.770  68.542  0.00  0.00    +0.000 C 
ATOM     21  C   UNL     1      -6.593  17.745  69.218  0.00  0.00    +0.002 C 
ENDROOT
TORSDOF 0
ENDMDL
MODEL 9
REMARK VINA RESULT:      -6.2      3.896      5.877
REMARK  Name = 
REMARK  0 active torsions:
REMARK  status: ('A' for Active; 'I' for Inactive)
REMARK                            x       y       z     vdW  Elec       q    Type
REMARK                         _______ _______ _______ _____ _____    ______ ____
ROOT
ATOM      1  C   UNL     1     -10.583   8.533  68.081  0.00  0.00    +0.003 C 
ATOM      2  C   UNL     1      -9.372   9.256  68.039  0.00  0.00    +0.028 C 
ATOM      3  C   UNL     1      -8.077   8.223  68.243  0.00  0.00    +0.152 C 
ATOM      4  O   UNL     1      -8.739   7.523  69.454  0.00  0.00    -0.223 OA
ATOM      5  C   UNL     1      -8.729   7.096  67.185  0.00  0.00    +0.033 C 
ATOM      6  C   UNL     1      -9.381   7.933  66.165  0.00  0.00    +0.003 C 
ATOM      7  C   UNL     1      -8.810   9.424  66.512  0.00  0.00    +0.002 C 
ATOM      8  C   UNL     1     -10.231  10.234  66.029  0.00  0.00    +0.001 C 
ATOM      9  C   UNL     1      -9.755  10.200  64.494  0.00  0.00    +0.004 C 
ATOM     10  C   UNL     1     -10.319  11.354  63.767  0.00  0.00    +0.022 C 
ATOM     11  C   UNL     1     -11.220  12.137  64.682  0.00  0.00    -0.042 C 
ATOM     12  C   UNL     1     -10.698  12.644  65.953  0.00  0.00    +0.016 C 
ATOM     13  C   UNL     1     -11.635  12.879  67.030  0.00  0.00    +0.004 C 
ATOM     14  C   UNL     1      -9.965  13.938  65.603  0.00  0.00    +0.012 C 
ATOM     15  C   UNL     1     -11.031  14.987  65.319  0.00  0.00    +0.069 C 
ATOM     16  C   UNL     1     -12.112  14.421  64.480  0.00  0.00    +0.173 C 
ATOM     17  O   UNL     1     -12.829  15.217  63.798  0.00  0.00    -0.291 OA
ATOM     18  C   UNL     1     -11.974  13.030  64.032  0.00  0.00    +0.029 C 
ATOM     19  C   UNL     1      -9.436  11.703  66.382  0.00  0.00    +0.003 C 
ATOM     20  C   UNL     1      -9.854  11.618  67.967  0.00  0.00    +0.000 C 
ATOM     21  C   UNL     1      -9.077  10.530  68.607  0.00  0.00    +0.002 C 
ENDROOT
TORSDOF 0
ENDMDL
