MODEL 1
REMARK VINA RESULT:      -7.1      0.000      0.000
REMARK  Name = 
REMARK  8 active torsions:
REMARK  status: ('A' for Active; 'I' for Inactive)
REMARK    1  A    between atoms: O_2  and  C_3
REMARK    2  A    between atoms: C_3  and  N_4
REMARK    3  A    between atoms: C_5  and  C_7
REMARK    4  A    between atoms: C_7  and  C_8
REMARK    5  A    between atoms: C_16  and  C_17
REMARK    6  A    between atoms: C_20  and  C_21
REMARK    7  A    between atoms: C_21  and  O_22
REMARK    8  A    between atoms: O_22  and  C_23
REMARK                            x       y       z     vdW  Elec       q    Type
REMARK                         _______ _______ _______ _____ _____    ______ ____
ROOT
ATOM      1  C   UNL     1      -9.070  18.368  67.246  0.00  0.00    +0.268 C 
ATOM      2  C   UNL     1      -8.204  18.926  68.460  0.00  0.00    +0.181 C 
ATOM      3  N   UNL     1      -7.202  19.366  67.398  0.00  0.00    -0.238 N 
ATOM      4  C   UNL     1      -5.971  19.828  67.957  0.00  0.00    +0.131 C 
ATOM      5  C   UNL     1      -5.532  19.444  69.157  0.00  0.00    +0.030 C 
ATOM      6  C   UNL     1      -5.651  17.981  69.465  0.00  0.00    +0.086 C 
ATOM      7  S   UNL     1      -7.231  17.312  68.839  0.00  0.00    -0.112 S 
ATOM      8  C   UNL     1      -7.798  18.392  66.522  0.00  0.00    +0.277 C 
ATOM      9  O   UNL     1      -7.557  18.240  65.284  0.00  0.00    -0.270 OA
ENDROOT
BRANCH   4  10
ATOM     10  C   UNL     1      -5.290  20.782  67.109  0.00  0.00    +0.401 C 
ATOM     11  O   UNL     1      -4.194  20.519  66.327  0.00  0.00    -0.239 OA
ATOM     12  O   UNL     1      -5.836  21.920  66.974  0.00  0.00    -0.239 OA
ENDBRANCH   4  10
BRANCH   1  13
ATOM     13  N   UNL     1      -9.688  17.142  67.586  0.00  0.00    -0.171 NA
ATOM     14  C   UNL     1     -10.106  16.171  66.615  0.00  0.00    +0.249 C 
ATOM     15  O   UNL     1     -10.233  16.641  65.441  0.00  0.00    -0.273 OA
BRANCH  14  16
ATOM     16  C   UNL     1      -9.601  14.767  66.601  0.00  0.00    +0.120 C 
BRANCH  16  17
ATOM     17  C   UNL     1     -10.638  13.787  66.183  0.00  0.00    +0.016 A 
ATOM     18  S   UNL     1     -10.592  12.994  64.659  0.00  0.00    -0.090 S 
ATOM     19  C   UNL     1     -12.279  12.803  64.392  0.00  0.00    +0.035 A 
ATOM     20  C   UNL     1     -12.759  13.709  65.332  0.00  0.00    +0.007 A 
ATOM     21  C   UNL     1     -11.980  13.734  66.453  0.00  0.00    +0.003 A 
ENDBRANCH  16  17
ENDBRANCH  14  16
ENDBRANCH   1  13
BRANCH   1  23
ATOM     22  C   UNL     1     -10.316  19.716  67.042  0.00  0.00    +0.177 C 
ATOM     23  O   UNL     1      -9.894  19.385  66.744  0.00  0.00    -0.328 OA
ENDBRANCH   1  23
BRANCH   5  24
ATOM     24  C   UNL     1      -4.478  20.243  69.797  0.00  0.00    +0.235 C 
BRANCH  24  25
ATOM     25  O   UNL     1      -4.993  21.291  70.592  0.00  0.00    -0.428 OA
BRANCH  25  26
ATOM     26  C   UNL     1      -4.480  21.407  71.886  0.00  0.00    +0.441 C 
ATOM     27  O   UNL     1      -4.511  22.484  72.527  0.00  0.00    -0.223 OA
ATOM     28  N   UNL     1      -3.654  20.336  72.339  0.00  0.00    -0.048 NA
ENDBRANCH  25  26
ENDBRANCH  24  25
ENDBRANCH   5  24
TORSDOF 8
ENDMDL
MODEL 2
REMARK VINA RESULT:      -6.9      5.128      7.063
REMARK  Name = 
REMARK  8 active torsions:
REMARK  status: ('A' for Active; 'I' for Inactive)
REMARK    1  A    between atoms: O_2  and  C_3
REMARK    2  A    between atoms: C_3  and  N_4
REMARK    3  A    between atoms: C_5  and  C_7
REMARK    4  A    between atoms: C_7  and  C_8
REMARK    5  A    between atoms: C_16  and  C_17
REMARK    6  A    between atoms: C_20  and  C_21
REMARK    7  A    between atoms: C_21  and  O_22
REMARK    8  A    between atoms: O_22  and  C_23
REMARK                            x       y       z     vdW  Elec       q    Type
REMARK                         _______ _______ _______ _____ _____    ______ ____
ROOT
ATOM      1  C   UNL     1     -11.474  13.564  65.575  0.00  0.00    +0.268 C 
ATOM      2  C   UNL     1     -12.292  13.995  66.872  0.00  0.00    +0.181 C 
ATOM      3  N   UNL     1     -11.099  14.890  67.190  0.00  0.00    -0.238 N 
ATOM      4  C   UNL     1     -11.175  15.469  68.495  0.00  0.00    +0.131 C 
ATOM      5  C   UNL     1     -11.869  14.917  69.492  0.00  0.00    +0.030 C 
ATOM      6  C   UNL     1     -11.717  13.435  69.660  0.00  0.00    +0.086 C 
ATOM      7  S   UNL     1     -11.672  12.598  68.037  0.00  0.00    -0.112 S 
ATOM      8  C   UNL     1     -10.315  14.045  66.328  0.00  0.00    +0.277 C 
ATOM      9  O   UNL     1      -9.120  14.251  65.949  0.00  0.00    -0.270 OA
ENDROOT
BRANCH   4  10
ATOM     10  C   UNL     1     -10.465  16.726  68.595  0.00  0.00    +0.401 C 
ATOM     11  O   UNL     1      -9.201  16.894  69.102  0.00  0.00    -0.239 OA
ATOM     12  O   UNL     1     -11.005  17.733  68.043  0.00  0.00    -0.239 OA
ENDBRANCH   4  10
BRANCH   1  13
ATOM     13  N   UNL     1     -11.643  12.185  65.305  0.00  0.00    -0.171 NA
ATOM     14  C   UNL     1     -10.850  11.464  64.350  0.00  0.00    +0.249 C 
ATOM     15  O   UNL     1     -10.262  12.209  63.505  0.00  0.00    -0.273 OA
BRANCH  14  16
ATOM     16  C   UNL     1     -10.027  10.273  64.712  0.00  0.00    +0.120 C 
BRANCH  16  17
ATOM     17  C   UNL     1      -9.941  10.059  66.181  0.00  0.00    +0.016 A 
ATOM     18  S   UNL     1      -8.532  10.445  67.084  0.00  0.00    -0.090 S 
ATOM     19  C   UNL     1      -8.648   9.247  68.312  0.00  0.00    +0.035 A 
ATOM     20  C   UNL     1      -9.570   8.399  67.709  0.00  0.00    +0.007 A 
ATOM     21  C   UNL     1     -10.493   9.091  66.979  0.00  0.00    +0.003 A 
ENDBRANCH  16  17
ENDBRANCH  14  16
ENDBRANCH   1  13
BRANCH   1  23
ATOM     22  C   UNL     1     -12.279  14.633  64.303  0.00  0.00    +0.177 C 
ATOM     23  O   UNL     1     -11.736  14.459  64.529  0.00  0.00    -0.328 OA
ENDBRANCH   1  23
BRANCH   5  24
ATOM     24  C   UNL     1     -12.198  15.756  70.653  0.00  0.00    +0.235 C 
BRANCH  24  25
ATOM     25  O   UNL     1     -13.567  15.698  70.999  0.00  0.00    -0.428 OA
BRANCH  25  26
ATOM     26  C   UNL     1     -13.864  15.403  72.332  0.00  0.00    +0.441 C 
ATOM     27  O   UNL     1     -14.009  16.296  73.200  0.00  0.00    -0.223 OA
ATOM     28  N   UNL     1     -13.705  14.043  72.731  0.00  0.00    -0.048 NA
ENDBRANCH  25  26
ENDBRANCH  24  25
ENDBRANCH   5  24
TORSDOF 8
ENDMDL
MODEL 3
REMARK VINA RESULT:      -6.6      1.229      1.439
REMARK  Name = 
REMARK  8 active torsions:
REMARK  status: ('A' for Active; 'I' for Inactive)
REMARK    1  A    between atoms: O_2  and  C_3
REMARK    2  A    between atoms: C_3  and  N_4
REMARK    3  A    between atoms: C_5  and  C_7
REMARK    4  A    between atoms: C_7  and  C_8
REMARK    5  A    between atoms: C_16  and  C_17
REMARK    6  A    between atoms: C_20  and  C_21
REMARK    7  A    between atoms: C_21  and  O_22
REMARK    8  A    between atoms: O_22  and  C_23
REMARK                            x       y       z     vdW  Elec       q    Type
REMARK                         _______ _______ _______ _____ _____    ______ ____
ROOT
ATOM      1  C   UNL     1      -9.301  17.997  67.194  0.00  0.00    +0.268 C 
ATOM      2  C   UNL     1      -8.543  18.158  68.586  0.00  0.00    +0.181 C 
ATOM      3  N   UNL     1      -7.398  18.745  67.767  0.00  0.00    -0.238 N 
ATOM      4  C   UNL     1      -6.210  18.937  68.538  0.00  0.00    +0.131 C 
ATOM      5  C   UNL     1      -5.939  18.233  69.638  0.00  0.00    +0.030 C 
ATOM      6  C   UNL     1      -6.194  16.758  69.556  0.00  0.00    +0.086 C 
ATOM      7  S   UNL     1      -7.735  16.416  68.636  0.00  0.00    -0.112 S 
ATOM      8  C   UNL     1      -7.956  18.074  66.622  0.00  0.00    +0.277 C 
ATOM      9  O   UNL     1      -7.585  18.205  65.414  0.00  0.00    -0.270 OA
ENDROOT
BRANCH   4  10
ATOM     10  C   UNL     1      -5.371  19.999  68.024  0.00  0.00    +0.401 C 
ATOM     11  O   UNL     1      -4.186  19.830  67.353  0.00  0.00    -0.239 OA
ATOM     12  O   UNL     1      -5.840  21.177  68.080  0.00  0.00    -0.239 OA
ENDBRANCH   4  10
BRANCH   1  13
ATOM     13  N   UNL     1     -10.038  16.790  67.156  0.00  0.00    -0.171 NA
ATOM     14  C   UNL     1     -10.524  16.199  65.942  0.00  0.00    +0.249 C 
ATOM     15  O   UNL     1     -10.581  17.009  64.964  0.00  0.00    -0.273 OA
BRANCH  14  16
ATOM     16  C   UNL     1     -10.152  14.822  65.504  0.00  0.00    +0.120 C 
BRANCH  16  17
ATOM     17  C   UNL     1     -10.561  13.778  66.480  0.00  0.00    +0.016 A 
ATOM     18  S   UNL     1      -9.419  12.872  67.389  0.00  0.00    -0.090 S 
ATOM     19  C   UNL     1     -10.292  11.400  67.548  0.00  0.00    +0.035 A 
ATOM     20  C   UNL     1     -11.247  11.598  66.557  0.00  0.00    +0.007 A 
ATOM     21  C   UNL     1     -11.620  12.908  66.469  0.00  0.00    +0.003 A 
ENDBRANCH  16  17
ENDBRANCH  14  16
ENDBRANCH   1  13
BRANCH   1  23
ATOM     22  C   UNL     1     -10.299  19.549  67.268  0.00  0.00    +0.177 C 
ATOM     23  O   UNL     1      -9.989  19.180  66.889  0.00  0.00    -0.328 OA
ENDBRANCH   1  23
BRANCH   5  24
ATOM     24  C   UNL     1      -4.912  18.748  70.554  0.00  0.00    +0.235 C 
BRANCH  24  25
ATOM     25  O   UNL     1      -5.396  19.773  71.397  0.00  0.00    -0.428 OA
BRANCH  25  26
ATOM     26  C   UNL     1      -4.484  20.766  71.764  0.00  0.00    +0.441 C 
ATOM     27  O   UNL     1      -4.505  21.915  71.263  0.00  0.00    -0.223 OA
ATOM     28  N   UNL     1      -3.346  20.337  72.509  0.00  0.00    -0.048 NA
ENDBRANCH  25  26
ENDBRANCH  24  25
ENDBRANCH   5  24
TORSDOF 8
ENDMDL
MODEL 4
REMARK VINA RESULT:      -6.3      4.177      6.516
REMARK  Name = 
REMARK  8 active torsions:
REMARK  status: ('A' for Active; 'I' for Inactive)
REMARK    1  A    between atoms: O_2  and  C_3
REMARK    2  A    between atoms: C_3  and  N_4
REMARK    3  A    between atoms: C_5  and  C_7
REMARK    4  A    between atoms: C_7  and  C_8
REMARK    5  A    between atoms: C_16  and  C_17
REMARK    6  A    between atoms: C_20  and  C_21
REMARK    7  A    between atoms: C_21  and  O_22
REMARK    8  A    between atoms: O_22  and  C_23
REMARK                            x       y       z     vdW  Elec       q    Type
REMARK                         _______ _______ _______ _____ _____    ______ ____
ROOT
ATOM      1  C   UNL     1     -11.656  12.575  67.211  0.00  0.00    +0.268 C 
ATOM      2  C   UNL     1     -12.022  14.066  67.635  0.00  0.00    +0.181 C 
ATOM      3  N   UNL     1     -10.792  14.478  66.831  0.00  0.00    -0.238 N 
ATOM      4  C   UNL     1     -10.453  15.855  67.007  0.00  0.00    +0.131 C 
ATOM      5  C   UNL     1     -10.793  16.551  68.093  0.00  0.00    +0.030 C 
ATOM      6  C   UNL     1     -10.589  15.861  69.409  0.00  0.00    +0.086 C 
ATOM      7  S   UNL     1     -11.058  14.099  69.298  0.00  0.00    -0.112 S 
ATOM      8  C   UNL     1     -10.320  13.127  66.981  0.00  0.00    +0.277 C 
ATOM      9  O   UNL     1      -9.308  12.612  66.412  0.00  0.00    -0.270 OA
ENDROOT
BRANCH   4  10
ATOM     10  C   UNL     1      -9.753  16.412  65.870  0.00  0.00    +0.401 C 
ATOM     11  O   UNL     1      -8.405  16.662  65.802  0.00  0.00    -0.239 OA
ATOM     12  O   UNL     1     -10.420  16.552  64.799  0.00  0.00    -0.239 OA
ENDBRANCH   4  10
BRANCH   1  13
ATOM     13  N   UNL     1     -11.897  11.673  68.274  0.00  0.00    -0.171 NA
ATOM     14  C   UNL     1     -11.283  10.379  68.366  0.00  0.00    +0.249 C 
ATOM     15  O   UNL     1     -10.821   9.951  67.262  0.00  0.00    -0.273 OA
BRANCH  14  16
ATOM     16  C   UNL     1     -10.439   9.961  69.524  0.00  0.00    +0.120 C 
BRANCH  16  17
ATOM     17  C   UNL     1     -11.245   9.561  70.708  0.00  0.00    +0.016 A 
ATOM     18  S   UNL     1     -11.664   7.925  71.024  0.00  0.00    -0.090 S 
ATOM     19  C   UNL     1     -13.173   8.169  71.810  0.00  0.00    +0.035 A 
ATOM     20  C   UNL     1     -13.414   9.484  71.428  0.00  0.00    +0.007 A 
ATOM     21  C   UNL     1     -12.260  10.210  71.360  0.00  0.00    +0.003 A 
ENDBRANCH  16  17
ENDBRANCH  14  16
ENDBRANCH   1  13
BRANCH   1  23
ATOM     22  C   UNL     1     -12.390  12.663  65.519  0.00  0.00    +0.177 C 
ATOM     23  O   UNL     1     -12.240  12.278  65.972  0.00  0.00    -0.328 OA
ENDBRANCH   1  23
BRANCH   5  24
ATOM     24  C   UNL     1     -10.740  18.018  68.020  0.00  0.00    +0.235 C 
BRANCH  24  25
ATOM     25  O   UNL     1      -9.782  18.574  68.897  0.00  0.00    -0.428 OA
BRANCH  25  26
ATOM     26  C   UNL     1      -8.699  19.231  68.307  0.00  0.00    +0.441 C 
ATOM     27  O   UNL     1      -7.636  19.466  68.929  0.00  0.00    -0.223 OA
ATOM     28  N   UNL     1      -8.954  19.884  67.065  0.00  0.00    -0.048 NA
ENDBRANCH  25  26
ENDBRANCH  24  25
ENDBRANCH   5  24
TORSDOF 8
ENDMDL
MODEL 5
REMARK VINA RESULT:      -6.3      2.795      7.883
REMARK  Name = 
REMARK  8 active torsions:
REMARK  status: ('A' for Active; 'I' for Inactive)
REMARK    1  A    between atoms: O_2  and  C_3
REMARK    2  A    between atoms: C_3  and  N_4
REMARK    3  A    between atoms: C_5  and  C_7
REMARK    4  A    between atoms: C_7  and  C_8
REMARK    5  A    between atoms: C_16  and  C_17
REMARK    6  A    between atoms: C_20  and  C_21
REMARK    7  A    between atoms: C_21  and  O_22
REMARK    8  A    between atoms: O_22  and  C_23
REMARK                            x       y       z     vdW  Elec       q    Type
REMARK                         _______ _______ _______ _____ _____    ______ ____
ROOT
ATOM      1  C   UNL     1      -6.002  19.719  65.687  0.00  0.00    +0.268 C 
ATOM      2  C   UNL     1      -6.892  18.409  65.522  0.00  0.00    +0.181 C 
ATOM      3  N   UNL     1      -8.002  19.214  66.190  0.00  0.00    -0.238 N 
ATOM      4  C   UNL     1      -9.139  18.416  66.523  0.00  0.00    +0.131 C 
ATOM      5  C   UNL     1      -9.064  17.100  66.731  0.00  0.00    +0.030 C 
ATOM      6  C   UNL     1      -7.916  16.629  67.573  0.00  0.00    +0.086 C 
ATOM      7  S   UNL     1      -6.394  17.556  67.170  0.00  0.00    -0.112 S 
ATOM      8  C   UNL     1      -6.975  20.070  66.722  0.00  0.00    +0.277 C 
ATOM      9  O   UNL     1      -7.149  21.162  67.347  0.00  0.00    -0.270 OA
ENDROOT
BRANCH   4  10
ATOM     10  C   UNL     1     -10.370  19.177  66.562  0.00  0.00    +0.401 C 
ATOM     11  O   UNL     1     -11.153  19.378  67.671  0.00  0.00    -0.239 OA
ATOM     12  O   UNL     1     -10.675  19.824  65.514  0.00  0.00    -0.239 OA
ENDBRANCH   4  10
BRANCH   1  13
ATOM     13  N   UNL     1      -4.669  19.386  66.025  0.00  0.00    -0.171 NA
ATOM     14  C   UNL     1      -3.800  20.258  66.762  0.00  0.00    +0.249 C 
ATOM     15  O   UNL     1      -4.168  21.475  66.757  0.00  0.00    -0.273 OA
BRANCH  14  16
ATOM     16  C   UNL     1      -3.171  19.871  68.059  0.00  0.00    +0.120 C 
BRANCH  16  17
ATOM     17  C   UNL     1      -3.919  20.387  69.237  0.00  0.00    +0.016 A 
ATOM     18  S   UNL     1      -3.136  21.154  70.559  0.00  0.00    -0.090 S 
ATOM     19  C   UNL     1      -4.203  20.691  71.824  0.00  0.00    +0.035 A 
ATOM     20  C   UNL     1      -4.878  19.659  71.181  0.00  0.00    +0.007 A 
ATOM     21  C   UNL     1      -5.051  19.920  69.852  0.00  0.00    +0.003 A 
ENDBRANCH  16  17
ENDBRANCH  14  16
ENDBRANCH   1  13
BRANCH   1  23
ATOM     22  C   UNL     1      -6.055  20.460  63.995  0.00  0.00    +0.177 C 
ATOM     23  O   UNL     1      -6.192  20.564  64.585  0.00  0.00    -0.328 OA
ENDBRANCH   1  23
BRANCH   5  24
ATOM     24  C   UNL     1     -10.310  16.321  66.691  0.00  0.00    +0.235 C 
BRANCH  24  25
ATOM     25  O   UNL     1     -10.357  15.422  65.602  0.00  0.00    -0.428 OA
BRANCH  25  26
ATOM     26  C   UNL     1     -11.291  15.701  64.601  0.00  0.00    +0.441 C 
ATOM     27  O   UNL     1     -11.428  16.846  64.110  0.00  0.00    -0.223 OA
ATOM     28  N   UNL     1     -12.284  14.705  64.364  0.00  0.00    -0.048 NA
ENDBRANCH  25  26
ENDBRANCH  24  25
ENDBRANCH   5  24
TORSDOF 8
ENDMDL
MODEL 6
REMARK VINA RESULT:      -6.2      3.065      4.651
REMARK  Name = 
REMARK  8 active torsions:
REMARK  status: ('A' for Active; 'I' for Inactive)
REMARK    1  A    between atoms: O_2  and  C_3
REMARK    2  A    between atoms: C_3  and  N_4
REMARK    3  A    between atoms: C_5  and  C_7
REMARK    4  A    between atoms: C_7  and  C_8
REMARK    5  A    between atoms: C_16  and  C_17
REMARK    6  A    between atoms: C_20  and  C_21
REMARK    7  A    between atoms: C_21  and  O_22
REMARK    8  A    between atoms: O_22  and  C_23
REMARK                            x       y       z     vdW  Elec       q    Type
REMARK                         _______ _______ _______ _____ _____    ______ ____
ROOT
ATOM      1  C   UNL     1     -10.688  15.492  66.836  0.00  0.00    +0.268 C 
ATOM      2  C   UNL     1     -10.489  17.070  66.770  0.00  0.00    +0.181 C 
ATOM      3  N   UNL     1      -9.002  16.764  66.626  0.00  0.00    -0.238 N 
ATOM      4  C   UNL     1      -8.186  17.935  66.716  0.00  0.00    +0.131 C 
ATOM      5  C   UNL     1      -8.571  19.038  67.359  0.00  0.00    +0.030 C 
ATOM      6  C   UNL     1      -9.218  18.830  68.696  0.00  0.00    +0.086 C 
ATOM      7  S   UNL     1     -10.334  17.384  68.660  0.00  0.00    -0.112 S 
ATOM      8  C   UNL     1      -9.273  15.478  67.211  0.00  0.00    +0.277 C 
ATOM      9  O   UNL     1      -8.462  14.506  67.312  0.00  0.00    -0.270 OA
ENDROOT
BRANCH   4  10
ATOM     10  C   UNL     1      -6.935  17.805  66.001  0.00  0.00    +0.401 C 
ATOM     11  O   UNL     1      -6.590  18.485  64.859  0.00  0.00    -0.239 OA
ATOM     12  O   UNL     1      -6.029  17.107  66.552  0.00  0.00    -0.239 OA
ENDBRANCH   4  10
BRANCH   1  13
ATOM     13  N   UNL     1     -11.691  15.146  67.773  0.00  0.00    -0.171 NA
ATOM     14  C   UNL     1     -11.823  13.835  68.342  0.00  0.00    +0.249 C 
ATOM     15  O   UNL     1     -11.235  12.926  67.677  0.00  0.00    -0.273 OA
BRANCH  14  16
ATOM     16  C   UNL     1     -11.764  13.579  69.811  0.00  0.00    +0.120 C 
BRANCH  16  17
ATOM     17  C   UNL     1     -12.498  14.601  70.603  0.00  0.00    +0.016 A 
ATOM     18  S   UNL     1     -11.720  15.590  71.773  0.00  0.00    -0.090 S 
ATOM     19  C   UNL     1     -13.025  15.807  72.869  0.00  0.00    +0.035 A 
ATOM     20  C   UNL     1     -13.856  14.781  72.433  0.00  0.00    +0.007 A 
ATOM     21  C   UNL     1     -13.782  14.610  71.081  0.00  0.00    +0.003 A 
ENDBRANCH  16  17
ENDBRANCH  14  16
ENDBRANCH   1  13
BRANCH   1  23
ATOM     22  C   UNL     1     -11.202  15.149  65.096  0.00  0.00    +0.177 C 
ATOM     23  O   UNL     1     -10.816  14.975  65.539  0.00  0.00    -0.328 OA
ENDBRANCH   1  23
BRANCH   5  24
ATOM     24  C   UNL     1      -7.852  20.289  67.081  0.00  0.00    +0.235 C 
BRANCH  24  25
ATOM     25  O   UNL     1      -6.898  20.603  68.074  0.00  0.00    -0.428 OA
BRANCH  25  26
ATOM     26  C   UNL     1      -5.638  21.007  67.626  0.00  0.00    +0.441 C 
ATOM     27  O   UNL     1      -5.481  21.976  66.847  0.00  0.00    -0.223 OA
ATOM     28  N   UNL     1      -4.563  20.097  67.851  0.00  0.00    -0.048 NA
ENDBRANCH  25  26
ENDBRANCH  24  25
ENDBRANCH   5  24
TORSDOF 8
ENDMDL
MODEL 7
REMARK VINA RESULT:      -6.1      5.357      7.767
REMARK  Name = 
REMARK  8 active torsions:
REMARK  status: ('A' for Active; 'I' for Inactive)
REMARK    1  A    between atoms: O_2  and  C_3
REMARK    2  A    between atoms: C_3  and  N_4
REMARK    3  A    between atoms: C_5  and  C_7
REMARK    4  A    between atoms: C_7  and  C_8
REMARK    5  A    between atoms: C_16  and  C_17
REMARK    6  A    between atoms: C_20  and  C_21
REMARK    7  A    between atoms: C_21  and  O_22
REMARK    8  A    between atoms: O_22  and  C_23
REMARK                            x       y       z     vdW  Elec       q    Type
REMARK                         _______ _______ _______ _____ _____    ______ ____
ROOT
ATOM      1  C   UNL     1     -10.865  12.459  66.179  0.00  0.00    +0.268 C 
ATOM      2  C   UNL     1     -11.891  13.140  67.188  0.00  0.00    +0.181 C 
ATOM      3  N   UNL     1     -10.769  14.130  67.485  0.00  0.00    -0.238 N 
ATOM      4  C   UNL     1     -11.065  14.986  68.590  0.00  0.00    +0.131 C 
ATOM      5  C   UNL     1     -11.919  14.648  69.558  0.00  0.00    +0.030 C 
ATOM      6  C   UNL     1     -11.798  13.250  70.086  0.00  0.00    +0.086 C 
ATOM      7  S   UNL     1     -11.478  12.070  68.729  0.00  0.00    -0.112 S 
ATOM      8  C   UNL     1      -9.850  13.143  66.982  0.00  0.00    +0.277 C 
ATOM      9  O   UNL     1      -8.608  13.305  66.768  0.00  0.00    -0.270 OA
ENDROOT
BRANCH   4  10
ATOM     10  C   UNL     1     -10.383  16.260  68.515  0.00  0.00    +0.401 C 
ATOM     11  O   UNL     1     -10.924  17.433  68.051  0.00  0.00    -0.239 OA
ATOM     12  O   UNL     1      -9.234  16.327  69.050  0.00  0.00    -0.239 OA
ENDBRANCH   4  10
BRANCH   1  13
ATOM     13  N   UNL     1     -10.986  11.050  66.209  0.00  0.00    -0.171 NA
ATOM     14  C   UNL     1      -9.951  10.158  65.766  0.00  0.00    +0.249 C 
ATOM     15  O   UNL     1      -9.094  10.705  65.004  0.00  0.00    -0.273 OA
BRANCH  14  16
ATOM     16  C   UNL     1      -9.334   9.127  66.651  0.00  0.00    +0.120 C 
BRANCH  16  17
ATOM     17  C   UNL     1     -10.344   8.282  67.340  0.00  0.00    +0.016 A 
ATOM     18  S   UNL     1     -10.428   8.160  69.051  0.00  0.00    -0.090 S 
ATOM     19  C   UNL     1     -11.013   6.550  69.190  0.00  0.00    +0.035 A 
ATOM     20  C   UNL     1     -10.739   6.101  67.903  0.00  0.00    +0.007 A 
ATOM     21  C   UNL     1     -10.910   7.088  66.976  0.00  0.00    +0.003 A 
ENDBRANCH  16  17
ENDBRANCH  14  16
ENDBRANCH   1  13
BRANCH   1  23
ATOM     22  C   UNL     1     -11.444  13.290  64.635  0.00  0.00    +0.177 C 
ATOM     23  O   UNL     1     -10.945  13.083  64.926  0.00  0.00    -0.328 OA
ENDBRANCH   1  23
BRANCH   5  24
ATOM     24  C   UNL     1     -12.440  15.715  70.425  0.00  0.00    +0.235 C 
BRANCH  24  25
ATOM     25  O   UNL     1     -12.804  15.248  71.707  0.00  0.00    -0.428 OA
BRANCH  25  26
ATOM     26  C   UNL     1     -14.142  14.886  71.885  0.00  0.00    +0.441 C 
ATOM     27  O   UNL     1     -15.082  15.706  71.758  0.00  0.00    -0.223 OA
ATOM     28  N   UNL     1     -14.381  13.623  72.504  0.00  0.00    -0.048 NA
ENDBRANCH  25  26
ENDBRANCH  24  25
ENDBRANCH   5  24
TORSDOF 8
ENDMDL
MODEL 8
REMARK VINA RESULT:      -6.1      3.253      8.090
REMARK  Name = 
REMARK  8 active torsions:
REMARK  status: ('A' for Active; 'I' for Inactive)
REMARK    1  A    between atoms: O_2  and  C_3
REMARK    2  A    between atoms: C_3  and  N_4
REMARK    3  A    between atoms: C_5  and  C_7
REMARK    4  A    between atoms: C_7  and  C_8
REMARK    5  A    between atoms: C_16  and  C_17
REMARK    6  A    between atoms: C_20  and  C_21
REMARK    7  A    between atoms: C_21  and  O_22
REMARK    8  A    between atoms: O_22  and  C_23
REMARK                            x       y       z     vdW  Elec       q    Type
REMARK                         _______ _______ _______ _____ _____    ______ ____
ROOT
ATOM      1  C   UNL     1      -9.343  18.531  66.750  0.00  0.00    +0.268 C 
ATOM      2  C   UNL     1     -10.208  17.259  66.336  0.00  0.00    +0.181 C 
ATOM      3  N   UNL     1     -10.240  16.936  67.827  0.00  0.00    -0.238 N 
ATOM      4  C   UNL     1     -10.790  15.645  68.100  0.00  0.00    +0.131 C 
ATOM      5  C   UNL     1     -10.779  14.651  67.211  0.00  0.00    +0.030 C 
ATOM      6  C   UNL     1      -9.495  14.449  66.463  0.00  0.00    +0.086 C 
ATOM      7  S   UNL     1      -8.746  16.054  66.014  0.00  0.00    -0.112 S 
ATOM      8  C   UNL     1      -9.073  17.766  67.968  0.00  0.00    +0.277 C 
ATOM      9  O   UNL     1      -8.528  18.126  69.058  0.00  0.00    -0.270 OA
ENDROOT
BRANCH   4  10
ATOM     10  C   UNL     1     -11.393  15.557  69.412  0.00  0.00    +0.401 C 
ATOM     11  O   UNL     1     -10.790  15.058  70.540  0.00  0.00    -0.239 OA
ATOM     12  O   UNL     1     -12.524  16.113  69.562  0.00  0.00    -0.239 OA
ENDBRANCH   4  10
BRANCH   1  13
ATOM     13  N   UNL     1      -8.320  18.776  65.804  0.00  0.00    -0.171 NA
ATOM     14  C   UNL     1      -7.117  19.498  66.111  0.00  0.00    +0.249 C 
ATOM     15  O   UNL     1      -7.203  20.218  67.154  0.00  0.00    -0.273 OA
BRANCH  14  16
ATOM     16  C   UNL     1      -5.755  18.911  65.948  0.00  0.00    +0.120 C 
BRANCH  16  17
ATOM     17  C   UNL     1      -5.075  19.370  64.708  0.00  0.00    +0.016 A 
ATOM     18  S   UNL     1      -4.460  20.965  64.533  0.00  0.00    -0.090 S 
ATOM     19  C   UNL     1      -4.671  21.163  62.839  0.00  0.00    +0.035 A 
ATOM     20  C   UNL     1      -5.554  20.116  62.600  0.00  0.00    +0.007 A 
ATOM     21  C   UNL     1      -5.289  19.039  63.395  0.00  0.00    +0.003 A 
ENDBRANCH  16  17
ENDBRANCH  14  16
ENDBRANCH   1  13
BRANCH   1  23
ATOM     22  C   UNL     1     -10.529  19.945  66.688  0.00  0.00    +0.177 C 
ATOM     23  O   UNL     1     -10.193  19.600  67.067  0.00  0.00    -0.328 OA
ENDBRANCH   1  23
BRANCH   5  24
ATOM     24  C   UNL     1     -11.683  13.513  67.433  0.00  0.00    +0.235 C 
BRANCH  24  25
ATOM     25  O   UNL     1     -11.809  12.686  66.296  0.00  0.00    -0.428 OA
BRANCH  25  26
ATOM     26  C   UNL     1     -12.612  13.166  65.258  0.00  0.00    +0.441 C 
ATOM     27  O   UNL     1     -13.372  14.153  65.399  0.00  0.00    -0.223 OA
ATOM     28  N   UNL     1     -12.757  12.315  64.123  0.00  0.00    -0.048 NA
ENDBRANCH  25  26
ENDBRANCH  24  25
ENDBRANCH   5  24
TORSDOF 8
ENDMDL
MODEL 9
REMARK VINA RESULT:      -6.0      2.946      8.816
REMARK  Name = 
REMARK  8 active torsions:
REMARK  status: ('A' for Active; 'I' for Inactive)
REMARK    1  A    between atoms: O_2  and  C_3
REMARK    2  A    between atoms: C_3  and  N_4
REMARK    3  A    between atoms: C_5  and  C_7
REMARK    4  A    between atoms: C_7  and  C_8
REMARK    5  A    between atoms: C_16  and  C_17
REMARK    6  A    between atoms: C_20  and  C_21
REMARK    7  A    between atoms: C_21  and  O_22
REMARK    8  A    between atoms: O_22  and  C_23
REMARK                            x       y       z     vdW  Elec       q    Type
REMARK                         _______ _______ _______ _____ _____    ______ ____
ROOT
ATOM      1  C   UNL     1      -9.465  18.004  67.012  0.00  0.00    +0.268 C 
ATOM      2  C   UNL     1      -9.317  16.716  66.086  0.00  0.00    +0.181 C 
ATOM      3  N   UNL     1     -10.436  16.117  66.932  0.00  0.00    -0.238 N 
ATOM      4  C   UNL     1     -10.649  14.729  66.663  0.00  0.00    +0.131 C 
ATOM      5  C   UNL     1      -9.699  13.934  66.169  0.00  0.00    +0.030 C 
ATOM      6  C   UNL     1      -8.337  14.074  66.780  0.00  0.00    +0.086 C 
ATOM      7  S   UNL     1      -7.949  15.830  67.104  0.00  0.00    -0.112 S 
ATOM      8  C   UNL     1     -10.092  17.073  67.951  0.00  0.00    +0.277 C 
ATOM      9  O   UNL     1     -10.734  17.300  69.023  0.00  0.00    -0.270 OA
ENDROOT
BRANCH   4  10
ATOM     10  C   UNL     1     -12.005  14.305  66.938  0.00  0.00    +0.401 C 
ATOM     11  O   UNL     1     -12.988  14.109  66.001  0.00  0.00    -0.239 OA
ATOM     12  O   UNL     1     -12.264  13.953  68.129  0.00  0.00    -0.239 OA
ENDBRANCH   4  10
BRANCH   1  13
ATOM     13  N   UNL     1      -8.201  18.575  67.290  0.00  0.00    -0.171 NA
ATOM     14  C   UNL     1      -7.887  19.237  68.524  0.00  0.00    +0.249 C 
ATOM     15  O   UNL     1      -8.910  19.607  69.182  0.00  0.00    -0.273 OA
BRANCH  14  16
ATOM     16  C   UNL     1      -6.776  18.801  69.420  0.00  0.00    +0.120 C 
BRANCH  16  17
ATOM     17  C   UNL     1      -6.148  19.934  70.149  0.00  0.00    +0.016 A 
ATOM     18  S   UNL     1      -4.927  20.917  69.445  0.00  0.00    -0.090 S 
ATOM     19  C   UNL     1      -4.041  21.322  70.861  0.00  0.00    +0.035 A 
ATOM     20  C   UNL     1      -4.543  20.353  71.723  0.00  0.00    +0.007 A 
ATOM     21  C   UNL     1      -5.860  20.093  71.479  0.00  0.00    +0.003 A 
ENDBRANCH  16  17
ENDBRANCH  14  16
ENDBRANCH   1  13
BRANCH   1  23
ATOM     22  C   UNL     1     -10.383  19.332  66.115  0.00  0.00    +0.177 C 
ATOM     23  O   UNL     1     -10.452  18.852  66.490  0.00  0.00    -0.328 OA
ENDBRANCH   1  23
BRANCH   5  24
ATOM     24  C   UNL     1     -10.108  12.651  65.580  0.00  0.00    +0.235 C 
BRANCH  24  25
ATOM     25  O   UNL     1     -10.271  12.720  64.178  0.00  0.00    -0.428 OA
BRANCH  25  26
ATOM     26  C   UNL     1     -11.125  11.777  63.600  0.00  0.00    +0.441 C 
ATOM     27  O   UNL     1     -10.701  10.724  63.069  0.00  0.00    -0.223 OA
ATOM     28  N   UNL     1     -12.470  12.195  63.373  0.00  0.00    -0.048 NA
ENDBRANCH  25  26
ENDBRANCH  24  25
ENDBRANCH   5  24
TORSDOF 8
ENDMDL
