MODEL 1
REMARK VINA RESULT:      -7.7      0.000      0.000
REMARK  Name = 
REMARK  5 active torsions:
REMARK  status: ('A' for Active; 'I' for Inactive)
REMARK    1  A    between atoms: C_2  and  C_3
REMARK    2  A    between atoms: C_2  and  C_11
REMARK    3  A    between atoms: C_4  and  C_5
REMARK    4  A    between atoms: C_5  and  C_7
REMARK    5  A    between atoms: C_16  and  C_17
REMARK                            x       y       z     vdW  Elec       q    Type
REMARK                         _______ _______ _______ _____ _____    ______ ____
ROOT
ATOM      1  C   UNL     1     -11.404  11.925  65.394  0.00  0.00    +0.004 C 
ATOM      2  C   UNL     1     -10.845  13.234  66.173  0.00  0.00    +0.004 C 
ATOM      3  C   UNL     1     -11.906  12.890  67.390  0.00  0.00    +0.018 C 
ATOM      4  C   UNL     1     -11.125  13.870  68.432  0.00  0.00    -0.045 C 
ATOM      5  C   UNL     1     -11.289  15.285  67.965  0.00  0.00    +0.022 C 
ATOM      6  C   UNL     1     -10.809  15.528  66.573  0.00  0.00    +0.004 C 
ATOM      7  C   UNL     1     -11.603  13.710  69.678  0.00  0.00    -0.009 C 
ATOM      8  C   UNL     1     -10.989  11.581  67.802  0.00  0.00    +0.004 C 
ATOM      9  C   UNL     1      -9.498  13.002  66.657  0.00  0.00    +0.000 C 
ATOM     10  C   UNL     1     -11.276  14.468  65.580  0.00  0.00    +0.001 C 
ATOM     11  C   UNL     1     -10.692  10.951  66.489  0.00  0.00    +0.001 C 
ENDROOT
BRANCH   7  12
ATOM     12  C   UNL     1     -11.141  14.655  70.701  0.00  0.00    -0.009 C 
ATOM     13  C   UNL     1     -12.042  15.348  71.382  0.00  0.00    -0.039 C 
ATOM     14  C   UNL     1     -13.426  15.342  70.937  0.00  0.00    +0.055 C 
ATOM     15  C   UNL     1     -14.310  14.613  72.165  0.00  0.00    +0.159 C 
ATOM     16  O   UNL     1     -13.145  13.745  72.701  0.00  0.00    -0.223 OA
ATOM     17  C   UNL     1     -14.056  15.919  73.178  0.00  0.00    +0.066 C 
ATOM     18  C   UNL     1     -12.547  15.578  73.804  0.00  0.00    +0.159 C 
ATOM     19  O   UNL     1     -12.544  16.921  74.558  0.00  0.00    -0.223 OA
ATOM     20  C   UNL     1     -11.740  16.261  72.499  0.00  0.00    +0.055 C 
ENDBRANCH   7  12
BRANCH   1  22
ATOM     21  C   UNL     1     -11.028  12.231  63.070  0.00  0.00    +0.005 C 
ATOM     22  C   UNL     1     -10.041  11.916  64.342  0.00  0.00    +0.022 C 
BRANCH  22  23
ATOM     23  C   UNL     1     -10.068  10.325  64.071  0.00  0.00    -0.031 C 
ATOM     24  C   UNL     1      -8.943   9.800  63.589  0.00  0.00    -0.029 C 
BRANCH  24  25
ATOM     25  C   UNL     1      -8.976   9.383  62.014  0.00  0.00    +0.050 C 
ATOM     26  C   UNL     1      -8.279   7.909  62.303  0.00  0.00    +0.007 C 
BRANCH  25  27
ATOM     27  C   UNL     1      -7.519  10.114  61.733  0.00  0.00    +0.130 C 
ATOM     28  O   UNL     1      -7.935  11.415  61.569  0.00  0.00    -0.225 OA
ATOM     29  C   UNL     1      -7.070   9.427  60.488  0.00  0.00    +0.033 C 
ATOM     30  C   UNL     1      -6.677   9.854  62.926  0.00  0.00    +0.033 C 
ENDBRANCH  25  27
ENDBRANCH  24  25
ENDBRANCH  22  23
ENDBRANCH   1  22
TORSDOF 5
ENDMDL
MODEL 2
REMARK VINA RESULT:      -7.3      3.294      9.407
REMARK  Name = 
REMARK  5 active torsions:
REMARK  status: ('A' for Active; 'I' for Inactive)
REMARK    1  A    between atoms: C_2  and  C_3
REMARK    2  A    between atoms: C_2  and  C_11
REMARK    3  A    between atoms: C_4  and  C_5
REMARK    4  A    between atoms: C_5  and  C_7
REMARK    5  A    between atoms: C_16  and  C_17
REMARK                            x       y       z     vdW  Elec       q    Type
REMARK                         _______ _______ _______ _____ _____    ______ ____
ROOT
ATOM      1  C   UNL     1     -10.060  13.069  67.593  0.00  0.00    +0.004 C 
ATOM      2  C   UNL     1     -10.491  11.898  66.557  0.00  0.00    +0.004 C 
ATOM      3  C   UNL     1      -8.912  11.415  66.537  0.00  0.00    +0.018 C 
ATOM      4  C   UNL     1      -9.297   9.970  65.887  0.00  0.00    -0.045 C 
ATOM      5  C   UNL     1      -9.801  10.197  64.495  0.00  0.00    +0.022 C 
ATOM      6  C   UNL     1     -10.968  11.125  64.412  0.00  0.00    +0.004 C 
ATOM      7  C   UNL     1      -8.230   9.153  65.891  0.00  0.00    -0.009 C 
ATOM      8  C   UNL     1      -9.077  10.859  68.082  0.00  0.00    +0.004 C 
ATOM      9  C   UNL     1     -11.274  10.881  67.232  0.00  0.00    +0.000 C 
ATOM     10  C   UNL     1     -10.792  12.392  65.242  0.00  0.00    +0.001 C 
ATOM     11  C   UNL     1      -9.807  11.961  68.761  0.00  0.00    +0.001 C 
ENDROOT
BRANCH   7  12
ATOM     12  C   UNL     1      -8.353   7.883  65.167  0.00  0.00    -0.009 C 
ATOM     13  C   UNL     1      -8.439   6.758  65.861  0.00  0.00    -0.039 C 
ATOM     14  C   UNL     1      -8.162   6.784  67.289  0.00  0.00    +0.055 C 
ATOM     15  C   UNL     1      -9.598   6.363  68.053  0.00  0.00    +0.159 C 
ATOM     16  O   UNL     1     -10.529   6.884  66.930  0.00  0.00    -0.223 OA
ATOM     17  C   UNL     1      -9.484   4.792  67.490  0.00  0.00    +0.066 C 
ATOM     18  C   UNL     1     -10.120   4.931  65.954  0.00  0.00    +0.159 C 
ATOM     19  O   UNL     1      -9.796   3.451  65.673  0.00  0.00    -0.223 OA
ATOM     20  C   UNL     1      -8.660   5.421  65.283  0.00  0.00    +0.055 C 
ENDBRANCH   7  12
BRANCH   1  22
ATOM     21  C   UNL     1     -11.661  14.802  67.327  0.00  0.00    +0.005 C 
ATOM     22  C   UNL     1     -11.701  13.328  68.047  0.00  0.00    +0.022 C 
BRANCH  22  23
ATOM     23  C   UNL     1     -11.360  13.942  69.502  0.00  0.00    -0.031 C 
ATOM     24  C   UNL     1     -12.366  13.957  70.374  0.00  0.00    -0.029 C 
BRANCH  24  25
ATOM     25  C   UNL     1     -13.029  15.418  70.663  0.00  0.00    +0.050 C 
ATOM     26  C   UNL     1     -11.568  16.100  71.040  0.00  0.00    +0.007 C 
BRANCH  25  27
ATOM     27  C   UNL     1     -13.349  15.023  72.237  0.00  0.00    +0.130 C 
ATOM     28  O   UNL     1     -14.350  15.927  72.509  0.00  0.00    -0.225 OA
ATOM     29  C   UNL     1     -12.040  15.305  72.893  0.00  0.00    +0.033 C 
ATOM     30  C   UNL     1     -13.753  13.596  72.242  0.00  0.00    +0.033 C 
ENDBRANCH  25  27
ENDBRANCH  24  25
ENDBRANCH  22  23
ENDBRANCH   1  22
TORSDOF 5
ENDMDL
MODEL 3
REMARK VINA RESULT:      -7.2      1.397     10.176
REMARK  Name = 
REMARK  5 active torsions:
REMARK  status: ('A' for Active; 'I' for Inactive)
REMARK    1  A    between atoms: C_2  and  C_3
REMARK    2  A    between atoms: C_2  and  C_11
REMARK    3  A    between atoms: C_4  and  C_5
REMARK    4  A    between atoms: C_5  and  C_7
REMARK    5  A    between atoms: C_16  and  C_17
REMARK                            x       y       z     vdW  Elec       q    Type
REMARK                         _______ _______ _______ _____ _____    ______ ____
ROOT
ATOM      1  C   UNL     1     -10.398  13.906  67.506  0.00  0.00    +0.004 C 
ATOM      2  C   UNL     1     -11.023  13.239  66.166  0.00  0.00    +0.004 C 
ATOM      3  C   UNL     1      -9.526  12.621  65.846  0.00  0.00    +0.018 C 
ATOM      4  C   UNL     1     -10.127  11.557  64.767  0.00  0.00    -0.045 C 
ATOM      5  C   UNL     1     -10.651  12.322  63.590  0.00  0.00    +0.022 C 
ATOM      6  C   UNL     1     -11.684  13.343  63.935  0.00  0.00    +0.004 C 
ATOM      7  C   UNL     1      -9.181  10.678  64.394  0.00  0.00    -0.009 C 
ATOM      8  C   UNL     1      -9.704  11.572  67.107  0.00  0.00    +0.004 C 
ATOM      9  C   UNL     1     -11.910  12.143  66.508  0.00  0.00    +0.000 C 
ATOM     10  C   UNL     1     -11.306  14.201  65.138  0.00  0.00    +0.001 C 
ATOM     11  C   UNL     1     -10.251  12.433  68.188  0.00  0.00    +0.001 C 
ENDROOT
BRANCH   7  12
ATOM     12  C   UNL     1      -9.504   9.773  63.286  0.00  0.00    -0.009 C 
ATOM     13  C   UNL     1      -8.723   9.772  62.215  0.00  0.00    -0.039 C 
ATOM     14  C   UNL     1      -7.730  10.823  62.061  0.00  0.00    +0.055 C 
ATOM     15  C   UNL     1      -6.232  10.063  62.102  0.00  0.00    +0.159 C 
ATOM     16  O   UNL     1      -6.690   8.866  62.972  0.00  0.00    -0.223 OA
ATOM     17  C   UNL     1      -6.515   9.340  60.620  0.00  0.00    +0.066 C 
ATOM     18  C   UNL     1      -7.416   8.005  61.056  0.00  0.00    +0.159 C 
ATOM     19  O   UNL     1      -7.602   7.632  59.573  0.00  0.00    -0.223 OA
ATOM     20  C   UNL     1      -8.862   8.859  61.066  0.00  0.00    +0.055 C 
ENDBRANCH   7  12
BRANCH   1  22
ATOM     21  C   UNL     1     -11.782  15.784  67.944  0.00  0.00    +0.005 C 
ATOM     22  C   UNL     1     -11.970  14.169  68.160  0.00  0.00    +0.022 C 
BRANCH  22  23
ATOM     23  C   UNL     1     -11.484  14.237  69.698  0.00  0.00    -0.031 C 
ATOM     24  C   UNL     1     -12.454  14.288  70.610  0.00  0.00    -0.029 C 
BRANCH  24  25
ATOM     25  C   UNL     1     -12.678  15.735  71.324  0.00  0.00    +0.050 C 
ATOM     26  C   UNL     1     -11.559  15.420  72.504  0.00  0.00    +0.007 C 
BRANCH  25  27
ATOM     27  C   UNL     1     -13.930  15.154  72.235  0.00  0.00    +0.130 C 
ATOM     28  O   UNL     1     -13.938  16.084  73.248  0.00  0.00    -0.225 OA
ATOM     29  C   UNL     1     -13.428  13.802  72.615  0.00  0.00    +0.033 C 
ATOM     30  C   UNL     1     -15.126  15.149  71.357  0.00  0.00    +0.033 C 
ENDBRANCH  25  27
ENDBRANCH  24  25
ENDBRANCH  22  23
ENDBRANCH   1  22
TORSDOF 5
ENDMDL
MODEL 4
REMARK VINA RESULT:      -7.2      5.523      8.614
REMARK  Name = 
REMARK  5 active torsions:
REMARK  status: ('A' for Active; 'I' for Inactive)
REMARK    1  A    between atoms: C_2  and  C_3
REMARK    2  A    between atoms: C_2  and  C_11
REMARK    3  A    between atoms: C_4  and  C_5
REMARK    4  A    between atoms: C_5  and  C_7
REMARK    5  A    between atoms: C_16  and  C_17
REMARK                            x       y       z     vdW  Elec       q    Type
REMARK                         _______ _______ _______ _____ _____    ______ ____
ROOT
ATOM      1  C   UNL     1      -9.276  16.459  68.493  0.00  0.00    +0.004 C 
ATOM      2  C   UNL     1      -9.070  17.869  67.717  0.00  0.00    +0.004 C 
ATOM      3  C   UNL     1      -7.591  17.984  68.442  0.00  0.00    +0.018 C 
ATOM      4  C   UNL     1      -7.097  19.131  67.394  0.00  0.00    -0.045 C 
ATOM      5  C   UNL     1      -7.905  20.370  67.632  0.00  0.00    +0.022 C 
ATOM      6  C   UNL     1      -9.380  20.168  67.515  0.00  0.00    +0.004 C 
ATOM      7  C   UNL     1      -5.783  19.371  67.544  0.00  0.00    -0.009 C 
ATOM      8  C   UNL     1      -7.042  16.755  67.488  0.00  0.00    +0.004 C 
ATOM      9  C   UNL     1      -8.870  17.645  66.298  0.00  0.00    +0.000 C 
ATOM     10  C   UNL     1      -9.879  18.928  68.250  0.00  0.00    +0.001 C 
ATOM     11  C   UNL     1      -8.144  15.760  67.553  0.00  0.00    +0.001 C 
ENDROOT
BRANCH   7  12
ATOM     12  C   UNL     1      -5.220  20.510  66.811  0.00  0.00    -0.009 C 
ATOM     13  C   UNL     1      -4.604  20.287  65.659  0.00  0.00    -0.039 C 
ATOM     14  C   UNL     1      -4.286  18.919  65.279  0.00  0.00    +0.055 C 
ATOM     15  C   UNL     1      -5.172  18.601  63.888  0.00  0.00    +0.159 C 
ATOM     16  O   UNL     1      -6.314  19.600  64.200  0.00  0.00    -0.223 OA
ATOM     17  C   UNL     1      -4.232  19.661  62.999  0.00  0.00    +0.066 C 
ATOM     18  C   UNL     1      -4.946  21.128  63.347  0.00  0.00    +0.159 C 
ATOM     19  O   UNL     1      -3.865  21.861  62.531  0.00  0.00    -0.223 OA
ATOM     20  C   UNL     1      -4.072  21.332  64.766  0.00  0.00    +0.055 C 
ENDBRANCH   7  12
BRANCH   1  22
ATOM     21  C   UNL     1     -11.590  15.982  68.727  0.00  0.00    +0.005 C 
ATOM     22  C   UNL     1     -10.569  16.022  67.443  0.00  0.00    +0.022 C 
BRANCH  22  23
ATOM     23  C   UNL     1     -10.291  14.433  67.513  0.00  0.00    -0.031 C 
ATOM     24  C   UNL     1     -10.517  13.756  66.389  0.00  0.00    -0.029 C 
BRANCH  24  25
ATOM     25  C   UNL     1     -11.860  12.834  66.377  0.00  0.00    +0.050 C 
ATOM     26  C   UNL     1     -11.000  11.435  66.160  0.00  0.00    +0.007 C 
BRANCH  25  27
ATOM     27  C   UNL     1     -12.068  13.060  64.751  0.00  0.00    +0.130 C 
ATOM     28  O   UNL     1     -13.200  12.305  64.550  0.00  0.00    -0.225 OA
ATOM     29  C   UNL     1     -10.810  12.481  64.200  0.00  0.00    +0.033 C 
ATOM     30  C   UNL     1     -12.224  14.520  64.544  0.00  0.00    +0.033 C 
ENDBRANCH  25  27
ENDBRANCH  24  25
ENDBRANCH  22  23
ENDBRANCH   1  22
TORSDOF 5
ENDMDL
MODEL 5
REMARK VINA RESULT:      -7.1      4.307      7.798
REMARK  Name = 
REMARK  5 active torsions:
REMARK  status: ('A' for Active; 'I' for Inactive)
REMARK    1  A    between atoms: C_2  and  C_3
REMARK    2  A    between atoms: C_2  and  C_11
REMARK    3  A    between atoms: C_4  and  C_5
REMARK    4  A    between atoms: C_5  and  C_7
REMARK    5  A    between atoms: C_16  and  C_17
REMARK                            x       y       z     vdW  Elec       q    Type
REMARK                         _______ _______ _______ _____ _____    ______ ____
ROOT
ATOM      1  C   UNL     1     -10.511  16.412  67.120  0.00  0.00    +0.004 C 
ATOM      2  C   UNL     1     -10.621  15.465  68.433  0.00  0.00    +0.004 C 
ATOM      3  C   UNL     1     -11.473  14.390  67.514  0.00  0.00    +0.018 C 
ATOM      4  C   UNL     1     -11.250  13.192  68.596  0.00  0.00    -0.045 C 
ATOM      5  C   UNL     1     -12.001  13.538  69.846  0.00  0.00    +0.022 C 
ATOM      6  C   UNL     1     -11.618  14.850  70.446  0.00  0.00    +0.004 C 
ATOM      7  C   UNL     1     -11.662  12.017  68.090  0.00  0.00    -0.009 C 
ATOM      8  C   UNL     1     -10.091  14.019  66.691  0.00  0.00    +0.004 C 
ATOM      9  C   UNL     1      -9.332  14.880  68.748  0.00  0.00    +0.000 C 
ATOM     10  C   UNL     1     -11.527  15.977  69.422  0.00  0.00    +0.001 C 
ATOM     11  C   UNL     1      -9.490  15.351  66.422  0.00  0.00    +0.001 C 
ENDROOT
BRANCH   7  12
ATOM     12  C   UNL     1     -11.709  10.871  69.004  0.00  0.00    -0.009 C 
ATOM     13  C   UNL     1     -10.937   9.823  68.755  0.00  0.00    -0.039 C 
ATOM     14  C   UNL     1     -10.261   9.730  67.471  0.00  0.00    +0.055 C 
ATOM     15  C   UNL     1      -8.615   9.788  67.803  0.00  0.00    +0.159 C 
ATOM     16  O   UNL     1      -8.749  10.606  69.111  0.00  0.00    -0.223 OA
ATOM     17  C   UNL     1      -8.666   8.277  68.517  0.00  0.00    +0.066 C 
ATOM     18  C   UNL     1      -9.182   8.644  70.060  0.00  0.00    +0.159 C 
ATOM     19  O   UNL     1      -9.235   7.145  70.413  0.00  0.00    -0.223 OA
ATOM     20  C   UNL     1     -10.805   8.642  69.627  0.00  0.00    +0.055 C 
ENDBRANCH   7  12
BRANCH   1  22
ATOM     21  C   UNL     1     -10.236  18.628  67.925  0.00  0.00    +0.005 C 
ATOM     22  C   UNL     1      -9.240  17.328  67.835  0.00  0.00    +0.022 C 
BRANCH  22  23
ATOM     23  C   UNL     1      -8.599  17.815  66.436  0.00  0.00    -0.031 C 
ATOM     24  C   UNL     1      -7.444  18.472  66.525  0.00  0.00    -0.029 C 
BRANCH  24  25
ATOM     25  C   UNL     1      -7.523  20.080  66.270  0.00  0.00    +0.050 C 
ATOM     26  C   UNL     1      -6.534  20.003  64.944  0.00  0.00    +0.007 C 
BRANCH  25  27
ATOM     27  C   UNL     1      -6.262  20.363  67.303  0.00  0.00    +0.130 C 
ATOM     28  O   UNL     1      -6.078  21.708  67.088  0.00  0.00    -0.225 OA
ATOM     29  C   UNL     1      -5.204  19.476  66.740  0.00  0.00    +0.033 C 
ATOM     30  C   UNL     1      -6.734  19.987  68.658  0.00  0.00    +0.033 C 
ENDBRANCH  25  27
ENDBRANCH  24  25
ENDBRANCH  22  23
ENDBRANCH   1  22
TORSDOF 5
ENDMDL
MODEL 6
REMARK VINA RESULT:      -7.0      1.692     10.195
REMARK  Name = 
REMARK  5 active torsions:
REMARK  status: ('A' for Active; 'I' for Inactive)
REMARK    1  A    between atoms: C_2  and  C_3
REMARK    2  A    between atoms: C_2  and  C_11
REMARK    3  A    between atoms: C_4  and  C_5
REMARK    4  A    between atoms: C_5  and  C_7
REMARK    5  A    between atoms: C_16  and  C_17
REMARK                            x       y       z     vdW  Elec       q    Type
REMARK                         _______ _______ _______ _____ _____    ______ ____
ROOT
ATOM      1  C   UNL     1     -11.983  11.377  68.606  0.00  0.00    +0.004 C 
ATOM      2  C   UNL     1     -10.533  10.675  68.414  0.00  0.00    +0.004 C 
ATOM      3  C   UNL     1     -10.815  10.673  66.787  0.00  0.00    +0.018 C 
ATOM      4  C   UNL     1      -9.243  10.408  66.451  0.00  0.00    -0.045 C 
ATOM      5  C   UNL     1      -8.881   9.035  66.931  0.00  0.00    +0.022 C 
ATOM      6  C   UNL     1      -9.141   8.808  68.383  0.00  0.00    +0.004 C 
ATOM      7  C   UNL     1      -9.014  10.538  65.133  0.00  0.00    -0.009 C 
ATOM      8  C   UNL     1     -10.632  12.313  66.766  0.00  0.00    +0.004 C 
ATOM      9  C   UNL     1      -9.468  11.619  68.694  0.00  0.00    +0.000 C 
ATOM     10  C   UNL     1     -10.511   9.303  68.835  0.00  0.00    +0.001 C 
ATOM     11  C   UNL     1     -11.420  12.755  67.946  0.00  0.00    +0.001 C 
ENDROOT
BRANCH   7  12
ATOM     12  C   UNL     1      -7.691  10.144  64.638  0.00  0.00    -0.009 C 
ATOM     13  C   UNL     1      -7.595   9.605  63.431  0.00  0.00    -0.039 C 
ATOM     14  C   UNL     1      -8.807   9.193  62.741  0.00  0.00    +0.055 C 
ATOM     15  C   UNL     1      -8.913  10.156  61.368  0.00  0.00    +0.159 C 
ATOM     16  O   UNL     1      -8.134  11.357  61.959  0.00  0.00    -0.223 OA
ATOM     17  C   UNL     1      -7.593   9.392  60.682  0.00  0.00    +0.066 C 
ATOM     18  C   UNL     1      -6.320  10.208  61.386  0.00  0.00    +0.159 C 
ATOM     19  O   UNL     1      -5.317   9.268  60.691  0.00  0.00    -0.223 OA
ATOM     20  C   UNL     1      -6.332   9.245  62.762  0.00  0.00    +0.055 C 
ENDBRANCH   7  12
BRANCH   1  22
ATOM     21  C   UNL     1     -12.690  10.797  70.797  0.00  0.00    +0.005 C 
ATOM     22  C   UNL     1     -11.584  11.858  70.211  0.00  0.00    +0.022 C 
BRANCH  22  23
ATOM     23  C   UNL     1     -12.623  13.093  70.262  0.00  0.00    -0.031 C 
ATOM     24  C   UNL     1     -12.387  14.010  71.197  0.00  0.00    -0.029 C 
BRANCH  24  25
ATOM     25  C   UNL     1     -13.396  13.992  72.477  0.00  0.00    +0.050 C 
ATOM     26  C   UNL     1     -14.686  14.504  71.574  0.00  0.00    +0.007 C 
BRANCH  25  27
ATOM     27  C   UNL     1     -12.972  15.533  72.904  0.00  0.00    +0.130 C 
ATOM     28  O   UNL     1     -14.189  16.158  72.773  0.00  0.00    -0.225 OA
ATOM     29  C   UNL     1     -11.965  15.872  71.858  0.00  0.00    +0.033 C 
ATOM     30  C   UNL     1     -12.433  15.456  74.284  0.00  0.00    +0.033 C 
ENDBRANCH  25  27
ENDBRANCH  24  25
ENDBRANCH  22  23
ENDBRANCH   1  22
TORSDOF 5
ENDMDL
MODEL 7
REMARK VINA RESULT:      -6.9      4.533      8.608
REMARK  Name = 
REMARK  5 active torsions:
REMARK  status: ('A' for Active; 'I' for Inactive)
REMARK    1  A    between atoms: C_2  and  C_3
REMARK    2  A    between atoms: C_2  and  C_11
REMARK    3  A    between atoms: C_4  and  C_5
REMARK    4  A    between atoms: C_5  and  C_7
REMARK    5  A    between atoms: C_16  and  C_17
REMARK                            x       y       z     vdW  Elec       q    Type
REMARK                         _______ _______ _______ _____ _____    ______ ____
ROOT
ATOM      1  C   UNL     1      -9.919  17.371  67.188  0.00  0.00    +0.004 C 
ATOM      2  C   UNL     1     -10.257  16.078  68.108  0.00  0.00    +0.004 C 
ATOM      3  C   UNL     1     -10.926  15.375  66.771  0.00  0.00    +0.018 C 
ATOM      4  C   UNL     1     -10.895  13.897  67.456  0.00  0.00    -0.045 C 
ATOM      5  C   UNL     1     -11.859  13.886  68.603  0.00  0.00    +0.022 C 
ATOM      6  C   UNL     1     -11.596  14.935  69.632  0.00  0.00    +0.004 C 
ATOM      7  C   UNL     1     -11.203  12.952  66.552  0.00  0.00    -0.009 C 
ATOM      8  C   UNL     1      -9.417  15.201  66.125  0.00  0.00    +0.004 C 
ATOM      9  C   UNL     1      -9.043  15.361  68.446  0.00  0.00    +0.000 C 
ATOM     10  C   UNL     1     -11.329  16.312  69.035  0.00  0.00    +0.001 C 
ATOM     11  C   UNL     1      -8.784  16.520  66.385  0.00  0.00    +0.001 C 
ENDROOT
BRANCH   7  12
ATOM     12  C   UNL     1     -11.408  11.587  67.049  0.00  0.00    -0.009 C 
ATOM     13  C   UNL     1     -10.543  10.645  66.703  0.00  0.00    -0.039 C 
ATOM     14  C   UNL     1      -9.571  10.924  65.657  0.00  0.00    +0.055 C 
ATOM     15  C   UNL     1      -8.061  10.847  66.388  0.00  0.00    +0.159 C 
ATOM     16  O   UNL     1      -8.553  11.241  67.803  0.00  0.00    -0.223 OA
ATOM     17  C   UNL     1      -8.200   9.193  66.592  0.00  0.00    +0.066 C 
ATOM     18  C   UNL     1      -9.095   9.096  67.997  0.00  0.00    +0.159 C 
ATOM     19  O   UNL     1      -9.149   7.561  67.871  0.00  0.00    -0.223 OA
ATOM     20  C   UNL     1     -10.561   9.256  67.195  0.00  0.00    +0.055 C 
ENDBRANCH   7  12
BRANCH   1  22
ATOM     21  C   UNL     1      -9.812  19.212  68.682  0.00  0.00    +0.005 C 
ATOM     22  C   UNL     1      -8.801  17.962  68.357  0.00  0.00    +0.022 C 
BRANCH  22  23
ATOM     23  C   UNL     1      -7.933  18.833  67.309  0.00  0.00    -0.031 C 
ATOM     24  C   UNL     1      -6.708  19.168  67.709  0.00  0.00    -0.029 C 
BRANCH  24  25
ATOM     25  C   UNL     1      -6.504  20.728  68.133  0.00  0.00    +0.050 C 
ATOM     26  C   UNL     1      -5.664  21.082  66.752  0.00  0.00    +0.007 C 
BRANCH  25  27
ATOM     27  C   UNL     1      -5.129  20.375  68.983  0.00  0.00    +0.130 C 
ATOM     28  O   UNL     1      -5.312  21.188  70.077  0.00  0.00    -0.225 OA
ATOM     29  C   UNL     1      -4.066  20.813  68.034  0.00  0.00    +0.033 C 
ATOM     30  C   UNL     1      -5.161  18.917  69.253  0.00  0.00    +0.033 C 
ENDBRANCH  25  27
ENDBRANCH  24  25
ENDBRANCH  22  23
ENDBRANCH   1  22
TORSDOF 5
ENDMDL
MODEL 8
REMARK VINA RESULT:      -6.8      5.135      7.068
REMARK  Name = 
REMARK  5 active torsions:
REMARK  status: ('A' for Active; 'I' for Inactive)
REMARK    1  A    between atoms: C_2  and  C_3
REMARK    2  A    between atoms: C_2  and  C_11
REMARK    3  A    between atoms: C_4  and  C_5
REMARK    4  A    between atoms: C_5  and  C_7
REMARK    5  A    between atoms: C_16  and  C_17
REMARK                            x       y       z     vdW  Elec       q    Type
REMARK                         _______ _______ _______ _____ _____    ______ ____
ROOT
ATOM      1  C   UNL     1      -7.424  18.798  67.265  0.00  0.00    +0.004 C 
ATOM      2  C   UNL     1      -7.689  17.233  67.604  0.00  0.00    +0.004 C 
ATOM      3  C   UNL     1      -8.990  17.710  68.502  0.00  0.00    +0.018 C 
ATOM      4  C   UNL     1      -9.606  16.201  68.524  0.00  0.00    -0.045 C 
ATOM      5  C   UNL     1      -8.692  15.329  69.331  0.00  0.00    +0.022 C 
ATOM      6  C   UNL     1      -7.283  15.301  68.839  0.00  0.00    +0.004 C 
ATOM      7  C   UNL     1     -10.849  16.207  69.035  0.00  0.00    -0.009 C 
ATOM      8  C   UNL     1      -9.787  18.105  67.112  0.00  0.00    +0.004 C 
ATOM      9  C   UNL     1      -8.172  16.532  66.430  0.00  0.00    +0.000 C 
ATOM     10  C   UNL     1      -6.728  16.686  68.520  0.00  0.00    +0.001 C 
ATOM     11  C   UNL     1      -8.756  18.835  66.328  0.00  0.00    +0.001 C 
ENDROOT
BRANCH   7  12
ATOM     12  C   UNL     1     -11.472  14.906  69.303  0.00  0.00    -0.009 C 
ATOM     13  C   UNL     1     -11.762  14.583  70.555  0.00  0.00    -0.039 C 
ATOM     14  C   UNL     1     -11.241  15.403  71.637  0.00  0.00    +0.055 C 
ATOM     15  C   UNL     1     -12.576  16.078  72.401  0.00  0.00    +0.159 C 
ATOM     16  O   UNL     1     -13.495  16.055  71.154  0.00  0.00    -0.223 OA
ATOM     17  C   UNL     1     -13.035  14.586  73.002  0.00  0.00    +0.066 C 
ATOM     18  C   UNL     1     -13.865  13.936  71.708  0.00  0.00    +0.159 C 
ATOM     19  O   UNL     1     -14.051  12.614  72.477  0.00  0.00    -0.223 OA
ATOM     20  C   UNL     1     -12.470  13.360  70.972  0.00  0.00    +0.055 C 
ENDBRANCH   7  12
BRANCH   1  22
ATOM     21  C   UNL     1      -5.093  18.902  66.821  0.00  0.00    +0.005 C 
ATOM     22  C   UNL     1      -6.386  18.381  65.955  0.00  0.00    +0.022 C 
BRANCH  22  23
ATOM     23  C   UNL     1      -6.540  19.792  65.185  0.00  0.00    -0.031 C 
ATOM     24  C   UNL     1      -6.049  19.833  63.947  0.00  0.00    -0.029 C 
BRANCH  24  25
ATOM     25  C   UNL     1      -4.656  20.659  63.766  0.00  0.00    +0.050 C 
ATOM     26  C   UNL     1      -5.294  21.643  62.597  0.00  0.00    +0.007 C 
BRANCH  25  27
ATOM     27  C   UNL     1      -4.088  19.567  62.660  0.00  0.00    +0.130 C 
ATOM     28  O   UNL     1      -3.061  20.300  62.111  0.00  0.00    -0.225 OA
ATOM     29  C   UNL     1      -5.277  19.379  61.781  0.00  0.00    +0.033 C 
ATOM     30  C   UNL     1      -3.682  18.363  63.425  0.00  0.00    +0.033 C 
ENDBRANCH  25  27
ENDBRANCH  24  25
ENDBRANCH  22  23
ENDBRANCH   1  22
TORSDOF 5
ENDMDL
MODEL 9
REMARK VINA RESULT:      -6.8      4.213      7.145
REMARK  Name = 
REMARK  5 active torsions:
REMARK  status: ('A' for Active; 'I' for Inactive)
REMARK    1  A    between atoms: C_2  and  C_3
REMARK    2  A    between atoms: C_2  and  C_11
REMARK    3  A    between atoms: C_4  and  C_5
REMARK    4  A    between atoms: C_5  and  C_7
REMARK    5  A    between atoms: C_16  and  C_17
REMARK                            x       y       z     vdW  Elec       q    Type
REMARK                         _______ _______ _______ _____ _____    ______ ____
ROOT
ATOM      1  C   UNL     1     -11.505  10.365  68.371  0.00  0.00    +0.004 C 
ATOM      2  C   UNL     1     -10.507  11.258  67.455  0.00  0.00    +0.004 C 
ATOM      3  C   UNL     1     -11.766  12.296  67.199  0.00  0.00    +0.018 C 
ATOM      4  C   UNL     1     -10.770  13.471  66.666  0.00  0.00    -0.045 C 
ATOM      5  C   UNL     1     -10.171  13.030  65.366  0.00  0.00    +0.022 C 
ATOM      6  C   UNL     1      -9.439  11.730  65.440  0.00  0.00    +0.004 C 
ATOM      7  C   UNL     1     -11.439  14.628  66.526  0.00  0.00    -0.009 C 
ATOM      8  C   UNL     1     -11.654  12.796  68.768  0.00  0.00    +0.004 C 
ATOM      9  C   UNL     1      -9.519  11.927  68.279  0.00  0.00    +0.000 C 
ATOM     10  C   UNL     1     -10.207  10.647  66.190  0.00  0.00    +0.001 C 
ATOM     11  C   UNL     1     -11.509  11.521  69.519  0.00  0.00    +0.001 C 
ENDROOT
BRANCH   7  12
ATOM     12  C   UNL     1     -10.735  15.737  65.873  0.00  0.00    -0.009 C 
ATOM     13  C   UNL     1     -10.263  16.723  66.621  0.00  0.00    -0.039 C 
ATOM     14  C   UNL     1     -10.664  16.808  68.017  0.00  0.00    +0.055 C 
ATOM     15  C   UNL     1      -9.264  16.595  68.921  0.00  0.00    +0.159 C 
ATOM     16  O   UNL     1      -8.524  15.740  67.861  0.00  0.00    -0.223 OA
ATOM     17  C   UNL     1      -8.669  18.075  68.420  0.00  0.00    +0.066 C 
ATOM     18  C   UNL     1      -7.998  17.693  66.941  0.00  0.00    +0.159 C 
ATOM     19  O   UNL     1      -7.657  19.176  66.699  0.00  0.00    -0.223 OA
ATOM     20  C   UNL     1      -9.458  17.853  66.125  0.00  0.00    +0.055 C 
ENDBRANCH   7  12
BRANCH   1  22
ATOM     21  C   UNL     1     -10.554   8.198  68.183  0.00  0.00    +0.005 C 
ATOM     22  C   UNL     1     -10.176   9.524  69.073  0.00  0.00    +0.022 C 
BRANCH  22  23
ATOM     23  C   UNL     1     -10.996   8.992  70.359  0.00  0.00    -0.031 C 
ATOM     24  C   UNL     1     -10.257   8.528  71.364  0.00  0.00    -0.029 C 
BRANCH  24  25
ATOM     25  C   UNL     1     -10.251   6.908  71.547  0.00  0.00    +0.050 C 
ATOM     26  C   UNL     1     -11.895   6.800  71.395  0.00  0.00    +0.007 C 
BRANCH  25  27
ATOM     27  C   UNL     1     -10.324   7.038  73.195  0.00  0.00    +0.130 C 
ATOM     28  O   UNL     1     -11.518   7.708  73.327  0.00  0.00    -0.225 OA
ATOM     29  C   UNL     1      -9.105   7.844  73.491  0.00  0.00    +0.033 C 
ATOM     30  C   UNL     1     -10.301   5.655  73.730  0.00  0.00    +0.033 C 
ENDBRANCH  25  27
ENDBRANCH  24  25
ENDBRANCH  22  23
ENDBRANCH   1  22
TORSDOF 5
ENDMDL
