MODEL 1
REMARK VINA RESULT:      -6.7      0.000      0.000
REMARK  Name = 
REMARK  5 active torsions:
REMARK  status: ('A' for Active; 'I' for Inactive)
REMARK    1  A    between atoms: C_2  and  C_3
REMARK    2  A    between atoms: C_5  and  N_6
REMARK    3  A    between atoms: C_7  and  C_9
REMARK    4  A    between atoms: C_14  and  N_15
REMARK    5  A    between atoms: C_16  and  C_18
REMARK                            x       y       z     vdW  Elec       q    Type
REMARK                         _______ _______ _______ _____ _____    ______ ____
ROOT
ATOM      1  C   UNL     1     -11.699  15.159  69.614  0.00  0.00    +0.071 A 
ATOM      2  C   UNL     1     -12.173  14.388  68.571  0.00  0.00    +0.028 A 
ATOM      3  C   UNL     1     -11.418  14.250  67.428  0.00  0.00    +0.086 A 
ATOM      4  C   UNL     1     -10.293  15.049  67.248  0.00  0.00    +0.088 A 
ATOM      5 CL   UNL     1      -9.532  15.082  65.666  0.00  0.00    -0.080 Cl
ATOM      6  C   UNL     1      -9.840  15.897  68.252  0.00  0.00    +0.086 A 
ATOM      7  C   UNL     1     -10.477  15.766  69.480  0.00  0.00    +0.028 A 
ENDROOT
BRANCH   3   8
ATOM      8  N   UNL     1     -11.639  13.122  66.572  0.00  0.00    -0.169 NA
ATOM      9  C   UNL     1     -12.396  13.258  65.376  0.00  0.00    +0.349 C 
ATOM     10  O   UNL     1     -13.323  14.123  65.347  0.00  0.00    -0.261 OA
BRANCH   9  11
ATOM     11  C   UNL     1     -12.035  12.583  64.126  0.00  0.00    +0.442 C 
ATOM     12  O   UNL     1     -10.732  12.362  63.733  0.00  0.00    -0.235 OA
ATOM     13  O   UNL     1     -12.975  12.076  63.455  0.00  0.00    -0.235 OA
ENDBRANCH   9  11
ENDBRANCH   3   8
BRANCH   6  14
ATOM     14  N   UNL     1      -9.159  17.096  67.869  0.00  0.00    -0.169 NA
ATOM     15  C   UNL     1      -9.865  18.234  67.366  0.00  0.00    +0.349 C 
ATOM     16  O   UNL     1     -11.027  18.419  67.802  0.00  0.00    -0.261 OA
BRANCH  15  17
ATOM     17  C   UNL     1      -9.229  19.226  66.492  0.00  0.00    +0.442 C 
ATOM     18  O   UNL     1      -8.076  18.928  65.763  0.00  0.00    -0.235 OA
ATOM     19  O   UNL     1     -10.016  20.053  65.945  0.00  0.00    -0.235 OA
ENDBRANCH  15  17
ENDBRANCH   6  14
BRANCH   1  21
ATOM     20  N   UNL     1     -13.577  15.597  71.332  0.00  0.00    -0.191 NA
ATOM     21  C   UNL     1     -12.633  15.456  70.667  0.00  0.00    +0.100 C 
ENDBRANCH   1  21
TORSDOF 5
ENDMDL
MODEL 2
REMARK VINA RESULT:      -6.7      2.929      4.731
REMARK  Name = 
REMARK  5 active torsions:
REMARK  status: ('A' for Active; 'I' for Inactive)
REMARK    1  A    between atoms: C_2  and  C_3
REMARK    2  A    between atoms: C_5  and  N_6
REMARK    3  A    between atoms: C_7  and  C_9
REMARK    4  A    between atoms: C_14  and  N_15
REMARK    5  A    between atoms: C_16  and  C_18
REMARK                            x       y       z     vdW  Elec       q    Type
REMARK                         _______ _______ _______ _____ _____    ______ ____
ROOT
ATOM      1  C   UNL     1     -10.924  16.250  67.904  0.00  0.00    +0.071 A 
ATOM      2  C   UNL     1     -10.710  15.131  67.124  0.00  0.00    +0.028 A 
ATOM      3  C   UNL     1     -11.218  13.914  67.523  0.00  0.00    +0.086 A 
ATOM      4  C   UNL     1     -11.754  13.781  68.800  0.00  0.00    +0.088 A 
ATOM      5 CL   UNL     1     -12.106  12.168  69.399  0.00  0.00    -0.080 Cl
ATOM      6  C   UNL     1     -11.906  14.879  69.640  0.00  0.00    +0.086 A 
ATOM      7  C   UNL     1     -11.645  16.115  69.062  0.00  0.00    +0.028 A 
ENDROOT
BRANCH   3   8
ATOM      8  N   UNL     1     -11.428  12.886  66.548  0.00  0.00    -0.169 NA
ATOM      9  C   UNL     1     -12.254  13.122  65.415  0.00  0.00    +0.349 C 
ATOM     10  O   UNL     1     -13.223  13.931  65.535  0.00  0.00    -0.261 OA
BRANCH   9  11
ATOM     11  C   UNL     1     -11.928  12.621  64.076  0.00  0.00    +0.442 C 
ATOM     12  O   UNL     1     -10.637  12.473  63.616  0.00  0.00    -0.235 OA
ATOM     13  O   UNL     1     -12.885  12.194  63.374  0.00  0.00    -0.235 OA
ENDBRANCH   9  11
ENDBRANCH   3   8
BRANCH   6  14
ATOM     14  N   UNL     1     -11.831  14.665  71.053  0.00  0.00    -0.169 NA
ATOM     15  C   UNL     1     -12.699  15.346  71.963  0.00  0.00    +0.349 C 
ATOM     16  O   UNL     1     -13.847  15.634  71.546  0.00  0.00    -0.261 OA
BRANCH  15  17
ATOM     17  C   UNL     1     -12.333  15.581  73.365  0.00  0.00    +0.442 C 
ATOM     18  O   UNL     1     -12.811  16.687  74.071  0.00  0.00    -0.235 OA
ATOM     19  O   UNL     1     -12.139  14.539  74.059  0.00  0.00    -0.235 OA
ENDBRANCH  15  17
ENDBRANCH   6  14
BRANCH   1  21
ATOM     20  N   UNL     1      -9.791  18.508  67.369  0.00  0.00    -0.191 NA
ATOM     21  C   UNL     1     -10.169  17.425  67.559  0.00  0.00    +0.100 C 
ENDBRANCH   1  21
TORSDOF 5
ENDMDL
MODEL 3
REMARK VINA RESULT:      -6.5      2.975      6.023
REMARK  Name = 
REMARK  5 active torsions:
REMARK  status: ('A' for Active; 'I' for Inactive)
REMARK    1  A    between atoms: C_2  and  C_3
REMARK    2  A    between atoms: C_5  and  N_6
REMARK    3  A    between atoms: C_7  and  C_9
REMARK    4  A    between atoms: C_14  and  N_15
REMARK    5  A    between atoms: C_16  and  C_18
REMARK                            x       y       z     vdW  Elec       q    Type
REMARK                         _______ _______ _______ _____ _____    ______ ____
ROOT
ATOM      1  C   UNL     1     -11.730  14.337  66.603  0.00  0.00    +0.071 A 
ATOM      2  C   UNL     1     -10.886  15.293  66.073  0.00  0.00    +0.028 A 
ATOM      3  C   UNL     1     -10.312  16.231  66.902  0.00  0.00    +0.086 A 
ATOM      4  C   UNL     1     -10.746  16.340  68.219  0.00  0.00    +0.088 A 
ATOM      5 CL   UNL     1     -10.233  17.731  69.160  0.00  0.00    -0.080 Cl
ATOM      6  C   UNL     1     -11.659  15.440  68.757  0.00  0.00    +0.086 A 
ATOM      7  C   UNL     1     -11.970  14.350  67.953  0.00  0.00    +0.028 A 
ENDROOT
BRANCH   3   8
ATOM      8  N   UNL     1      -9.110  16.894  66.487  0.00  0.00    -0.169 NA
ATOM      9  C   UNL     1      -9.120  18.280  66.176  0.00  0.00    +0.349 C 
ATOM     10  O   UNL     1     -10.182  18.782  65.698  0.00  0.00    -0.261 OA
BRANCH   9  11
ATOM     11  C   UNL     1      -8.031  19.187  66.553  0.00  0.00    +0.442 C 
ATOM     12  O   UNL     1      -7.665  19.429  67.860  0.00  0.00    -0.235 OA
ATOM     13  O   UNL     1      -7.327  19.659  65.619  0.00  0.00    -0.235 OA
ENDBRANCH   9  11
ENDBRANCH   3   8
BRANCH   6  14
ATOM     14  N   UNL     1     -12.535  15.901  69.791  0.00  0.00    -0.169 NA
ATOM     15  C   UNL     1     -12.407  15.449  71.142  0.00  0.00    +0.349 C 
ATOM     16  O   UNL     1     -11.252  15.160  71.537  0.00  0.00    -0.261 OA
BRANCH  15  17
ATOM     17  C   UNL     1     -13.537  15.450  72.077  0.00  0.00    +0.442 C 
ATOM     18  O   UNL     1     -13.425  15.988  73.361  0.00  0.00    -0.235 OA
ATOM     19  O   UNL     1     -14.683  15.551  71.547  0.00  0.00    -0.235 OA
ENDBRANCH  15  17
ENDBRANCH   6  14
BRANCH   1  21
ATOM     20  N   UNL     1     -12.893  12.714  64.966  0.00  0.00    -0.191 NA
ATOM     21  C   UNL     1     -12.478  13.550  65.661  0.00  0.00    +0.100 C 
ENDBRANCH   1  21
TORSDOF 5
ENDMDL
MODEL 4
REMARK VINA RESULT:      -6.3      1.542      5.785
REMARK  Name = 
REMARK  5 active torsions:
REMARK  status: ('A' for Active; 'I' for Inactive)
REMARK    1  A    between atoms: C_2  and  C_3
REMARK    2  A    between atoms: C_5  and  N_6
REMARK    3  A    between atoms: C_7  and  C_9
REMARK    4  A    between atoms: C_14  and  N_15
REMARK    5  A    between atoms: C_16  and  C_18
REMARK                            x       y       z     vdW  Elec       q    Type
REMARK                         _______ _______ _______ _____ _____    ______ ____
ROOT
ATOM      1  C   UNL     1     -11.921  14.407  69.054  0.00  0.00    +0.071 A 
ATOM      2  C   UNL     1     -11.216  15.568  69.303  0.00  0.00    +0.028 A 
ATOM      3  C   UNL     1     -10.804  16.355  68.251  0.00  0.00    +0.086 A 
ATOM      4  C   UNL     1     -10.914  15.874  66.950  0.00  0.00    +0.088 A 
ATOM      5 CL   UNL     1     -10.105  16.748  65.660  0.00  0.00    -0.080 Cl
ATOM      6  C   UNL     1     -11.546  14.666  66.676  0.00  0.00    +0.086 A 
ATOM      7  C   UNL     1     -12.194  14.072  67.752  0.00  0.00    +0.028 A 
ENDROOT
BRANCH   3   8
ATOM      8  N   UNL     1     -10.518  17.741  68.479  0.00  0.00    -0.169 NA
ATOM      9  C   UNL     1      -9.182  18.223  68.423  0.00  0.00    +0.349 C 
ATOM     10  O   UNL     1      -8.245  17.438  68.757  0.00  0.00    -0.261 OA
BRANCH   9  11
ATOM     11  C   UNL     1      -8.828  19.514  67.824  0.00  0.00    +0.442 C 
ATOM     12  O   UNL     1      -9.741  20.333  67.194  0.00  0.00    -0.235 OA
ATOM     13  O   UNL     1      -7.653  19.932  68.014  0.00  0.00    -0.235 OA
ENDBRANCH   9  11
ENDBRANCH   3   8
BRANCH   6  14
ATOM     14  N   UNL     1     -11.109  13.915  65.539  0.00  0.00    -0.169 NA
ATOM     15  C   UNL     1     -11.916  13.790  64.365  0.00  0.00    +0.349 C 
ATOM     16  O   UNL     1     -12.667  14.756  64.086  0.00  0.00    -0.261 OA
BRANCH  15  17
ATOM     17  C   UNL     1     -11.784  12.656  63.442  0.00  0.00    +0.442 C 
ATOM     18  O   UNL     1     -10.586  11.949  63.318  0.00  0.00    -0.235 OA
ATOM     19  O   UNL     1     -12.836  11.975  63.263  0.00  0.00    -0.235 OA
ENDBRANCH  15  17
ENDBRANCH   6  14
BRANCH   1  21
ATOM     20  N   UNL     1     -12.510  12.923  71.083  0.00  0.00    -0.191 NA
ATOM     21  C   UNL     1     -12.106  13.518  70.169  0.00  0.00    +0.100 C 
ENDBRANCH   1  21
TORSDOF 5
ENDMDL
MODEL 5
REMARK VINA RESULT:      -6.2      3.060      6.271
REMARK  Name = 
REMARK  5 active torsions:
REMARK  status: ('A' for Active; 'I' for Inactive)
REMARK    1  A    between atoms: C_2  and  C_3
REMARK    2  A    between atoms: C_5  and  N_6
REMARK    3  A    between atoms: C_7  and  C_9
REMARK    4  A    between atoms: C_14  and  N_15
REMARK    5  A    between atoms: C_16  and  C_18
REMARK                            x       y       z     vdW  Elec       q    Type
REMARK                         _______ _______ _______ _____ _____    ______ ____
ROOT
ATOM      1  C   UNL     1     -10.562  16.659  67.779  0.00  0.00    +0.071 A 
ATOM      2  C   UNL     1     -11.017  16.618  69.082  0.00  0.00    +0.028 A 
ATOM      3  C   UNL     1     -11.335  15.408  69.656  0.00  0.00    +0.086 A 
ATOM      4  C   UNL     1     -11.397  14.268  68.861  0.00  0.00    +0.088 A 
ATOM      5 CL   UNL     1     -12.102  12.809  69.540  0.00  0.00    -0.080 Cl
ATOM      6  C   UNL     1     -11.024  14.297  67.522  0.00  0.00    +0.086 A 
ATOM      7  C   UNL     1     -10.436  15.480  67.091  0.00  0.00    +0.028 A 
ENDROOT
BRANCH   3   8
ATOM      8  N   UNL     1     -11.338  15.286  71.084  0.00  0.00    -0.169 NA
ATOM      9  C   UNL     1     -12.559  15.324  71.811  0.00  0.00    +0.349 C 
ATOM     10  O   UNL     1     -13.514  16.017  71.347  0.00  0.00    -0.261 OA
BRANCH   9  11
ATOM     11  C   UNL     1     -12.824  14.458  72.964  0.00  0.00    +0.442 C 
ATOM     12  O   UNL     1     -12.332  14.706  74.228  0.00  0.00    -0.235 OA
ATOM     13  O   UNL     1     -13.646  13.516  72.797  0.00  0.00    -0.235 OA
ENDBRANCH   9  11
ENDBRANCH   3   8
BRANCH   6  14
ATOM     14  N   UNL     1     -11.664  13.388  66.621  0.00  0.00    -0.169 NA
ATOM     15  C   UNL     1     -10.931  12.690  65.610  0.00  0.00    +0.349 C 
ATOM     16  O   UNL     1      -9.738  12.401  65.871  0.00  0.00    -0.261 OA
BRANCH  15  17
ATOM     17  C   UNL     1     -11.565  12.203  64.380  0.00  0.00    +0.442 C 
ATOM     18  O   UNL     1     -12.926  12.394  64.132  0.00  0.00    -0.235 OA
ATOM     19  O   UNL     1     -10.824  12.194  63.353  0.00  0.00    -0.235 OA
ENDBRANCH  15  17
ENDBRANCH   6  14
BRANCH   1  21
ATOM     20  N   UNL     1     -10.241  18.878  66.498  0.00  0.00    -0.191 NA
ATOM     21  C   UNL     1     -10.482  17.959  67.169  0.00  0.00    +0.100 C 
ENDBRANCH   1  21
TORSDOF 5
ENDMDL
MODEL 6
REMARK VINA RESULT:      -6.2      3.955      7.139
REMARK  Name = 
REMARK  5 active torsions:
REMARK  status: ('A' for Active; 'I' for Inactive)
REMARK    1  A    between atoms: C_2  and  C_3
REMARK    2  A    between atoms: C_5  and  N_6
REMARK    3  A    between atoms: C_7  and  C_9
REMARK    4  A    between atoms: C_14  and  N_15
REMARK    5  A    between atoms: C_16  and  C_18
REMARK                            x       y       z     vdW  Elec       q    Type
REMARK                         _______ _______ _______ _____ _____    ______ ____
ROOT
ATOM      1  C   UNL     1     -11.843  13.259  67.122  0.00  0.00    +0.071 A 
ATOM      2  C   UNL     1     -11.995  14.599  67.416  0.00  0.00    +0.028 A 
ATOM      3  C   UNL     1     -11.846  15.034  68.714  0.00  0.00    +0.086 A 
ATOM      4  C   UNL     1     -11.753  14.103  69.743  0.00  0.00    +0.088 A 
ATOM      5 CL   UNL     1     -11.878  14.668  71.401  0.00  0.00    -0.080 Cl
ATOM      6  C   UNL     1     -11.681  12.739  69.481  0.00  0.00    +0.086 A 
ATOM      7  C   UNL     1     -11.541  12.393  68.143  0.00  0.00    +0.028 A 
ENDROOT
BRANCH   3   8
ATOM      8  N   UNL     1     -11.525  16.409  68.962  0.00  0.00    -0.169 NA
ATOM      9  C   UNL     1     -10.221  16.907  68.695  0.00  0.00    +0.349 C 
ATOM     10  O   UNL     1      -9.238  16.115  68.813  0.00  0.00    -0.261 OA
BRANCH   9  11
ATOM     11  C   UNL     1      -9.980  18.231  68.112  0.00  0.00    +0.442 C 
ATOM     12  O   UNL     1      -8.723  18.777  67.965  0.00  0.00    -0.235 OA
ATOM     13  O   UNL     1     -10.974  18.828  67.614  0.00  0.00    -0.235 OA
ENDBRANCH   9  11
ENDBRANCH   3   8
BRANCH   6  14
ATOM     14  N   UNL     1     -12.217  11.834  70.452  0.00  0.00    -0.169 NA
ATOM     15  C   UNL     1     -11.763  10.482  70.550  0.00  0.00    +0.349 C 
ATOM     16  O   UNL     1     -10.565  10.261  70.247  0.00  0.00    -0.261 OA
BRANCH  15  17
ATOM     17  C   UNL     1     -12.599   9.414  71.110  0.00  0.00    +0.442 C 
ATOM     18  O   UNL     1     -12.150   8.094  71.183  0.00  0.00    -0.235 OA
ATOM     19  O   UNL     1     -13.388   9.770  72.036  0.00  0.00    -0.235 OA
ENDBRANCH  15  17
ENDBRANCH   6  14
BRANCH   1  21
ATOM     20  N   UNL     1     -12.834  12.551  64.845  0.00  0.00    -0.191 NA
ATOM     21  C   UNL     1     -12.248  12.841  65.807  0.00  0.00    +0.100 C 
ENDBRANCH   1  21
TORSDOF 5
ENDMDL
MODEL 7
REMARK VINA RESULT:      -6.1      4.457      5.743
REMARK  Name = 
REMARK  5 active torsions:
REMARK  status: ('A' for Active; 'I' for Inactive)
REMARK    1  A    between atoms: C_2  and  C_3
REMARK    2  A    between atoms: C_5  and  N_6
REMARK    3  A    between atoms: C_7  and  C_9
REMARK    4  A    between atoms: C_14  and  N_15
REMARK    5  A    between atoms: C_16  and  C_18
REMARK                            x       y       z     vdW  Elec       q    Type
REMARK                         _______ _______ _______ _____ _____    ______ ____
ROOT
ATOM      1  C   UNL     1     -12.236  13.603  70.018  0.00  0.00    +0.071 A 
ATOM      2  C   UNL     1     -12.175  12.372  70.638  0.00  0.00    +0.028 A 
ATOM      3  C   UNL     1     -11.723  11.276  69.938  0.00  0.00    +0.086 A 
ATOM      4  C   UNL     1     -11.532  11.372  68.563  0.00  0.00    +0.088 A 
ATOM      5 CL   UNL     1     -11.261   9.898  67.648  0.00  0.00    -0.080 Cl
ATOM      6  C   UNL     1     -11.667  12.585  67.897  0.00  0.00    +0.086 A 
ATOM      7  C   UNL     1     -11.836  13.699  68.710  0.00  0.00    +0.028 A 
ENDROOT
BRANCH   3   8
ATOM      8  N   UNL     1     -11.208  10.147  70.654  0.00  0.00    -0.169 NA
ATOM      9  C   UNL     1     -12.063   9.073  71.024  0.00  0.00    +0.349 C 
ATOM     10  O   UNL     1     -13.281   9.330  71.265  0.00  0.00    -0.261 OA
BRANCH   9  11
ATOM     11  C   UNL     1     -11.649   7.668  70.958  0.00  0.00    +0.442 C 
ATOM     12  O   UNL     1     -10.522   7.241  70.288  0.00  0.00    -0.235 OA
ATOM     13  O   UNL     1     -12.298   6.844  71.659  0.00  0.00    -0.235 OA
ENDBRANCH   9  11
ENDBRANCH   3   8
BRANCH   6  14
ATOM     14  N   UNL     1     -12.097  12.564  66.532  0.00  0.00    -0.169 NA
ATOM     15  C   UNL     1     -11.642  13.534  65.585  0.00  0.00    +0.349 C 
ATOM     16  O   UNL     1     -10.486  13.993  65.753  0.00  0.00    -0.261 OA
BRANCH  15  17
ATOM     17  C   UNL     1     -12.417  13.883  64.389  0.00  0.00    +0.442 C 
ATOM     18  O   UNL     1     -12.551  15.206  63.964  0.00  0.00    -0.235 OA
ATOM     19  O   UNL     1     -12.414  13.016  63.466  0.00  0.00    -0.235 OA
ENDBRANCH  15  17
ENDBRANCH   6  14
BRANCH   1  21
ATOM     20  N   UNL     1     -13.574  15.566  71.030  0.00  0.00    -0.191 NA
ATOM     21  C   UNL     1     -12.938  14.642  70.722  0.00  0.00    +0.100 C 
ENDBRANCH   1  21
TORSDOF 5
ENDMDL
MODEL 8
REMARK VINA RESULT:      -6.0      4.334      6.210
REMARK  Name = 
REMARK  5 active torsions:
REMARK  status: ('A' for Active; 'I' for Inactive)
REMARK    1  A    between atoms: C_2  and  C_3
REMARK    2  A    between atoms: C_5  and  N_6
REMARK    3  A    between atoms: C_7  and  C_9
REMARK    4  A    between atoms: C_14  and  N_15
REMARK    5  A    between atoms: C_16  and  C_18
REMARK                            x       y       z     vdW  Elec       q    Type
REMARK                         _______ _______ _______ _____ _____    ______ ____
ROOT
ATOM      1  C   UNL     1     -12.143  13.950  70.277  0.00  0.00    +0.071 A 
ATOM      2  C   UNL     1     -12.032  14.336  68.956  0.00  0.00    +0.028 A 
ATOM      3  C   UNL     1     -11.927  13.379  67.972  0.00  0.00    +0.086 A 
ATOM      4  C   UNL     1     -11.724  12.050  68.327  0.00  0.00    +0.088 A 
ATOM      5 CL   UNL     1     -11.284  10.903  67.071  0.00  0.00    -0.080 Cl
ATOM      6  C   UNL     1     -11.749  11.644  69.656  0.00  0.00    +0.086 A 
ATOM      7  C   UNL     1     -12.150  12.610  70.570  0.00  0.00    +0.028 A 
ENDROOT
BRANCH   3   8
ATOM      8  N   UNL     1     -12.288  13.713  66.625  0.00  0.00    -0.169 NA
ATOM      9  C   UNL     1     -11.290  13.860  65.624  0.00  0.00    +0.349 C 
ATOM     10  O   UNL     1     -10.144  14.276  65.973  0.00  0.00    -0.261 OA
BRANCH   9  11
ATOM     11  C   UNL     1     -11.467  13.379  64.250  0.00  0.00    +0.442 C 
ATOM     12  O   UNL     1     -12.497  13.789  63.430  0.00  0.00    -0.235 OA
ATOM     13  O   UNL     1     -10.551  12.654  63.774  0.00  0.00    -0.235 OA
ENDBRANCH   9  11
ENDBRANCH   3   8
BRANCH   6  14
ATOM     14  N   UNL     1     -10.948  10.519  70.035  0.00  0.00    -0.169 NA
ATOM     15  C   UNL     1     -11.419   9.541  70.967  0.00  0.00    +0.349 C 
ATOM     16  O   UNL     1     -12.655   9.323  70.986  0.00  0.00    -0.261 OA
BRANCH  15  17
ATOM     17  C   UNL     1     -10.504   8.722  71.770  0.00  0.00    +0.442 C 
ATOM     18  O   UNL     1      -9.152   9.044  71.897  0.00  0.00    -0.235 OA
ATOM     19  O   UNL     1     -11.022   8.156  72.778  0.00  0.00    -0.235 OA
ENDBRANCH  15  17
ENDBRANCH   6  14
BRANCH   1  21
ATOM     20  N   UNL     1     -11.676  15.666  72.149  0.00  0.00    -0.191 NA
ATOM     21  C   UNL     1     -12.004  14.988  71.263  0.00  0.00    +0.100 C 
ENDBRANCH   1  21
TORSDOF 5
ENDMDL
MODEL 9
REMARK VINA RESULT:      -5.9      4.131      6.215
REMARK  Name = 
REMARK  5 active torsions:
REMARK  status: ('A' for Active; 'I' for Inactive)
REMARK    1  A    between atoms: C_2  and  C_3
REMARK    2  A    between atoms: C_5  and  N_6
REMARK    3  A    between atoms: C_7  and  C_9
REMARK    4  A    between atoms: C_14  and  N_15
REMARK    5  A    between atoms: C_16  and  C_18
REMARK                            x       y       z     vdW  Elec       q    Type
REMARK                         _______ _______ _______ _____ _____    ______ ____
ROOT
ATOM      1  C   UNL     1     -11.674  14.366  69.995  0.00  0.00    +0.071 A 
ATOM      2  C   UNL     1     -10.978  14.724  68.858  0.00  0.00    +0.028 A 
ATOM      3  C   UNL     1     -10.684  13.770  67.909  0.00  0.00    +0.086 A 
ATOM      4  C   UNL     1     -10.903  12.427  68.196  0.00  0.00    +0.088 A 
ATOM      5 CL   UNL     1     -10.238  11.217  67.110  0.00  0.00    -0.080 Cl
ATOM      6  C   UNL     1     -11.529  12.031  69.373  0.00  0.00    +0.086 A 
ATOM      7  C   UNL     1     -12.060  13.058  70.143  0.00  0.00    +0.028 A 
ENDROOT
BRANCH   3   8
ATOM      8  N   UNL     1     -10.411  14.179  66.562  0.00  0.00    -0.169 NA
ATOM      9  C   UNL     1     -11.456  14.661  65.727  0.00  0.00    +0.349 C 
ATOM     10  O   UNL     1     -12.627  14.207  65.906  0.00  0.00    -0.261 OA
BRANCH   9  11
ATOM     11  C   UNL     1     -11.280  15.785  64.803  0.00  0.00    +0.442 C 
ATOM     12  O   UNL     1     -12.174  16.087  63.798  0.00  0.00    -0.235 OA
ATOM     13  O   UNL     1     -10.323  16.574  65.034  0.00  0.00    -0.235 OA
ENDBRANCH   9  11
ENDBRANCH   3   8
BRANCH   6  14
ATOM     14  N   UNL     1     -11.181  10.759  69.930  0.00  0.00    -0.169 NA
ATOM     15  C   UNL     1     -12.051  10.070  70.831  0.00  0.00    +0.349 C 
ATOM     16  O   UNL     1     -13.284  10.243  70.675  0.00  0.00    -0.261 OA
BRANCH  15  17
ATOM     17  C   UNL     1     -11.553   9.094  71.807  0.00  0.00    +0.442 C 
ATOM     18  O   UNL     1     -12.284   7.952  72.139  0.00  0.00    -0.235 OA
ATOM     19  O   UNL     1     -10.294   8.963  71.851  0.00  0.00    -0.235 OA
ENDBRANCH  15  17
ENDBRANCH   6  14
BRANCH   1  21
ATOM     20  N   UNL     1     -11.988  15.972  71.992  0.00  0.00    -0.191 NA
ATOM     21  C   UNL     1     -11.734  15.346  71.045  0.00  0.00    +0.100 C 
ENDBRANCH   1  21
TORSDOF 5
ENDMDL
