MODEL 1
REMARK VINA RESULT:      -8.0      0.000      0.000
REMARK  Name = 
REMARK  2 active torsions:
REMARK  status: ('A' for Active; 'I' for Inactive)
REMARK    1  A    between atoms: C_26  and  C_27
REMARK    2  A    between atoms: C_27  and  C_29
REMARK                            x       y       z     vdW  Elec       q    Type
REMARK                         _______ _______ _______ _____ _____    ______ ____
ROOT
ATOM      1  C   UNL     1     -10.188  12.826  64.341  0.00  0.00    +0.061 C 
ATOM      2  C   UNL     1     -10.667  12.545  64.537  0.00  0.00    +0.188 C 
ATOM      3  O   UNL     1      -9.965  12.247  65.589  0.00  0.00    -0.330 OA
ATOM      4  C   UNL     1     -10.555  12.690  66.729  0.00  0.00    +0.173 C 
ATOM      5  C   UNL     1     -12.057  13.117  66.188  0.00  0.00    +0.149 C 
ATOM      6  C   UNL     1     -11.996  14.680  66.764  0.00  0.00    +0.033 C 
ATOM      7  C   UNL     1     -10.464  14.890  66.276  0.00  0.00    +0.005 C 
ATOM      8  C   UNL     1     -10.108  16.126  67.378  0.00  0.00    +0.006 C 
ATOM      9  C   UNL     1      -8.557  16.087  66.721  0.00  0.00    +0.034 C 
ATOM     10  C   UNL     1      -7.844  15.130  67.969  0.00  0.00    +0.152 C 
ATOM     11  C   UNL     1      -8.599  13.737  67.523  0.00  0.00    +0.036 C 
ATOM     12  O   UNL     1      -8.831  15.503  69.067  0.00  0.00    -0.223 OA
ATOM     13  C   UNL     1      -8.102  17.499  67.290  0.00  0.00    +0.021 C 
ATOM     14  C   UNL     1      -8.976  18.176  68.146  0.00  0.00    -0.010 C 
ATOM     15  C   UNL     1      -8.403  19.269  68.668  0.00  0.00    +0.032 C 
ATOM     16  C   UNL     1      -6.995  19.474  68.245  0.00  0.00    +0.173 C 
ATOM     17  C   UNL     1      -6.932  19.530  66.741  0.00  0.00    +0.069 C 
ATOM     18  O   UNL     1      -6.198  20.188  68.877  0.00  0.00    -0.291 OA
ATOM     19  C   UNL     1     -10.563  18.357  67.811  0.00  0.00    +0.179 C 
ATOM     20  F   UNL     1     -10.365  19.602  66.953  0.00  0.00    -0.233 F 
ATOM     21  C   UNL     1      -6.765  17.334  67.949  0.00  0.00    +0.004 C 
ATOM     22  C   UNL     1      -7.816  18.443  66.125  0.00  0.00    +0.012 C 
ATOM     23  C   UNL     1     -10.510  17.379  66.448  0.00  0.00    +0.040 C 
ATOM     24  C   UNL     1     -10.012  13.821  67.419  0.00  0.00    +0.034 C 
ATOM     25  C   UNL     1     -10.820  14.081  68.653  0.00  0.00    +0.003 C 
ATOM     26  O   UNL     1     -11.523  13.528  64.809  0.00  0.00    -0.334 OA
ATOM     27  C   UNL     1     -10.679  11.812  63.302  0.00  0.00    +0.061 C 
ENDROOT
BRANCH   4  28
ATOM     28  C   UNL     1     -10.894  11.488  67.552  0.00  0.00    +0.210 C 
ATOM     29  O   UNL     1     -12.063  11.144  67.626  0.00  0.00    -0.291 OA
BRANCH  28  30
ATOM     30  C   UNL     1      -9.859  10.462  67.844  0.00  0.00    +0.248 C 
ATOM     31  O   UNL     1      -9.349  10.567  69.123  0.00  0.00    -0.212 OA
ENDBRANCH  28  30
ENDBRANCH   4  28
TORSDOF 2
ENDMDL
MODEL 2
REMARK VINA RESULT:      -7.8      1.884      3.615
REMARK  Name = 
REMARK  2 active torsions:
REMARK  status: ('A' for Active; 'I' for Inactive)
REMARK    1  A    between atoms: C_26  and  C_27
REMARK    2  A    between atoms: C_27  and  C_29
REMARK                            x       y       z     vdW  Elec       q    Type
REMARK                         _______ _______ _______ _____ _____    ______ ____
ROOT
ATOM      1  C   UNL     1     -11.383  13.533  69.189  0.00  0.00    +0.061 C 
ATOM      2  C   UNL     1     -11.446  13.096  68.800  0.00  0.00    +0.188 C 
ATOM      3  O   UNL     1     -12.062  13.960  68.048  0.00  0.00    -0.330 OA
ATOM      4  C   UNL     1     -11.467  14.084  66.834  0.00  0.00    +0.173 C 
ATOM      5  C   UNL     1     -10.423  12.803  66.836  0.00  0.00    +0.149 C 
ATOM      6  C   UNL     1      -9.060  13.707  66.516  0.00  0.00    +0.033 C 
ATOM      7  C   UNL     1      -9.490  14.879  67.550  0.00  0.00    +0.005 C 
ATOM      8  C   UNL     1      -8.573  16.096  66.812  0.00  0.00    +0.006 C 
ATOM      9  C   UNL     1      -9.228  17.117  67.979  0.00  0.00    +0.034 C 
ATOM     10  C   UNL     1     -10.455  17.799  66.973  0.00  0.00    +0.152 C 
ATOM     11  C   UNL     1     -11.378  16.437  66.941  0.00  0.00    +0.036 C 
ATOM     12  O   UNL     1      -9.754  17.548  65.643  0.00  0.00    -0.223 OA
ATOM     13  C   UNL     1      -8.167  18.285  67.790  0.00  0.00    +0.021 C 
ATOM     14  C   UNL     1      -7.227  18.161  66.763  0.00  0.00    -0.010 C 
ATOM     15  C   UNL     1      -6.502  19.278  66.622  0.00  0.00    +0.032 C 
ATOM     16  C   UNL     1      -6.887  20.370  67.551  0.00  0.00    +0.173 C 
ATOM     17  C   UNL     1      -6.792  19.871  68.969  0.00  0.00    +0.069 C 
ATOM     18  O   UNL     1      -6.606  21.562  67.345  0.00  0.00    -0.291 OA
ATOM     19  C   UNL     1      -6.380  16.788  66.515  0.00  0.00    +0.179 C 
ATOM     20  F   UNL     1      -5.293  17.129  67.529  0.00  0.00    -0.233 F 
ATOM     21  C   UNL     1      -8.910  19.580  67.650  0.00  0.00    +0.004 C 
ATOM     22  C   UNL     1      -7.375  18.461  69.084  0.00  0.00    +0.012 C 
ATOM     23  C   UNL     1      -7.223  15.915  67.675  0.00  0.00    +0.040 C 
ATOM     24  C   UNL     1     -10.703  15.257  66.532  0.00  0.00    +0.034 C 
ATOM     25  C   UNL     1     -10.188  15.162  65.129  0.00  0.00    +0.003 C 
ATOM     26  O   UNL     1     -10.209  12.887  68.354  0.00  0.00    -0.334 OA
ATOM     27  C   UNL     1     -12.045  12.318  69.847  0.00  0.00    +0.061 C 
ENDROOT
BRANCH   4  28
ATOM     28  C   UNL     1     -12.453  13.629  65.806  0.00  0.00    +0.210 C 
ATOM     29  O   UNL     1     -13.259  14.438  65.375  0.00  0.00    -0.291 OA
BRANCH  28  30
ATOM     30  C   UNL     1     -12.169  12.434  64.969  0.00  0.00    +0.248 C 
ATOM     31  O   UNL     1     -13.158  12.188  64.038  0.00  0.00    -0.212 OA
ENDBRANCH  28  30
ENDBRANCH   4  28
TORSDOF 2
ENDMDL
MODEL 3
REMARK VINA RESULT:      -7.8      2.074      7.192
REMARK  Name = 
REMARK  2 active torsions:
REMARK  status: ('A' for Active; 'I' for Inactive)
REMARK    1  A    between atoms: C_26  and  C_27
REMARK    2  A    between atoms: C_27  and  C_29
REMARK                            x       y       z     vdW  Elec       q    Type
REMARK                         _______ _______ _______ _____ _____    ______ ____
ROOT
ATOM      1  C   UNL     1      -5.438  18.142  69.035  0.00  0.00    +0.061 C 
ATOM      2  C   UNL     1      -5.514  18.724  69.083  0.00  0.00    +0.188 C 
ATOM      3  O   UNL     1      -5.732  18.721  67.802  0.00  0.00    -0.330 OA
ATOM      4  C   UNL     1      -6.949  19.242  67.497  0.00  0.00    +0.173 C 
ATOM      5  C   UNL     1      -7.399  19.913  68.939  0.00  0.00    +0.149 C 
ATOM      6  C   UNL     1      -8.852  19.102  69.045  0.00  0.00    +0.033 C 
ATOM      7  C   UNL     1      -8.203  17.701  68.548  0.00  0.00    +0.005 C 
ATOM      8  C   UNL     1      -9.656  17.038  67.984  0.00  0.00    +0.006 C 
ATOM      9  C   UNL     1      -8.719  15.721  67.509  0.00  0.00    +0.034 C 
ATOM     10  C   UNL     1      -8.586  16.170  65.847  0.00  0.00    +0.152 C 
ATOM     11  C   UNL     1      -7.559  17.426  66.125  0.00  0.00    +0.036 C 
ATOM     12  O   UNL     1      -9.855  17.010  65.787  0.00  0.00    -0.223 OA
ATOM     13  C   UNL     1      -9.933  14.712  67.330  0.00  0.00    +0.021 C 
ATOM     14  C   UNL     1     -11.231  15.209  67.482  0.00  0.00    -0.010 C 
ATOM     15  C   UNL     1     -12.150  14.292  67.153  0.00  0.00    +0.032 C 
ATOM     16  C   UNL     1     -11.578  13.005  66.683  0.00  0.00    +0.173 C 
ATOM     17  C   UNL     1     -10.659  12.454  67.742  0.00  0.00    +0.069 C 
ATOM     18  O   UNL     1     -12.224  12.188  66.005  0.00  0.00    -0.291 OA
ATOM     19  C   UNL     1     -11.662  16.155  68.740  0.00  0.00    +0.179 C 
ATOM     20  F   UNL     1     -11.950  14.987  69.679  0.00  0.00    -0.233 F 
ATOM     21  C   UNL     1      -9.795  14.040  65.996  0.00  0.00    +0.004 C 
ATOM     22  C   UNL     1      -9.786  13.566  68.328  0.00  0.00    +0.012 C 
ATOM     23  C   UNL     1     -10.098  16.281  69.337  0.00  0.00    +0.040 C 
ATOM     24  C   UNL     1      -8.010  18.376  67.079  0.00  0.00    +0.034 C 
ATOM     25  C   UNL     1      -9.224  19.196  66.773  0.00  0.00    +0.003 C 
ATOM     26  O   UNL     1      -6.660  18.841  69.752  0.00  0.00    -0.334 OA
ATOM     27  C   UNL     1      -4.227  18.790  69.714  0.00  0.00    +0.061 C 
ENDROOT
BRANCH   4  28
ATOM     28  C   UNL     1      -6.715  20.475  66.685  0.00  0.00    +0.210 C 
ATOM     29  O   UNL     1      -6.816  21.561  67.233  0.00  0.00    -0.291 OA
BRANCH  28  30
ATOM     30  C   UNL     1      -5.911  20.412  65.437  0.00  0.00    +0.248 C 
ATOM     31  O   UNL     1      -6.692  20.377  64.299  0.00  0.00    -0.212 OA
ENDBRANCH  28  30
ENDBRANCH   4  28
TORSDOF 2
ENDMDL
MODEL 4
REMARK VINA RESULT:      -7.6      3.111      5.514
REMARK  Name = 
REMARK  2 active torsions:
REMARK  status: ('A' for Active; 'I' for Inactive)
REMARK    1  A    between atoms: C_26  and  C_27
REMARK    2  A    between atoms: C_27  and  C_29
REMARK                            x       y       z     vdW  Elec       q    Type
REMARK                         _______ _______ _______ _____ _____    ______ ____
ROOT
ATOM      1  C   UNL     1     -10.757  16.628  69.383  0.00  0.00    +0.061 C 
ATOM      2  C   UNL     1     -10.881  16.294  68.913  0.00  0.00    +0.188 C 
ATOM      3  O   UNL     1     -10.801  17.387  68.214  0.00  0.00    -0.330 OA
ATOM      4  C   UNL     1      -9.872  17.286  67.228  0.00  0.00    +0.173 C 
ATOM      5  C   UNL     1      -9.542  15.667  67.240  0.00  0.00    +0.149 C 
ATOM      6  C   UNL     1      -7.896  15.841  67.441  0.00  0.00    +0.033 C 
ATOM      7  C   UNL     1      -8.069  17.016  68.544  0.00  0.00    +0.005 C 
ATOM      8  C   UNL     1      -6.539  17.699  68.299  0.00  0.00    +0.006 C 
ATOM      9  C   UNL     1      -7.009  18.841  69.445  0.00  0.00    +0.034 C 
ATOM     10  C   UNL     1      -7.448  20.075  68.319  0.00  0.00    +0.152 C 
ATOM     11  C   UNL     1      -8.811  19.310  67.802  0.00  0.00    +0.036 C 
ATOM     12  O   UNL     1      -6.556  19.600  67.178  0.00  0.00    -0.223 OA
ATOM     13  C   UNL     1      -5.545  19.381  69.747  0.00  0.00    +0.021 C 
ATOM     14  C   UNL     1      -4.489  18.889  68.976  0.00  0.00    -0.010 C 
ATOM     15  C   UNL     1      -3.347  19.540  69.233  0.00  0.00    +0.032 C 
ATOM     16  C   UNL     1      -3.485  20.630  70.231  0.00  0.00    +0.173 C 
ATOM     17  C   UNL     1      -4.052  20.065  71.507  0.00  0.00    +0.069 C 
ATOM     18  O   UNL     1      -2.666  21.560  70.332  0.00  0.00    -0.291 OA
ATOM     19  C   UNL     1      -4.289  17.295  68.684  0.00  0.00    +0.179 C 
ATOM     20  F   UNL     1      -3.529  17.028  69.979  0.00  0.00    -0.233 F 
ATOM     21  C   UNL     1      -5.572  20.879  69.681  0.00  0.00    +0.004 C 
ATOM     22  C   UNL     1      -5.192  19.091  71.204  0.00  0.00    +0.012 C 
ATOM     23  C   UNL     1      -5.735  16.857  69.414  0.00  0.00    +0.040 C 
ATOM     24  C   UNL     1      -8.624  17.977  67.352  0.00  0.00    +0.034 C 
ATOM     25  C   UNL     1      -7.800  17.731  66.126  0.00  0.00    +0.003 C 
ATOM     26  O   UNL     1      -9.786  15.554  68.752  0.00  0.00    -0.334 OA
ATOM     27  C   UNL     1     -12.046  15.831  69.613  0.00  0.00    +0.061 C 
ENDROOT
BRANCH   4  28
ATOM     28  C   UNL     1     -10.592  17.407  65.924  0.00  0.00    +0.210 C 
ATOM     29  O   UNL     1     -10.621  18.496  65.374  0.00  0.00    -0.291 OA
BRANCH  28  30
ATOM     30  C   UNL     1     -10.818  16.207  65.076  0.00  0.00    +0.248 C 
ATOM     31  O   UNL     1     -11.529  16.492  63.927  0.00  0.00    -0.212 OA
ENDBRANCH  28  30
ENDBRANCH   4  28
TORSDOF 2
ENDMDL
MODEL 5
REMARK VINA RESULT:      -7.5      2.410      6.966
REMARK  Name = 
REMARK  2 active torsions:
REMARK  status: ('A' for Active; 'I' for Inactive)
REMARK    1  A    between atoms: C_26  and  C_27
REMARK    2  A    between atoms: C_27  and  C_29
REMARK                            x       y       z     vdW  Elec       q    Type
REMARK                         _______ _______ _______ _____ _____    ______ ____
ROOT
ATOM      1  C   UNL     1      -5.507  17.482  66.136  0.00  0.00    +0.061 C 
ATOM      2  C   UNL     1      -5.362  17.717  66.656  0.00  0.00    +0.188 C 
ATOM      3  O   UNL     1      -6.460  18.407  66.560  0.00  0.00    -0.330 OA
ATOM      4  C   UNL     1      -7.283  18.192  67.618  0.00  0.00    +0.173 C 
ATOM      5  C   UNL     1      -6.290  17.378  68.659  0.00  0.00    +0.149 C 
ATOM      6  C   UNL     1      -7.299  16.064  68.848  0.00  0.00    +0.033 C 
ATOM      7  C   UNL     1      -7.654  16.003  67.267  0.00  0.00    +0.005 C 
ATOM      8  C   UNL     1      -9.130  15.193  67.461  0.00  0.00    +0.006 C 
ATOM      9  C   UNL     1      -9.272  15.324  65.788  0.00  0.00    +0.034 C 
ATOM     10  C   UNL     1     -10.326  16.693  65.791  0.00  0.00    +0.152 C 
ATOM     11  C   UNL     1      -9.166  17.758  66.268  0.00  0.00    +0.036 C 
ATOM     12  O   UNL     1     -10.912  16.463  67.179  0.00  0.00    -0.223 OA
ATOM     13  C   UNL     1     -10.406  14.221  65.633  0.00  0.00    +0.021 C 
ATOM     14  C   UNL     1     -10.940  13.658  66.795  0.00  0.00    -0.010 C 
ATOM     15  C   UNL     1     -11.984  12.865  66.522  0.00  0.00    +0.032 C 
ATOM     16  C   UNL     1     -12.336  12.803  65.081  0.00  0.00    +0.173 C 
ATOM     17  C   UNL     1     -11.131  12.355  64.296  0.00  0.00    +0.069 C 
ATOM     18  O   UNL     1     -13.451  12.438  64.674  0.00  0.00    -0.291 OA
ATOM     19  C   UNL     1     -10.001  13.118  68.016  0.00  0.00    +0.179 C 
ATOM     20  F   UNL     1      -9.776  11.742  67.398  0.00  0.00    -0.233 F 
ATOM     21  C   UNL     1     -11.506  14.790  64.787  0.00  0.00    +0.004 C 
ATOM     22  C   UNL     1      -9.869  13.062  64.796  0.00  0.00    +0.012 C 
ATOM     23  C   UNL     1      -8.577  13.685  67.332  0.00  0.00    +0.040 C 
ATOM     24  C   UNL     1      -8.466  17.402  67.451  0.00  0.00    +0.034 C 
ATOM     25  C   UNL     1      -9.211  17.349  68.749  0.00  0.00    +0.003 C 
ATOM     26  O   UNL     1      -5.517  16.710  67.513  0.00  0.00    -0.334 OA
ATOM     27  C   UNL     1      -4.095  18.074  66.086  0.00  0.00    +0.061 C 
ENDROOT
BRANCH   4  28
ATOM     28  C   UNL     1      -7.428  19.492  68.341  0.00  0.00    +0.210 C 
ATOM     29  O   UNL     1      -6.935  19.598  69.453  0.00  0.00    -0.291 OA
BRANCH  28  30
ATOM     30  C   UNL     1      -7.690  20.746  67.587  0.00  0.00    +0.248 C 
ATOM     31  O   UNL     1      -6.561  21.527  67.441  0.00  0.00    -0.212 OA
ENDBRANCH  28  30
ENDBRANCH   4  28
TORSDOF 2
ENDMDL
MODEL 6
REMARK VINA RESULT:      -7.0      2.601      7.802
REMARK  Name = 
REMARK  2 active torsions:
REMARK  status: ('A' for Active; 'I' for Inactive)
REMARK    1  A    between atoms: C_26  and  C_27
REMARK    2  A    between atoms: C_27  and  C_29
REMARK                            x       y       z     vdW  Elec       q    Type
REMARK                         _______ _______ _______ _____ _____    ______ ____
ROOT
ATOM      1  C   UNL     1      -5.136  20.091  70.783  0.00  0.00    +0.061 C 
ATOM      2  C   UNL     1      -4.807  20.484  70.493  0.00  0.00    +0.188 C 
ATOM      3  O   UNL     1      -4.321  19.474  69.834  0.00  0.00    -0.330 OA
ATOM      4  C   UNL     1      -4.505  19.612  68.496  0.00  0.00    +0.173 C 
ATOM      5  C   UNL     1      -4.989  21.187  68.382  0.00  0.00    +0.149 C 
ATOM      6  C   UNL     1      -6.404  20.861  67.562  0.00  0.00    +0.033 C 
ATOM      7  C   UNL     1      -6.753  19.586  68.501  0.00  0.00    +0.005 C 
ATOM      8  C   UNL     1      -7.748  18.814  67.368  0.00  0.00    +0.006 C 
ATOM      9  C   UNL     1      -7.889  17.592  68.518  0.00  0.00    +0.034 C 
ATOM     10  C   UNL     1      -6.719  16.532  67.817  0.00  0.00    +0.152 C 
ATOM     11  C   UNL     1      -5.425  17.457  68.241  0.00  0.00    +0.036 C 
ATOM     12  O   UNL     1      -6.832  17.060  66.392  0.00  0.00    -0.223 OA
ATOM     13  C   UNL     1      -9.168  16.905  67.872  0.00  0.00    +0.021 C 
ATOM     14  C   UNL     1      -9.631  17.396  66.648  0.00  0.00    -0.010 C 
ATOM     15  C   UNL     1     -10.611  16.630  66.150  0.00  0.00    +0.032 C 
ATOM     16  C   UNL     1     -10.939  15.449  66.988  0.00  0.00    +0.173 C 
ATOM     17  C   UNL     1     -11.301  15.909  68.375  0.00  0.00    +0.069 C 
ATOM     18  O   UNL     1     -11.532  14.451  66.544  0.00  0.00    -0.291 OA
ATOM     19  C   UNL     1      -9.831  18.991  66.364  0.00  0.00    +0.179 C 
ATOM     20  F   UNL     1     -11.230  19.048  66.969  0.00  0.00    -0.233 F 
ATOM     21  C   UNL     1      -8.911  15.431  67.769  0.00  0.00    +0.004 C 
ATOM     22  C   UNL     1     -10.338  17.000  68.849  0.00  0.00    +0.012 C 
ATOM     23  C   UNL     1      -9.153  19.458  67.827  0.00  0.00    +0.040 C 
ATOM     24  C   UNL     1      -5.488  18.813  67.827  0.00  0.00    +0.034 C 
ATOM     25  C   UNL     1      -5.467  19.129  66.363  0.00  0.00    +0.003 C 
ATOM     26  O   UNL     1      -5.688  21.148  69.748  0.00  0.00    -0.334 OA
ATOM     27  C   UNL     1      -4.341  20.957  71.766  0.00  0.00    +0.061 C 
ENDROOT
BRANCH   4  28
ATOM     28  C   UNL     1      -3.152  19.697  67.867  0.00  0.00    +0.210 C 
ATOM     29  O   UNL     1      -2.750  20.788  67.496  0.00  0.00    -0.291 OA
BRANCH  28  30
ATOM     30  C   UNL     1      -2.133  18.647  68.129  0.00  0.00    +0.248 C 
ATOM     31  O   UNL     1      -2.045  17.721  67.108  0.00  0.00    -0.212 OA
ENDBRANCH  28  30
ENDBRANCH   4  28
TORSDOF 2
ENDMDL
MODEL 7
REMARK VINA RESULT:      -7.0      4.130      6.467
REMARK  Name = 
REMARK  2 active torsions:
REMARK  status: ('A' for Active; 'I' for Inactive)
REMARK    1  A    between atoms: C_26  and  C_27
REMARK    2  A    between atoms: C_27  and  C_29
REMARK                            x       y       z     vdW  Elec       q    Type
REMARK                         _______ _______ _______ _____ _____    ______ ____
ROOT
ATOM      1  C   UNL     1      -6.973  10.354  70.034  0.00  0.00    +0.061 C 
ATOM      2  C   UNL     1      -6.962   9.768  70.098  0.00  0.00    +0.188 C 
ATOM      3  O   UNL     1      -8.184   9.872  70.529  0.00  0.00    -0.330 OA
ATOM      4  C   UNL     1      -9.043   9.124  69.789  0.00  0.00    +0.173 C 
ATOM      5  C   UNL     1      -8.004   8.203  68.894  0.00  0.00    +0.149 C 
ATOM      6  C   UNL     1      -8.638   8.638  67.415  0.00  0.00    +0.033 C 
ATOM      7  C   UNL     1      -8.767  10.199  67.834  0.00  0.00    +0.005 C 
ATOM      8  C   UNL     1      -9.982  10.571  66.715  0.00  0.00    +0.006 C 
ATOM      9  C   UNL     1      -9.948  12.115  67.388  0.00  0.00    +0.034 C 
ATOM     10  C   UNL     1     -11.323  11.908  68.413  0.00  0.00    +0.152 C 
ATOM     11  C   UNL     1     -10.559  10.899  69.465  0.00  0.00    +0.036 C 
ATOM     12  O   UNL     1     -11.992  10.811  67.595  0.00  0.00    -0.223 OA
ATOM     13  C   UNL     1     -10.715  12.831  66.195  0.00  0.00    +0.021 C 
ATOM     14  C   UNL     1     -11.218  12.034  65.162  0.00  0.00    -0.010 C 
ATOM     15  C   UNL     1     -11.968  12.746  64.312  0.00  0.00    +0.032 C 
ATOM     16  C   UNL     1     -12.111  14.176  64.683  0.00  0.00    +0.173 C 
ATOM     17  C   UNL     1     -10.743  14.796  64.804  0.00  0.00    +0.069 C 
ATOM     18  O   UNL     1     -13.028  14.896  64.255  0.00  0.00    -0.291 OA
ATOM     19  C   UNL     1     -10.326  10.872  64.442  0.00  0.00    +0.179 C 
ATOM     20  F   UNL     1      -9.665  11.823  63.449  0.00  0.00    -0.233 F 
ATOM     21  C   UNL     1     -11.815  13.669  66.776  0.00  0.00    +0.004 C 
ATOM     22  C   UNL     1      -9.789  13.854  65.542  0.00  0.00    +0.012 C 
ATOM     23  C   UNL     1      -9.033  11.040  65.500  0.00  0.00    +0.040 C 
ATOM     24  C   UNL     1      -9.941   9.766  68.876  0.00  0.00    +0.034 C 
ATOM     25  C   UNL     1     -10.797   8.729  68.217  0.00  0.00    +0.003 C 
ATOM     26  O   UNL     1      -6.945   9.313  68.847  0.00  0.00    -0.334 OA
ATOM     27  C   UNL     1      -5.777   9.928  70.892  0.00  0.00    +0.061 C 
ENDROOT
BRANCH   4  28
ATOM     28  C   UNL     1      -9.620   8.083  70.694  0.00  0.00    +0.210 C 
ATOM     29  O   UNL     1      -9.278   6.922  70.536  0.00  0.00    -0.291 OA
BRANCH  28  30
ATOM     30  C   UNL     1     -10.164   8.461  72.024  0.00  0.00    +0.248 C 
ATOM     31  O   UNL     1     -11.536   8.614  72.016  0.00  0.00    -0.212 OA
ENDBRANCH  28  30
ENDBRANCH   4  28
TORSDOF 2
ENDMDL
MODEL 8
REMARK VINA RESULT:      -6.9      2.593      4.162
REMARK  Name = 
REMARK  2 active torsions:
REMARK  status: ('A' for Active; 'I' for Inactive)
REMARK    1  A    between atoms: C_26  and  C_27
REMARK    2  A    between atoms: C_27  and  C_29
REMARK                            x       y       z     vdW  Elec       q    Type
REMARK                         _______ _______ _______ _____ _____    ______ ____
ROOT
ATOM      1  C   UNL     1      -9.428  15.250  65.772  0.00  0.00    +0.061 C 
ATOM      2  C   UNL     1      -9.986  15.400  65.888  0.00  0.00    +0.188 C 
ATOM      3  O   UNL     1      -9.647  15.379  67.143  0.00  0.00    -0.330 OA
ATOM      4  C   UNL     1      -9.884  16.571  67.748  0.00  0.00    +0.173 C 
ATOM      5  C   UNL     1     -10.796  17.351  66.612  0.00  0.00    +0.149 C 
ATOM      6  C   UNL     1      -9.815  18.696  66.516  0.00  0.00    +0.033 C 
ATOM      7  C   UNL     1      -8.456  17.811  66.532  0.00  0.00    +0.005 C 
ATOM      8  C   UNL     1      -7.459  19.050  67.114  0.00  0.00    +0.006 C 
ATOM      9  C   UNL     1      -6.232  17.897  67.088  0.00  0.00    +0.034 C 
ATOM     10  C   UNL     1      -6.291  17.515  68.772  0.00  0.00    +0.152 C 
ATOM     11  C   UNL     1      -7.723  16.708  68.679  0.00  0.00    +0.036 C 
ATOM     12  O   UNL     1      -6.884  18.840  69.234  0.00  0.00    -0.223 OA
ATOM     13  C   UNL     1      -5.031  18.933  67.178  0.00  0.00    +0.021 C 
ATOM     14  C   UNL     1      -5.339  20.285  67.353  0.00  0.00    -0.010 C 
ATOM     15  C   UNL     1      -4.238  21.017  67.566  0.00  0.00    +0.032 C 
ATOM     16  C   UNL     1      -2.983  20.226  67.598  0.00  0.00    +0.173 C 
ATOM     17  C   UNL     1      -2.848  19.458  66.309  0.00  0.00    +0.069 C 
ATOM     18  O   UNL     1      -1.938  20.638  68.129  0.00  0.00    -0.291 OA
ATOM     19  C   UNL     1      -6.475  21.045  66.461  0.00  0.00    +0.179 C 
ATOM     20  F   UNL     1      -5.531  21.363  65.305  0.00  0.00    -0.233 F 
ATOM     21  C   UNL     1      -4.094  18.478  68.257  0.00  0.00    +0.004 C 
ATOM     22  C   UNL     1      -4.189  18.840  65.907  0.00  0.00    +0.012 C 
ATOM     23  C   UNL     1      -6.982  19.642  65.692  0.00  0.00    +0.040 C 
ATOM     24  C   UNL     1      -8.788  17.431  68.080  0.00  0.00    +0.034 C 
ATOM     25  C   UNL     1      -9.312  18.656  68.764  0.00  0.00    +0.003 C 
ATOM     26  O   UNL     1     -10.075  16.654  65.450  0.00  0.00    -0.334 OA
ATOM     27  C   UNL     1     -10.400  14.266  65.112  0.00  0.00    +0.061 C 
ENDROOT
BRANCH   4  28
ATOM     28  C   UNL     1     -10.912  16.337  68.808  0.00  0.00    +0.210 C 
ATOM     29  O   UNL     1     -12.062  16.681  68.589  0.00  0.00    -0.291 OA
BRANCH  28  30
ATOM     30  C   UNL     1     -10.696  15.298  69.848  0.00  0.00    +0.248 C 
ATOM     31  O   UNL     1     -11.281  15.621  71.056  0.00  0.00    -0.212 OA
ENDBRANCH  28  30
ENDBRANCH   4  28
TORSDOF 2
ENDMDL
MODEL 9
REMARK VINA RESULT:      -6.8      3.608      7.337
REMARK  Name = 
REMARK  2 active torsions:
REMARK  status: ('A' for Active; 'I' for Inactive)
REMARK    1  A    between atoms: C_26  and  C_27
REMARK    2  A    between atoms: C_27  and  C_29
REMARK                            x       y       z     vdW  Elec       q    Type
REMARK                         _______ _______ _______ _____ _____    ______ ____
ROOT
ATOM      1  C   UNL     1     -11.068  14.740  69.308  0.00  0.00    +0.061 C 
ATOM      2  C   UNL     1     -11.397  14.996  68.891  0.00  0.00    +0.188 C 
ATOM      3  O   UNL     1     -10.303  15.080  68.193  0.00  0.00    -0.330 OA
ATOM      4  C   UNL     1     -10.424  14.458  66.993  0.00  0.00    +0.173 C 
ATOM      5  C   UNL     1     -12.051  14.179  66.918  0.00  0.00    +0.149 C 
ATOM      6  C   UNL     1     -11.919  12.536  66.664  0.00  0.00    +0.033 C 
ATOM      7  C   UNL     1     -10.745  12.373  67.769  0.00  0.00    +0.005 C 
ATOM      8  C   UNL     1     -10.100  10.949  67.115  0.00  0.00    +0.006 C 
ATOM      9  C   UNL     1      -8.952  11.060  68.343  0.00  0.00    +0.034 C 
ATOM     10  C   UNL     1      -7.702  11.757  67.375  0.00  0.00    +0.152 C 
ATOM     11  C   UNL     1      -8.429  13.229  67.251  0.00  0.00    +0.036 C 
ATOM     12  O   UNL     1      -8.194  11.222  66.036  0.00  0.00    -0.223 OA
ATOM     13  C   UNL     1      -8.450   9.557  68.234  0.00  0.00    +0.021 C 
ATOM     14  C   UNL     1      -8.966   8.763  67.206  0.00  0.00    -0.010 C 
ATOM     15  C   UNL     1      -8.345   7.578  67.141  0.00  0.00    +0.032 C 
ATOM     16  C   UNL     1      -7.256   7.410  68.136  0.00  0.00    +0.173 C 
ATOM     17  C   UNL     1      -7.812   7.624  69.520  0.00  0.00    +0.069 C 
ATOM     18  O   UNL     1      -6.348   6.572  68.008  0.00  0.00    -0.291 OA
ATOM     19  C   UNL     1     -10.562   8.690  66.875  0.00  0.00    +0.179 C 
ATOM     20  F   UNL     1     -10.855   7.614  67.915  0.00  0.00    -0.233 F 
ATOM     21  C   UNL     1      -6.951   9.562  68.174  0.00  0.00    +0.004 C 
ATOM     22  C   UNL     1      -8.756   8.828  69.541  0.00  0.00    +0.012 C 
ATOM     23  C   UNL     1     -10.967   9.895  67.972  0.00  0.00    +0.040 C 
ATOM     24  C   UNL     1      -9.765  13.205  66.771  0.00  0.00    +0.034 C 
ATOM     25  C   UNL     1     -10.026  12.753  65.367  0.00  0.00    +0.003 C 
ATOM     26  O   UNL     1     -12.164  14.005  68.440  0.00  0.00    -0.334 OA
ATOM     27  C   UNL     1     -11.833  15.937  69.883  0.00  0.00    +0.061 C 
ENDROOT
BRANCH   4  28
ATOM     28  C   UNL     1     -10.278  15.502  65.933  0.00  0.00    +0.210 C 
ATOM     29  O   UNL     1      -9.176  15.990  65.744  0.00  0.00    -0.291 OA
BRANCH  28  30
ATOM     30  C   UNL     1     -11.263  15.589  64.823  0.00  0.00    +0.248 C 
ATOM     31  O   UNL     1     -11.312  16.844  64.250  0.00  0.00    -0.212 OA
ENDBRANCH  28  30
ENDBRANCH   4  28
TORSDOF 2
ENDMDL
