MODEL 1
REMARK VINA RESULT:      -4.7      0.000      0.000
REMARK  Name = 
REMARK  1 active torsions:
REMARK  status: ('A' for Active; 'I' for Inactive)
REMARK    1  A    between atoms: C_3  and  C_5
REMARK                            x       y       z     vdW  Elec       q    Type
REMARK                         _______ _______ _______ _____ _____    ______ ____
ROOT
ATOM      1  C   UNL     1     -12.320  15.195  71.921  0.00  0.00    +0.060 A 
ATOM      2  C   UNL     1     -11.688  16.220  71.235  0.00  0.00    +0.025 A 
ATOM      3  C   UNL     1     -11.182  15.924  69.975  0.00  0.00    +0.099 A 
ATOM      4  N   UNL     1     -11.879  15.001  69.268  0.00  0.00    -0.242 NA
ATOM      5  C   UNL     1     -12.375  13.906  69.893  0.00  0.00    +0.099 A 
ATOM      6  C   UNL     1     -12.392  13.971  71.283  0.00  0.00    +0.025 A 
ENDROOT
BRANCH   1   9
ATOM      7  N   UNL     1     -12.468  16.462  75.359  0.00  0.00    +0.007 NA
ATOM      8  N   UNL     1     -12.392  15.388  74.449  0.00  0.00    -0.089 NA
ATOM      9  C   UNL     1     -13.049  15.426  73.177  0.00  0.00    +0.282 C 
ATOM     10  O   UNL     1     -14.003  16.250  73.103  0.00  0.00    -0.267 OA
ENDBRANCH   1   9
TORSDOF 1
ENDMDL
MODEL 2
REMARK VINA RESULT:      -4.7      2.087      4.123
REMARK  Name = 
REMARK  1 active torsions:
REMARK  status: ('A' for Active; 'I' for Inactive)
REMARK    1  A    between atoms: C_3  and  C_5
REMARK                            x       y       z     vdW  Elec       q    Type
REMARK                         _______ _______ _______ _____ _____    ______ ____
ROOT
ATOM      1  C   UNL     1     -12.297  15.556  71.106  0.00  0.00    +0.060 A 
ATOM      2  C   UNL     1     -11.897  16.142  72.297  0.00  0.00    +0.025 A 
ATOM      3  C   UNL     1     -12.664  15.876  73.425  0.00  0.00    +0.099 A 
ATOM      4  N   UNL     1     -13.240  14.650  73.465  0.00  0.00    -0.242 NA
ATOM      5  C   UNL     1     -13.781  14.122  72.339  0.00  0.00    +0.099 A 
ATOM      6  C   UNL     1     -13.424  14.757  71.154  0.00  0.00    +0.025 A 
ENDROOT
BRANCH   1   9
ATOM      7  N   UNL     1     -10.909  17.399  68.257  0.00  0.00    +0.007 NA
ATOM      8  N   UNL     1     -11.817  16.461  68.786  0.00  0.00    -0.089 NA
ATOM      9  C   UNL     1     -11.475  15.614  69.890  0.00  0.00    +0.282 C 
ATOM     10  O   UNL     1     -10.234  15.464  70.070  0.00  0.00    -0.267 OA
ENDBRANCH   1   9
TORSDOF 1
ENDMDL
MODEL 3
REMARK VINA RESULT:      -4.6      5.088      7.236
REMARK  Name = 
REMARK  1 active torsions:
REMARK  status: ('A' for Active; 'I' for Inactive)
REMARK    1  A    between atoms: C_3  and  C_5
REMARK                            x       y       z     vdW  Elec       q    Type
REMARK                         _______ _______ _______ _____ _____    ______ ____
ROOT
ATOM      1  C   UNL     1     -10.495  16.224  66.277  0.00  0.00    +0.060 A 
ATOM      2  C   UNL     1     -10.862  15.498  67.398  0.00  0.00    +0.025 A 
ATOM      3  C   UNL     1     -10.621  16.078  68.638  0.00  0.00    +0.099 A 
ATOM      4  N   UNL     1     -10.717  17.430  68.679  0.00  0.00    -0.242 NA
ATOM      5  C   UNL     1     -10.221  18.172  67.659  0.00  0.00    +0.099 A 
ATOM      6  C   UNL     1      -9.926  17.465  66.497  0.00  0.00    +0.025 A 
ENDROOT
BRANCH   1   9
ATOM      7  N   UNL     1     -12.580  14.282  63.969  0.00  0.00    +0.007 NA
ATOM      8  N   UNL     1     -11.359  14.488  64.643  0.00  0.00    -0.089 NA
ATOM      9  C   UNL     1     -10.857  15.801  64.916  0.00  0.00    +0.282 C 
ATOM     10  O   UNL     1     -11.331  16.708  64.178  0.00  0.00    -0.267 OA
ENDBRANCH   1   9
TORSDOF 1
ENDMDL
MODEL 4
REMARK VINA RESULT:      -4.5      7.549      8.331
REMARK  Name = 
REMARK  1 active torsions:
REMARK  status: ('A' for Active; 'I' for Inactive)
REMARK    1  A    between atoms: C_3  and  C_5
REMARK                            x       y       z     vdW  Elec       q    Type
REMARK                         _______ _______ _______ _____ _____    ______ ____
ROOT
ATOM      1  C   UNL     1     -10.902  13.068  64.577  0.00  0.00    +0.060 A 
ATOM      2  C   UNL     1     -10.950  12.260  63.452  0.00  0.00    +0.025 A 
ATOM      3  C   UNL     1     -10.298  11.035  63.522  0.00  0.00    +0.099 A 
ATOM      4  N   UNL     1     -10.286  10.448  64.744  0.00  0.00    -0.242 NA
ATOM      5  C   UNL     1     -10.083  11.202  65.852  0.00  0.00    +0.099 A 
ATOM      6  C   UNL     1     -10.211  12.575  65.668  0.00  0.00    +0.025 A 
ENDROOT
BRANCH   1   9
ATOM      7  N   UNL     1     -11.239  16.707  64.276  0.00  0.00    +0.007 NA
ATOM      8  N   UNL     1     -11.102  15.548  65.067  0.00  0.00    -0.089 NA
ATOM      9  C   UNL     1     -11.695  14.300  64.690  0.00  0.00    +0.282 C 
ATOM     10  O   UNL     1     -12.656  14.400  63.877  0.00  0.00    -0.267 OA
ENDBRANCH   1   9
TORSDOF 1
ENDMDL
MODEL 5
REMARK VINA RESULT:      -4.5      2.480      4.585
REMARK  Name = 
REMARK  1 active torsions:
REMARK  status: ('A' for Active; 'I' for Inactive)
REMARK    1  A    between atoms: C_3  and  C_5
REMARK                            x       y       z     vdW  Elec       q    Type
REMARK                         _______ _______ _______ _____ _____    ______ ____
ROOT
ATOM      1  C   UNL     1     -12.437  14.648  70.639  0.00  0.00    +0.060 A 
ATOM      2  C   UNL     1     -12.592  13.319  71.000  0.00  0.00    +0.025 A 
ATOM      3  C   UNL     1     -13.371  13.052  72.120  0.00  0.00    +0.099 A 
ATOM      4  N   UNL     1     -14.399  13.908  72.335  0.00  0.00    -0.242 NA
ATOM      5  C   UNL     1     -14.222  15.237  72.138  0.00  0.00    +0.099 A 
ATOM      6  C   UNL     1     -13.078  15.585  71.428  0.00  0.00    +0.025 A 
ENDROOT
BRANCH   1   9
ATOM      7  N   UNL     1     -12.049  14.376  67.004  0.00  0.00    +0.007 NA
ATOM      8  N   UNL     1     -11.586  14.120  68.310  0.00  0.00    -0.089 NA
ATOM      9  C   UNL     1     -11.791  15.048  69.381  0.00  0.00    +0.282 C 
ATOM     10  O   UNL     1     -12.017  16.234  69.012  0.00  0.00    -0.267 OA
ENDBRANCH   1   9
TORSDOF 1
ENDMDL
MODEL 6
REMARK VINA RESULT:      -4.3      5.532      7.178
REMARK  Name = 
REMARK  1 active torsions:
REMARK  status: ('A' for Active; 'I' for Inactive)
REMARK    1  A    between atoms: C_3  and  C_5
REMARK                            x       y       z     vdW  Elec       q    Type
REMARK                         _______ _______ _______ _____ _____    ______ ____
ROOT
ATOM      1  C   UNL     1     -11.428  14.270  66.343  0.00  0.00    +0.060 A 
ATOM      2  C   UNL     1     -11.550  14.799  67.618  0.00  0.00    +0.025 A 
ATOM      3  C   UNL     1     -10.740  15.882  67.937  0.00  0.00    +0.099 A 
ATOM      4  N   UNL     1     -10.452  16.720  66.911  0.00  0.00    -0.242 NA
ATOM      5  C   UNL     1     -10.173  16.212  65.685  0.00  0.00    +0.099 A 
ATOM      6  C   UNL     1     -10.510  14.874  65.505  0.00  0.00    +0.025 A 
ENDROOT
BRANCH   1   9
ATOM      7  N   UNL     1     -12.776  12.262  63.588  0.00  0.00    +0.007 NA
ATOM      8  N   UNL     1     -12.899  13.322  64.508  0.00  0.00    -0.089 NA
ATOM      9  C   UNL     1     -12.348  13.246  65.828  0.00  0.00    +0.282 C 
ATOM     10  O   UNL     1     -12.135  12.073  66.242  0.00  0.00    -0.267 OA
ENDBRANCH   1   9
TORSDOF 1
ENDMDL
MODEL 7
REMARK VINA RESULT:      -4.3      7.101      7.722
REMARK  Name = 
REMARK  1 active torsions:
REMARK  status: ('A' for Active; 'I' for Inactive)
REMARK    1  A    between atoms: C_3  and  C_5
REMARK                            x       y       z     vdW  Elec       q    Type
REMARK                         _______ _______ _______ _____ _____    ______ ____
ROOT
ATOM      1  C   UNL     1     -11.140  14.539  65.039  0.00  0.00    +0.060 A 
ATOM      2  C   UNL     1     -10.202  13.577  65.375  0.00  0.00    +0.025 A 
ATOM      3  C   UNL     1     -10.432  12.281  64.929  0.00  0.00    +0.099 A 
ATOM      4  N   UNL     1     -11.071  12.178  63.738  0.00  0.00    -0.242 NA
ATOM      5  C   UNL     1     -12.100  13.012  63.451  0.00  0.00    +0.099 A 
ATOM      6  C   UNL     1     -12.219  14.118  64.285  0.00  0.00    +0.025 A 
ENDROOT
BRANCH   1   9
ATOM      7  N   UNL     1      -8.922  17.368  65.758  0.00  0.00    +0.007 NA
ATOM      8  N   UNL     1      -9.888  16.430  66.173  0.00  0.00    -0.089 NA
ATOM      9  C   UNL     1     -10.922  15.970  65.296  0.00  0.00    +0.282 C 
ATOM     10  O   UNL     1     -11.163  16.736  64.322  0.00  0.00    -0.267 OA
ENDBRANCH   1   9
TORSDOF 1
ENDMDL
MODEL 8
REMARK VINA RESULT:      -4.3      4.545      7.123
REMARK  Name = 
REMARK  1 active torsions:
REMARK  status: ('A' for Active; 'I' for Inactive)
REMARK    1  A    between atoms: C_3  and  C_5
REMARK                            x       y       z     vdW  Elec       q    Type
REMARK                         _______ _______ _______ _____ _____    ______ ____
ROOT
ATOM      1  C   UNL     1     -11.764  13.261  66.739  0.00  0.00    +0.060 A 
ATOM      2  C   UNL     1     -11.531  11.977  67.204  0.00  0.00    +0.025 A 
ATOM      3  C   UNL     1     -11.258  11.831  68.559  0.00  0.00    +0.099 A 
ATOM      4  N   UNL     1     -11.876  12.717  69.378  0.00  0.00    -0.242 NA
ATOM      5  C   UNL     1     -11.977  14.017  69.011  0.00  0.00    +0.099 A 
ATOM      6  C   UNL     1     -11.707  14.280  67.671  0.00  0.00    +0.025 A 
ENDROOT
BRANCH   1   9
ATOM      7  N   UNL     1     -12.890  12.094  63.450  0.00  0.00    +0.007 NA
ATOM      8  N   UNL     1     -11.902  12.665  64.278  0.00  0.00    -0.089 NA
ATOM      9  C   UNL     1     -12.236  13.526  65.372  0.00  0.00    +0.282 C 
ATOM     10  O   UNL     1     -13.377  14.061  65.290  0.00  0.00    -0.267 OA
ENDBRANCH   1   9
TORSDOF 1
ENDMDL
MODEL 9
REMARK VINA RESULT:      -4.3      5.148      7.060
REMARK  Name = 
REMARK  1 active torsions:
REMARK  status: ('A' for Active; 'I' for Inactive)
REMARK    1  A    between atoms: C_3  and  C_5
REMARK                            x       y       z     vdW  Elec       q    Type
REMARK                         _______ _______ _______ _____ _____    ______ ____
ROOT
ATOM      1  C   UNL     1     -11.748  13.657  66.260  0.00  0.00    +0.060 A 
ATOM      2  C   UNL     1     -11.860  14.434  67.401  0.00  0.00    +0.025 A 
ATOM      3  C   UNL     1     -12.019  13.768  68.611  0.00  0.00    +0.099 A 
ATOM      4  N   UNL     1     -11.401  12.565  68.701  0.00  0.00    -0.242 NA
ATOM      5  C   UNL     1     -11.414  11.719  67.643  0.00  0.00    +0.099 A 
ATOM      6  C   UNL     1     -11.801  12.286  66.433  0.00  0.00    +0.025 A 
ENDROOT
BRANCH   1   9
ATOM      7  N   UNL     1     -11.649  16.475  63.916  0.00  0.00    +0.007 NA
ATOM      8  N   UNL     1     -12.198  15.247  64.337  0.00  0.00    -0.089 NA
ATOM      9  C   UNL     1     -11.399  14.231  64.952  0.00  0.00    +0.282 C 
ATOM     10  O   UNL     1     -10.162  14.321  64.716  0.00  0.00    -0.267 OA
ENDBRANCH   1   9
TORSDOF 1
ENDMDL
