MODEL 1
REMARK VINA RESULT:      -4.9      0.000      0.000
REMARK  Name = 
REMARK  3 active torsions:
REMARK  status: ('A' for Active; 'I' for Inactive)
REMARK    1  A    between atoms: C_2  and  O_4
REMARK    2  A    between atoms: O_4  and  C_5
REMARK    3  A    between atoms: C_10  and  C_11
REMARK                            x       y       z     vdW  Elec       q    Type
REMARK                         _______ _______ _______ _____ _____    ______ ____
ROOT
ATOM      1  C   UNL     1     -10.771  13.275  65.412  0.00  0.00    +0.155 A 
ATOM      2  C   UNL     1     -11.187  14.568  65.700  0.00  0.00    +0.114 A 
ATOM      3  C   UNL     1     -11.554  14.887  67.002  0.00  0.00    +0.010 A 
ATOM      4  C   UNL     1     -11.644  13.913  67.989  0.00  0.00    +0.000 A 
ATOM      5  C   UNL     1     -11.653  12.596  67.548  0.00  0.00    +0.003 A 
ATOM      6  C   UNL     1     -10.848  12.347  66.444  0.00  0.00    +0.038 A 
ENDROOT
BRANCH   2   7
ATOM      7  C   UNL     1     -11.533  15.483  64.611  0.00  0.00    +0.391 C 
ATOM      8  O   UNL     1     -12.696  15.223  63.897  0.00  0.00    -0.240 OA
ATOM      9  O   UNL     1     -10.895  16.575  64.516  0.00  0.00    -0.240 OA
ENDBRANCH   2   7
BRANCH   1  10
ATOM     10  O   UNL     1     -10.346  12.929  64.133  0.00  0.00    -0.424 OA
BRANCH  10  12
ATOM     11  C   UNL     1     -12.490  11.860  63.336  0.00  0.00    +0.122 C 
ATOM     12  C   UNL     1     -11.007  11.867  63.509  0.00  0.00    +0.322 C 
ATOM     13  O   UNL     1     -10.326  10.842  63.231  0.00  0.00    -0.250 OA
ENDBRANCH  10  12
ENDBRANCH   1  10
TORSDOF 3
ENDMDL
MODEL 2
REMARK VINA RESULT:      -4.8      3.646      5.344
REMARK  Name = 
REMARK  3 active torsions:
REMARK  status: ('A' for Active; 'I' for Inactive)
REMARK    1  A    between atoms: C_2  and  O_4
REMARK    2  A    between atoms: O_4  and  C_5
REMARK    3  A    between atoms: C_10  and  C_11
REMARK                            x       y       z     vdW  Elec       q    Type
REMARK                         _______ _______ _______ _____ _____    ______ ____
ROOT
ATOM      1  C   UNL     1      -9.922  17.751  66.351  0.00  0.00    +0.155 A 
ATOM      2  C   UNL     1      -9.572  17.515  67.673  0.00  0.00    +0.114 A 
ATOM      3  C   UNL     1      -9.767  18.519  68.614  0.00  0.00    +0.010 A 
ATOM      4  C   UNL     1     -10.177  19.793  68.241  0.00  0.00    +0.000 A 
ATOM      5  C   UNL     1     -10.081  20.093  66.888  0.00  0.00    +0.003 A 
ATOM      6  C   UNL     1     -10.359  19.032  66.036  0.00  0.00    +0.038 A 
ENDROOT
BRANCH   2   7
ATOM      7  C   UNL     1      -8.729  16.367  68.011  0.00  0.00    +0.391 C 
ATOM      8  O   UNL     1      -7.362  16.582  68.125  0.00  0.00    -0.240 OA
ATOM      9  O   UNL     1      -9.294  15.300  68.401  0.00  0.00    -0.240 OA
ENDBRANCH   2   7
BRANCH   1  10
ATOM     10  O   UNL     1      -9.791  16.754  65.388  0.00  0.00    -0.424 OA
BRANCH  10  12
ATOM     11  C   UNL     1     -11.399  14.815  65.569  0.00  0.00    +0.122 C 
ATOM     12  C   UNL     1     -10.963  16.113  64.973  0.00  0.00    +0.322 C 
ATOM     13  O   UNL     1     -11.563  16.591  63.971  0.00  0.00    -0.250 OA
ENDBRANCH  10  12
ENDBRANCH   1  10
TORSDOF 3
ENDMDL
MODEL 3
REMARK VINA RESULT:      -4.8      2.321      4.182
REMARK  Name = 
REMARK  3 active torsions:
REMARK  status: ('A' for Active; 'I' for Inactive)
REMARK    1  A    between atoms: C_2  and  O_4
REMARK    2  A    between atoms: O_4  and  C_5
REMARK    3  A    between atoms: C_10  and  C_11
REMARK                            x       y       z     vdW  Elec       q    Type
REMARK                         _______ _______ _______ _____ _____    ______ ____
ROOT
ATOM      1  C   UNL     1     -11.123  14.450  66.941  0.00  0.00    +0.155 A 
ATOM      2  C   UNL     1     -11.403  14.937  65.671  0.00  0.00    +0.114 A 
ATOM      3  C   UNL     1     -12.140  14.152  64.792  0.00  0.00    +0.010 A 
ATOM      4  C   UNL     1     -12.486  12.843  65.105  0.00  0.00    +0.000 A 
ATOM      5  C   UNL     1     -11.809  12.272  66.175  0.00  0.00    +0.003 A 
ATOM      6  C   UNL     1     -11.520  13.146  67.214  0.00  0.00    +0.038 A 
ENDROOT
BRANCH   2   7
ATOM      7  C   UNL     1     -10.679  16.101  65.160  0.00  0.00    +0.391 C 
ATOM      8  O   UNL     1      -9.320  16.188  65.439  0.00  0.00    -0.240 OA
ATOM      9  O   UNL     1     -11.257  16.846  64.312  0.00  0.00    -0.240 OA
ENDBRANCH   2   7
BRANCH   1  10
ATOM     10  O   UNL     1     -10.433  15.225  67.868  0.00  0.00    -0.424 OA
BRANCH  10  12
ATOM     11  C   UNL     1     -12.100  15.590  69.729  0.00  0.00    +0.122 C 
ATOM     12  C   UNL     1     -11.191  16.095  68.658  0.00  0.00    +0.322 C 
ATOM     13  O   UNL     1     -11.198  17.315  68.336  0.00  0.00    -0.250 OA
ENDBRANCH  10  12
ENDBRANCH   1  10
TORSDOF 3
ENDMDL
MODEL 4
REMARK VINA RESULT:      -4.7      2.506      3.760
REMARK  Name = 
REMARK  3 active torsions:
REMARK  status: ('A' for Active; 'I' for Inactive)
REMARK    1  A    between atoms: C_2  and  O_4
REMARK    2  A    between atoms: O_4  and  C_5
REMARK    3  A    between atoms: C_10  and  C_11
REMARK                            x       y       z     vdW  Elec       q    Type
REMARK                         _______ _______ _______ _____ _____    ______ ____
ROOT
ATOM      1  C   UNL     1     -10.420  15.966  66.775  0.00  0.00    +0.155 A 
ATOM      2  C   UNL     1      -9.974  17.170  67.303  0.00  0.00    +0.114 A 
ATOM      3  C   UNL     1     -10.145  17.419  68.660  0.00  0.00    +0.010 A 
ATOM      4  C   UNL     1     -10.868  16.552  69.470  0.00  0.00    +0.000 A 
ATOM      5  C   UNL     1     -11.654  15.615  68.813  0.00  0.00    +0.003 A 
ATOM      6  C   UNL     1     -11.107  15.119  67.636  0.00  0.00    +0.038 A 
ENDROOT
BRANCH   2   7
ATOM      7  C   UNL     1      -9.626  18.275  66.408  0.00  0.00    +0.391 C 
ATOM      8  O   UNL     1      -8.342  18.294  65.877  0.00  0.00    -0.240 OA
ATOM      9  O   UNL     1     -10.558  19.023  65.984  0.00  0.00    -0.240 OA
ENDBRANCH   2   7
BRANCH   1  10
ATOM     10  O   UNL     1     -10.221  15.657  65.432  0.00  0.00    -0.424 OA
BRANCH  10  12
ATOM     11  C   UNL     1     -12.128  14.348  64.420  0.00  0.00    +0.122 C 
ATOM     12  C   UNL     1     -11.356  15.610  64.617  0.00  0.00    +0.322 C 
ATOM     13  O   UNL     1     -11.620  16.636  63.930  0.00  0.00    -0.250 OA
ENDBRANCH  10  12
ENDBRANCH   1  10
TORSDOF 3
ENDMDL
MODEL 5
REMARK VINA RESULT:      -4.7      1.438      2.145
REMARK  Name = 
REMARK  3 active torsions:
REMARK  status: ('A' for Active; 'I' for Inactive)
REMARK    1  A    between atoms: C_2  and  O_4
REMARK    2  A    between atoms: O_4  and  C_5
REMARK    3  A    between atoms: C_10  and  C_11
REMARK                            x       y       z     vdW  Elec       q    Type
REMARK                         _______ _______ _______ _____ _____    ______ ____
ROOT
ATOM      1  C   UNL     1     -10.809  14.129  66.178  0.00  0.00    +0.155 A 
ATOM      2  C   UNL     1     -10.182  15.264  66.676  0.00  0.00    +0.114 A 
ATOM      3  C   UNL     1     -10.250  15.531  68.039  0.00  0.00    +0.010 A 
ATOM      4  C   UNL     1     -11.039  14.767  68.889  0.00  0.00    +0.000 A 
ATOM      5  C   UNL     1     -11.975  13.943  68.277  0.00  0.00    +0.003 A 
ATOM      6  C   UNL     1     -11.559  13.381  67.077  0.00  0.00    +0.038 A 
ENDROOT
BRANCH   2   7
ATOM      7  C   UNL     1      -9.735  16.313  65.759  0.00  0.00    +0.391 C 
ATOM      8  O   UNL     1     -10.708  17.001  65.044  0.00  0.00    -0.240 OA
ATOM      9  O   UNL     1      -8.528  16.697  65.824  0.00  0.00    -0.240 OA
ENDBRANCH   2   7
BRANCH   1  10
ATOM     10  O   UNL     1     -10.721  13.799  64.829  0.00  0.00    -0.424 OA
BRANCH  10  12
ATOM     11  C   UNL     1     -12.263  12.231  63.588  0.00  0.00    +0.122 C 
ATOM     12  C   UNL     1     -11.922  13.571  64.150  0.00  0.00    +0.322 C 
ATOM     13  O   UNL     1     -12.644  14.575  63.895  0.00  0.00    -0.250 OA
ENDBRANCH  10  12
ENDBRANCH   1  10
TORSDOF 3
ENDMDL
MODEL 6
REMARK VINA RESULT:      -4.7      1.215      3.456
REMARK  Name = 
REMARK  3 active torsions:
REMARK  status: ('A' for Active; 'I' for Inactive)
REMARK    1  A    between atoms: C_2  and  O_4
REMARK    2  A    between atoms: O_4  and  C_5
REMARK    3  A    between atoms: C_10  and  C_11
REMARK                            x       y       z     vdW  Elec       q    Type
REMARK                         _______ _______ _______ _____ _____    ______ ____
ROOT
ATOM      1  C   UNL     1     -11.961  13.923  66.074  0.00  0.00    +0.155 A 
ATOM      2  C   UNL     1     -11.822  12.608  65.651  0.00  0.00    +0.114 A 
ATOM      3  C   UNL     1     -11.654  11.606  66.601  0.00  0.00    +0.010 A 
ATOM      4  C   UNL     1     -11.490  11.904  67.948  0.00  0.00    +0.000 A 
ATOM      5  C   UNL     1     -11.194  13.228  68.248  0.00  0.00    +0.003 A 
ATOM      6  C   UNL     1     -11.822  14.163  67.435  0.00  0.00    +0.038 A 
ENDROOT
BRANCH   2   7
ATOM      7  C   UNL     1     -11.539  12.319  64.244  0.00  0.00    +0.391 C 
ATOM      8  O   UNL     1     -12.622  12.177  63.386  0.00  0.00    -0.240 OA
ATOM      9  O   UNL     1     -10.344  12.434  63.834  0.00  0.00    -0.240 OA
ENDBRANCH   2   7
BRANCH   1  10
ATOM     10  O   UNL     1     -12.183  14.948  65.158  0.00  0.00    -0.424 OA
BRANCH  10  12
ATOM     11  C   UNL     1      -9.768  15.596  65.514  0.00  0.00    +0.122 C 
ATOM     12  C   UNL     1     -11.106  15.797  64.883  0.00  0.00    +0.322 C 
ATOM     13  O   UNL     1     -11.343  16.831  64.199  0.00  0.00    -0.250 OA
ENDBRANCH  10  12
ENDBRANCH   1  10
TORSDOF 3
ENDMDL
MODEL 7
REMARK VINA RESULT:      -4.7      1.939      4.202
REMARK  Name = 
REMARK  3 active torsions:
REMARK  status: ('A' for Active; 'I' for Inactive)
REMARK    1  A    between atoms: C_2  and  O_4
REMARK    2  A    between atoms: O_4  and  C_5
REMARK    3  A    between atoms: C_10  and  C_11
REMARK                            x       y       z     vdW  Elec       q    Type
REMARK                         _______ _______ _______ _____ _____    ______ ____
ROOT
ATOM      1  C   UNL     1     -11.362  13.400  64.970  0.00  0.00    +0.155 A 
ATOM      2  C   UNL     1     -10.839  12.502  65.890  0.00  0.00    +0.114 A 
ATOM      3  C   UNL     1     -10.372  11.271  65.444  0.00  0.00    +0.010 A 
ATOM      4  C   UNL     1     -10.539  10.867  64.125  0.00  0.00    +0.000 A 
ATOM      5  C   UNL     1     -11.448  11.600  63.372  0.00  0.00    +0.003 A 
ATOM      6  C   UNL     1     -11.476  12.959  63.657  0.00  0.00    +0.038 A 
ENDROOT
BRANCH   2   7
ATOM      7  C   UNL     1     -11.063  12.709  67.322  0.00  0.00    +0.391 C 
ATOM      8  O   UNL     1     -12.092  11.995  67.923  0.00  0.00    -0.240 OA
ATOM      9  O   UNL     1     -10.185  13.342  67.983  0.00  0.00    -0.240 OA
ENDBRANCH   2   7
BRANCH   1  10
ATOM     10  O   UNL     1     -11.791  14.663  65.369  0.00  0.00    -0.424 OA
BRANCH  10  12
ATOM     11  C   UNL     1      -9.722  16.042  65.809  0.00  0.00    +0.122 C 
ATOM     12  C   UNL     1     -10.970  15.746  65.043  0.00  0.00    +0.322 C 
ATOM     13  O   UNL     1     -11.396  16.558  64.176  0.00  0.00    -0.250 OA
ENDBRANCH  10  12
ENDBRANCH   1  10
TORSDOF 3
ENDMDL
MODEL 8
REMARK VINA RESULT:      -4.6      3.947      5.384
REMARK  Name = 
REMARK  3 active torsions:
REMARK  status: ('A' for Active; 'I' for Inactive)
REMARK    1  A    between atoms: C_2  and  O_4
REMARK    2  A    between atoms: O_4  and  C_5
REMARK    3  A    between atoms: C_10  and  C_11
REMARK                            x       y       z     vdW  Elec       q    Type
REMARK                         _______ _______ _______ _____ _____    ______ ____
ROOT
ATOM      1  C   UNL     1      -9.328  17.431  66.473  0.00  0.00    +0.155 A 
ATOM      2  C   UNL     1      -8.074  17.870  66.876  0.00  0.00    +0.114 A 
ATOM      3  C   UNL     1      -7.978  18.764  67.936  0.00  0.00    +0.010 A 
ATOM      4  C   UNL     1      -9.109  19.330  68.511  0.00  0.00    +0.000 A 
ATOM      5  C   UNL     1     -10.290  19.204  67.790  0.00  0.00    +0.003 A 
ATOM      6  C   UNL     1     -10.426  18.004  67.104  0.00  0.00    +0.038 A 
ENDROOT
BRANCH   2   7
ATOM      7  C   UNL     1      -6.913  17.651  66.013  0.00  0.00    +0.391 C 
ATOM      8  O   UNL     1      -6.703  18.550  64.974  0.00  0.00    -0.240 OA
ATOM      9  O   UNL     1      -6.041  16.806  66.379  0.00  0.00    -0.240 OA
ENDBRANCH   2   7
BRANCH   1  10
ATOM     10  O   UNL     1      -9.464  16.496  65.451  0.00  0.00    -0.424 OA
BRANCH  10  12
ATOM     11  C   UNL     1     -11.364  14.855  65.720  0.00  0.00    +0.122 C 
ATOM     12  C   UNL     1     -10.763  16.088  65.131  0.00  0.00    +0.322 C 
ATOM     13  O   UNL     1     -11.358  16.713  64.210  0.00  0.00    -0.250 OA
ENDBRANCH  10  12
ENDBRANCH   1  10
TORSDOF 3
ENDMDL
MODEL 9
REMARK VINA RESULT:      -4.6      3.900      5.926
REMARK  Name = 
REMARK  3 active torsions:
REMARK  status: ('A' for Active; 'I' for Inactive)
REMARK    1  A    between atoms: C_2  and  O_4
REMARK    2  A    between atoms: O_4  and  C_5
REMARK    3  A    between atoms: C_10  and  C_11
REMARK                            x       y       z     vdW  Elec       q    Type
REMARK                         _______ _______ _______ _____ _____    ______ ____
ROOT
ATOM      1  C   UNL     1     -10.400  17.880  67.743  0.00  0.00    +0.155 A 
ATOM      2  C   UNL     1      -9.733  17.572  66.565  0.00  0.00    +0.114 A 
ATOM      3  C   UNL     1      -8.698  18.397  66.138  0.00  0.00    +0.010 A 
ATOM      4  C   UNL     1      -8.407  19.590  66.787  0.00  0.00    +0.000 A 
ATOM      5  C   UNL     1      -9.375  20.058  67.667  0.00  0.00    +0.003 A 
ATOM      6  C   UNL     1     -10.048  19.069  68.372  0.00  0.00    +0.038 A 
ENDROOT
BRANCH   2   7
ATOM      7  C   UNL     1     -10.304  16.596  65.637  0.00  0.00    +0.391 C 
ATOM      8  O   UNL     1     -11.085  17.079  64.594  0.00  0.00    -0.240 OA
ATOM      9  O   UNL     1      -9.886  15.400  65.687  0.00  0.00    -0.240 OA
ENDBRANCH   2   7
BRANCH   1  10
ATOM     10  O   UNL     1     -11.406  17.052  68.233  0.00  0.00    -0.424 OA
BRANCH  10  12
ATOM     11  C   UNL     1      -9.838  15.536  69.504  0.00  0.00    +0.122 C 
ATOM     12  C   UNL     1     -11.112  16.303  69.376  0.00  0.00    +0.322 C 
ATOM     13  O   UNL     1     -12.027  16.171  70.235  0.00  0.00    -0.250 OA
ENDBRANCH  10  12
ENDBRANCH   1  10
TORSDOF 3
ENDMDL
