MODEL 1
REMARK VINA RESULT:      -6.7      0.000      0.000
REMARK  Name = 
REMARK  3 active torsions:
REMARK  status: ('A' for Active; 'I' for Inactive)
REMARK    1  A    between atoms: C_5  and  S_6
REMARK    2  A    between atoms: S_6  and  C_7
REMARK    3  A    between atoms: C_12  and  N_13
REMARK                            x       y       z     vdW  Elec       q    Type
REMARK                         _______ _______ _______ _____ _____    ______ ____
ROOT
ATOM      1  C   UNL     1     -12.040  12.737  69.929  0.00  0.00    +0.043 A 
ATOM      2  C   UNL     1     -12.397  13.091  71.224  0.00  0.00    +0.054 A 
ATOM      3  C   UNL     1     -13.164  12.186  71.949  0.00  0.00    +0.015 A 
ATOM      4  C   UNL     1     -13.121  10.860  71.566  0.00  0.00    +0.001 A 
ATOM      5  C   UNL     1     -12.210  10.462  70.595  0.00  0.00    +0.001 A 
ATOM      6  C   UNL     1     -11.884  11.392  69.617  0.00  0.00    +0.008 A 
ENDROOT
BRANCH   2   7
ATOM      7  N   UNL     1     -12.711  14.477  71.409  0.00  0.00    -0.304 N 
ATOM      8  C   UNL     1     -11.717  15.475  71.710  0.00  0.00    +0.110 C 
ATOM      9  C   UNL     1     -12.055  16.245  72.959  0.00  0.00    +0.110 C 
ATOM     10  N   UNL     1     -13.361  15.953  73.482  0.00  0.00    -0.214 NA
ATOM     11  C   UNL     1     -14.392  15.885  72.479  0.00  0.00    +0.110 C 
ATOM     12  C   UNL     1     -14.120  14.839  71.425  0.00  0.00    +0.110 C 
ENDBRANCH   2   7
BRANCH   1  13
ATOM     13  S   UNL     1     -11.807  13.982  68.655  0.00  0.00    -0.086 S 
BRANCH  13  19
ATOM     14  C   UNL     1     -10.335  11.763  63.284  0.00  0.00    +0.031 C 
ATOM     15  C   UNL     1     -10.699  12.305  64.625  0.00  0.00    -0.022 A 
ATOM     16  C   UNL     1      -9.805  12.301  65.658  0.00  0.00    -0.008 A 
ATOM     17  C   UNL     1     -10.101  13.024  66.784  0.00  0.00    -0.016 A 
ATOM     18  C   UNL     1      -9.099  13.048  67.891  0.00  0.00    +0.032 C 
ATOM     19  C   UNL     1     -11.441  13.109  67.128  0.00  0.00    +0.026 A 
ATOM     20  C   UNL     1     -12.364  13.175  66.091  0.00  0.00    +0.006 A 
ATOM     21  C   UNL     1     -12.037  12.475  64.950  0.00  0.00    -0.004 A 
ENDBRANCH  13  19
ENDBRANCH   1  13
TORSDOF 3
ENDMDL
MODEL 2
REMARK VINA RESULT:      -6.7      3.246      6.615
REMARK  Name = 
REMARK  3 active torsions:
REMARK  status: ('A' for Active; 'I' for Inactive)
REMARK    1  A    between atoms: C_5  and  S_6
REMARK    2  A    between atoms: S_6  and  C_7
REMARK    3  A    between atoms: C_12  and  N_13
REMARK                            x       y       z     vdW  Elec       q    Type
REMARK                         _______ _______ _______ _____ _____    ______ ____
ROOT
ATOM      1  C   UNL     1     -11.047  14.339  67.008  0.00  0.00    +0.043 A 
ATOM      2  C   UNL     1     -10.839  15.548  66.356  0.00  0.00    +0.054 A 
ATOM      3  C   UNL     1     -11.056  15.584  64.984  0.00  0.00    +0.015 A 
ATOM      4  C   UNL     1     -11.889  14.625  64.443  0.00  0.00    +0.001 A 
ATOM      5  C   UNL     1     -12.591  13.777  65.290  0.00  0.00    +0.001 A 
ATOM      6  C   UNL     1     -11.988  13.452  66.499  0.00  0.00    +0.008 A 
ENDROOT
BRANCH   2   7
ATOM      7  N   UNL     1      -9.730  16.316  66.842  0.00  0.00    -0.304 N 
ATOM      8  C   UNL     1      -9.884  17.570  67.533  0.00  0.00    +0.110 C 
ATOM      9  C   UNL     1      -9.093  18.671  66.878  0.00  0.00    +0.110 C 
ATOM     10  N   UNL     1      -8.225  18.214  65.828  0.00  0.00    -0.214 NA
ATOM     11  C   UNL     1      -7.497  17.015  66.150  0.00  0.00    +0.110 C 
ATOM     12  C   UNL     1      -8.399  15.850  66.484  0.00  0.00    +0.110 C 
ENDBRANCH   2   7
BRANCH   1  13
ATOM     13  S   UNL     1     -10.103  13.896  68.471  0.00  0.00    -0.086 S 
BRANCH  13  19
ATOM     14  C   UNL     1     -13.955  15.637  72.722  0.00  0.00    +0.031 C 
ATOM     15  C   UNL     1     -12.991  15.197  71.671  0.00  0.00    -0.022 A 
ATOM     16  C   UNL     1     -12.823  13.875  71.371  0.00  0.00    -0.008 A 
ATOM     17  C   UNL     1     -12.117  13.543  70.245  0.00  0.00    -0.016 A 
ATOM     18  C   UNL     1     -11.975  12.096  69.902  0.00  0.00    +0.032 C 
ATOM     19  C   UNL     1     -11.078  14.391  69.895  0.00  0.00    +0.026 A 
ATOM     20  C   UNL     1     -11.253  15.749  70.138  0.00  0.00    +0.006 A 
ATOM     21  C   UNL     1     -11.998  16.070  71.252  0.00  0.00    -0.004 A 
ENDBRANCH  13  19
ENDBRANCH   1  13
TORSDOF 3
ENDMDL
MODEL 3
REMARK VINA RESULT:      -6.7      2.879      6.107
REMARK  Name = 
REMARK  3 active torsions:
REMARK  status: ('A' for Active; 'I' for Inactive)
REMARK    1  A    between atoms: C_5  and  S_6
REMARK    2  A    between atoms: S_6  and  C_7
REMARK    3  A    between atoms: C_12  and  N_13
REMARK                            x       y       z     vdW  Elec       q    Type
REMARK                         _______ _______ _______ _____ _____    ______ ____
ROOT
ATOM      1  C   UNL     1     -11.256  13.571  66.839  0.00  0.00    +0.043 A 
ATOM      2  C   UNL     1     -11.195  14.822  66.238  0.00  0.00    +0.054 A 
ATOM      3  C   UNL     1     -11.320  14.877  64.855  0.00  0.00    +0.015 A 
ATOM      4  C   UNL     1     -11.954  13.823  64.228  0.00  0.00    +0.001 A 
ATOM      5  C   UNL     1     -12.572  12.845  64.997  0.00  0.00    +0.001 A 
ATOM      6  C   UNL     1     -12.010  12.570  66.238  0.00  0.00    +0.008 A 
ENDROOT
BRANCH   2   7
ATOM      7  N   UNL     1     -10.256  15.732  66.825  0.00  0.00    -0.304 N 
ATOM      8  C   UNL     1     -10.636  16.765  67.754  0.00  0.00    +0.110 C 
ATOM      9  C   UNL     1     -10.174  18.124  67.300  0.00  0.00    +0.110 C 
ATOM     10  N   UNL     1      -9.313  18.089  66.150  0.00  0.00    -0.214 NA
ATOM     11  C   UNL     1      -8.306  17.062  66.205  0.00  0.00    +0.110 C 
ATOM     12  C   UNL     1      -8.887  15.673  66.336  0.00  0.00    +0.110 C 
ENDBRANCH   2   7
BRANCH   1  13
ATOM     13  S   UNL     1     -10.357  13.222  68.355  0.00  0.00    -0.086 S 
BRANCH  13  19
ATOM     14  C   UNL     1     -13.180   9.498  72.109  0.00  0.00    +0.031 C 
ATOM     15  C   UNL     1     -12.488  10.427  71.170  0.00  0.00    -0.022 A 
ATOM     16  C   UNL     1     -12.846  11.743  71.080  0.00  0.00    -0.008 A 
ATOM     17  C   UNL     1     -12.028  12.599  70.391  0.00  0.00    -0.016 A 
ATOM     18  C   UNL     1     -12.406  14.043  70.334  0.00  0.00    +0.032 C 
ATOM     19  C   UNL     1     -11.354  12.068  69.303  0.00  0.00    +0.026 A 
ATOM     20  C   UNL     1     -10.928  10.748  69.398  0.00  0.00    +0.006 A 
ATOM     21  C   UNL     1     -11.739   9.905  70.126  0.00  0.00    -0.004 A 
ENDBRANCH  13  19
ENDBRANCH   1  13
TORSDOF 3
ENDMDL
MODEL 4
REMARK VINA RESULT:      -6.3      4.393      6.987
REMARK  Name = 
REMARK  3 active torsions:
REMARK  status: ('A' for Active; 'I' for Inactive)
REMARK    1  A    between atoms: C_5  and  S_6
REMARK    2  A    between atoms: S_6  and  C_7
REMARK    3  A    between atoms: C_12  and  N_13
REMARK                            x       y       z     vdW  Elec       q    Type
REMARK                         _______ _______ _______ _____ _____    ______ ____
ROOT
ATOM      1  C   UNL     1     -11.164  15.530  67.629  0.00  0.00    +0.043 A 
ATOM      2  C   UNL     1     -11.660  14.325  67.148  0.00  0.00    +0.054 A 
ATOM      3  C   UNL     1     -11.834  13.292  68.061  0.00  0.00    +0.015 A 
ATOM      4  C   UNL     1     -11.971  13.632  69.392  0.00  0.00    +0.001 A 
ATOM      5  C   UNL     1     -12.090  14.970  69.745  0.00  0.00    +0.001 A 
ATOM      6  C   UNL     1     -11.432  15.894  68.943  0.00  0.00    +0.008 A 
ENDROOT
BRANCH   2   7
ATOM      7  N   UNL     1     -11.186  13.949  65.848  0.00  0.00    -0.304 N 
ATOM      8  C   UNL     1     -11.883  14.277  64.631  0.00  0.00    +0.110 C 
ATOM      9  C   UNL     1     -12.166  13.054  63.801  0.00  0.00    +0.110 C 
ATOM     10  N   UNL     1     -11.540  11.860  64.298  0.00  0.00    -0.214 NA
ATOM     11  C   UNL     1     -10.173  12.044  64.710  0.00  0.00    +0.110 C 
ATOM     12  C   UNL     1     -10.020  13.080  65.798  0.00  0.00    +0.110 C 
ENDBRANCH   2   7
BRANCH   1  13
ATOM     13  S   UNL     1     -10.162  16.604  66.593  0.00  0.00    -0.086 S 
BRANCH  13  19
ATOM     14  C   UNL     1      -6.221  19.981  69.592  0.00  0.00    +0.031 C 
ATOM     15  C   UNL     1      -7.209  19.142  68.854  0.00  0.00    -0.022 A 
ATOM     16  C   UNL     1      -8.446  19.623  68.530  0.00  0.00    -0.008 A 
ATOM     17  C   UNL     1      -9.216  18.910  67.649  0.00  0.00    -0.016 A 
ATOM     18  C   UNL     1     -10.550  19.465  67.267  0.00  0.00    +0.032 C 
ATOM     19  C   UNL     1      -9.082  17.531  67.687  0.00  0.00    +0.026 A 
ATOM     20  C   UNL     1      -7.817  17.020  67.957  0.00  0.00    +0.006 A 
ATOM     21  C   UNL     1      -7.037  17.767  68.814  0.00  0.00    -0.004 A 
ENDBRANCH  13  19
ENDBRANCH   1  13
TORSDOF 3
ENDMDL
MODEL 5
REMARK VINA RESULT:      -6.2      2.572      5.886
REMARK  Name = 
REMARK  3 active torsions:
REMARK  status: ('A' for Active; 'I' for Inactive)
REMARK    1  A    between atoms: C_5  and  S_6
REMARK    2  A    between atoms: S_6  and  C_7
REMARK    3  A    between atoms: C_12  and  N_13
REMARK                            x       y       z     vdW  Elec       q    Type
REMARK                         _______ _______ _______ _____ _____    ______ ____
ROOT
ATOM      1  C   UNL     1     -11.906  13.124  69.890  0.00  0.00    +0.043 A 
ATOM      2  C   UNL     1     -11.381  14.215  69.207  0.00  0.00    +0.054 A 
ATOM      3  C   UNL     1     -11.972  15.454  69.425  0.00  0.00    +0.015 A 
ATOM      4  C   UNL     1     -12.677  15.628  70.600  0.00  0.00    +0.001 A 
ATOM      5  C   UNL     1     -12.635  14.637  71.572  0.00  0.00    +0.001 A 
ATOM      6  C   UNL     1     -12.497  13.327  71.131  0.00  0.00    +0.008 A 
ENDROOT
BRANCH   2   7
ATOM      7  N   UNL     1     -10.957  13.943  67.865  0.00  0.00    -0.304 N 
ATOM      8  C   UNL     1      -9.582  13.712  67.506  0.00  0.00    +0.110 C 
ATOM      9  C   UNL     1      -9.123  14.644  66.416  0.00  0.00    +0.110 C 
ATOM     10  N   UNL     1     -10.181  15.433  65.847  0.00  0.00    -0.214 NA
ATOM     11  C   UNL     1     -11.387  14.692  65.583  0.00  0.00    +0.110 C 
ATOM     12  C   UNL     1     -11.965  14.048  66.821  0.00  0.00    +0.110 C 
ENDBRANCH   2   7
BRANCH   1  13
ATOM     13  S   UNL     1     -11.856  11.473  69.184  0.00  0.00    -0.086 S 
BRANCH  13  19
ATOM     14  C   UNL     1     -10.806   7.104  73.152  0.00  0.00    +0.031 C 
ATOM     15  C   UNL     1     -11.060   8.197  72.170  0.00  0.00    -0.022 A 
ATOM     16  C   UNL     1     -10.040   8.766  71.462  0.00  0.00    -0.008 A 
ATOM     17  C   UNL     1     -10.350   9.586  70.408  0.00  0.00    -0.016 A 
ATOM     18  C   UNL     1      -9.228  10.170  69.613  0.00  0.00    +0.032 C 
ATOM     19  C   UNL     1     -11.509  10.336  70.530  0.00  0.00    +0.026 A 
ATOM     20  C   UNL     1     -12.581   9.752  71.196  0.00  0.00    +0.006 A 
ATOM     21  C   UNL     1     -12.255   8.899  72.229  0.00  0.00    -0.004 A 
ENDBRANCH  13  19
ENDBRANCH   1  13
TORSDOF 3
ENDMDL
MODEL 6
REMARK VINA RESULT:      -6.1      3.188      6.930
REMARK  Name = 
REMARK  3 active torsions:
REMARK  status: ('A' for Active; 'I' for Inactive)
REMARK    1  A    between atoms: C_5  and  S_6
REMARK    2  A    between atoms: S_6  and  C_7
REMARK    3  A    between atoms: C_12  and  N_13
REMARK                            x       y       z     vdW  Elec       q    Type
REMARK                         _______ _______ _______ _____ _____    ______ ____
ROOT
ATOM      1  C   UNL     1      -9.473  15.769  67.424  0.00  0.00    +0.043 A 
ATOM      2  C   UNL     1     -10.072  15.672  66.174  0.00  0.00    +0.054 A 
ATOM      3  C   UNL     1     -10.660  16.818  65.653  0.00  0.00    +0.015 A 
ATOM      4  C   UNL     1     -10.221  18.036  66.134  0.00  0.00    +0.001 A 
ATOM      5  C   UNL     1      -9.123  18.078  66.983  0.00  0.00    +0.001 A 
ATOM      6  C   UNL     1      -8.932  16.986  67.820  0.00  0.00    +0.008 A 
ENDROOT
BRANCH   2   7
ATOM      7  N   UNL     1     -10.759  14.439  65.925  0.00  0.00    -0.304 N 
ATOM      8  C   UNL     1     -10.156  13.327  65.235  0.00  0.00    +0.110 C 
ATOM      9  C   UNL     1     -10.981  12.887  64.055  0.00  0.00    +0.110 C 
ATOM     10  N   UNL     1     -12.260  13.535  63.969  0.00  0.00    -0.214 NA
ATOM     11  C   UNL     1     -12.954  13.632  65.227  0.00  0.00    +0.110 C 
ATOM     12  C   UNL     1     -12.171  14.389  66.274  0.00  0.00    +0.110 C 
ENDBRANCH   2   7
BRANCH   1  13
ATOM     13  S   UNL     1      -9.416  14.362  68.540  0.00  0.00    -0.086 S 
BRANCH  13  19
ATOM     14  C   UNL     1     -14.234  15.306  71.979  0.00  0.00    +0.031 C 
ATOM     15  C   UNL     1     -13.031  15.064  71.131  0.00  0.00    -0.022 A 
ATOM     16  C   UNL     1     -12.717  13.810  70.688  0.00  0.00    -0.008 A 
ATOM     17  C   UNL     1     -11.754  13.679  69.722  0.00  0.00    -0.016 A 
ATOM     18  C   UNL     1     -11.446  12.309  69.214  0.00  0.00    +0.032 C 
ATOM     19  C   UNL     1     -10.718  14.600  69.754  0.00  0.00    +0.026 A 
ATOM     20  C   UNL     1     -11.029  15.898  70.145  0.00  0.00    +0.006 A 
ATOM     21  C   UNL     1     -12.026  16.019  71.088  0.00  0.00    -0.004 A 
ENDBRANCH  13  19
ENDBRANCH   1  13
TORSDOF 3
ENDMDL
MODEL 7
REMARK VINA RESULT:      -6.1      3.868      5.544
REMARK  Name = 
REMARK  3 active torsions:
REMARK  status: ('A' for Active; 'I' for Inactive)
REMARK    1  A    between atoms: C_5  and  S_6
REMARK    2  A    between atoms: S_6  and  C_7
REMARK    3  A    between atoms: C_12  and  N_13
REMARK                            x       y       z     vdW  Elec       q    Type
REMARK                         _______ _______ _______ _____ _____    ______ ____
ROOT
ATOM      1  C   UNL     1      -9.154  15.497  67.627  0.00  0.00    +0.043 A 
ATOM      2  C   UNL     1      -8.708  16.754  67.238  0.00  0.00    +0.054 A 
ATOM      3  C   UNL     1      -7.406  17.106  67.575  0.00  0.00    +0.015 A 
ATOM      4  C   UNL     1      -6.511  16.083  67.822  0.00  0.00    +0.001 A 
ATOM      5  C   UNL     1      -6.892  14.771  67.575  0.00  0.00    +0.001 A 
ATOM      6  C   UNL     1      -8.235  14.461  67.743  0.00  0.00    +0.008 A 
ENDROOT
BRANCH   2   7
ATOM      7  N   UNL     1      -9.687  17.797  67.319  0.00  0.00    -0.304 N 
ATOM      8  C   UNL     1     -10.398  18.300  66.172  0.00  0.00    +0.110 C 
ATOM      9  C   UNL     1     -10.253  19.792  66.033  0.00  0.00    +0.110 C 
ATOM     10  N   UNL     1      -9.598  20.417  67.149  0.00  0.00    -0.214 NA
ATOM     11  C   UNL     1     -10.045  19.940  68.432  0.00  0.00    +0.110 C 
ATOM     12  C   UNL     1      -9.847  18.452  68.609  0.00  0.00    +0.110 C 
ENDBRANCH   2   7
BRANCH   1  13
ATOM     13  S   UNL     1     -10.885  15.201  68.008  0.00  0.00    -0.086 S 
BRANCH  13  19
ATOM     14  C   UNL     1     -12.456  11.896  63.259  0.00  0.00    +0.031 C 
ATOM     15  C   UNL     1     -12.075  12.716  64.445  0.00  0.00    -0.022 A 
ATOM     16  C   UNL     1     -12.078  12.187  65.705  0.00  0.00    -0.008 A 
ATOM     17  C   UNL     1     -11.492  12.900  66.717  0.00  0.00    -0.016 A 
ATOM     18  C   UNL     1     -11.462  12.294  68.082  0.00  0.00    +0.032 C 
ATOM     19  C   UNL     1     -11.576  14.280  66.629  0.00  0.00    +0.026 A 
ATOM     20  C   UNL     1     -11.515  14.844  65.360  0.00  0.00    +0.006 A 
ATOM     21  C   UNL     1     -12.074  14.100  64.343  0.00  0.00    -0.004 A 
ENDBRANCH  13  19
ENDBRANCH   1  13
TORSDOF 3
ENDMDL
MODEL 8
REMARK VINA RESULT:      -6.0      2.671      6.620
REMARK  Name = 
REMARK  3 active torsions:
REMARK  status: ('A' for Active; 'I' for Inactive)
REMARK    1  A    between atoms: C_5  and  S_6
REMARK    2  A    between atoms: S_6  and  C_7
REMARK    3  A    between atoms: C_12  and  N_13
REMARK                            x       y       z     vdW  Elec       q    Type
REMARK                         _______ _______ _______ _____ _____    ______ ____
ROOT
ATOM      1  C   UNL     1     -11.750  12.523  68.276  0.00  0.00    +0.043 A 
ATOM      2  C   UNL     1     -11.641  11.672  67.183  0.00  0.00    +0.054 A 
ATOM      3  C   UNL     1     -10.934  10.488  67.360  0.00  0.00    +0.015 A 
ATOM      4  C   UNL     1     -10.807  10.005  68.648  0.00  0.00    +0.001 A 
ATOM      5  C   UNL     1     -11.510  10.618  69.677  0.00  0.00    +0.001 A 
ATOM      6  C   UNL     1     -11.744  11.981  69.556  0.00  0.00    +0.008 A 
ENDROOT
BRANCH   2   7
ATOM      7  N   UNL     1     -11.474  12.326  65.919  0.00  0.00    -0.304 N 
ATOM      8  C   UNL     1     -12.580  12.713  65.082  0.00  0.00    +0.110 C 
ATOM      9  C   UNL     1     -12.457  12.144  63.693  0.00  0.00    +0.110 C 
ATOM     10  N   UNL     1     -11.199  11.495  63.443  0.00  0.00    -0.214 NA
ATOM     11  C   UNL     1     -10.058  12.222  63.935  0.00  0.00    +0.110 C 
ATOM     12  C   UNL     1     -10.113  12.467  65.424  0.00  0.00    +0.110 C 
ENDBRANCH   2   7
BRANCH   1  13
ATOM     13  S   UNL     1     -11.870  14.302  68.060  0.00  0.00    -0.086 S 
BRANCH  13  19
ATOM     14  C   UNL     1     -12.636  15.991  73.761  0.00  0.00    +0.031 C 
ATOM     15  C   UNL     1     -12.444  15.582  72.340  0.00  0.00    -0.022 A 
ATOM     16  C   UNL     1     -11.299  15.891  71.661  0.00  0.00    -0.008 A 
ATOM     17  C   UNL     1     -11.071  15.288  70.452  0.00  0.00    -0.016 A 
ATOM     18  C   UNL     1      -9.797  15.599  69.737  0.00  0.00    +0.032 C 
ATOM     19  C   UNL     1     -12.188  15.008  69.681  0.00  0.00    +0.026 A 
ATOM     20  C   UNL     1     -13.348  14.633  70.350  0.00  0.00    +0.006 A 
ATOM     21  C   UNL     1     -13.547  15.217  71.582  0.00  0.00    -0.004 A 
ENDBRANCH  13  19
ENDBRANCH   1  13
TORSDOF 3
ENDMDL
MODEL 9
REMARK VINA RESULT:      -5.9      2.894      6.852
REMARK  Name = 
REMARK  3 active torsions:
REMARK  status: ('A' for Active; 'I' for Inactive)
REMARK    1  A    between atoms: C_5  and  S_6
REMARK    2  A    between atoms: S_6  and  C_7
REMARK    3  A    between atoms: C_12  and  N_13
REMARK                            x       y       z     vdW  Elec       q    Type
REMARK                         _______ _______ _______ _____ _____    ______ ____
ROOT
ATOM      1  C   UNL     1     -10.617  13.657  66.567  0.00  0.00    +0.043 A 
ATOM      2  C   UNL     1     -10.552  12.449  65.884  0.00  0.00    +0.054 A 
ATOM      3  C   UNL     1     -11.599  12.142  65.021  0.00  0.00    +0.015 A 
ATOM      4  C   UNL     1     -12.354  13.191  64.534  0.00  0.00    +0.001 A 
ATOM      5  C   UNL     1     -11.951  14.496  64.788  0.00  0.00    +0.001 A 
ATOM      6  C   UNL     1     -11.282  14.728  65.983  0.00  0.00    +0.008 A 
ENDROOT
BRANCH   2   7
ATOM      7  N   UNL     1     -10.009  11.355  66.634  0.00  0.00    -0.304 N 
ATOM      8  C   UNL     1      -8.633  10.941  66.536  0.00  0.00    +0.110 C 
ATOM      9  C   UNL     1      -8.511   9.481  66.190  0.00  0.00    +0.110 C 
ATOM     10  N   UNL     1      -9.763   8.776  66.205  0.00  0.00    -0.214 NA
ATOM     11  C   UNL     1     -10.600   9.093  67.333  0.00  0.00    +0.110 C 
ATOM     12  C   UNL     1     -10.946  10.562  67.415  0.00  0.00    +0.110 C 
ENDBRANCH   2   7
BRANCH   1  13
ATOM     13  S   UNL     1      -9.884  13.843  68.197  0.00  0.00    -0.086 S 
BRANCH  13  19
ATOM     14  C   UNL     1     -13.752  15.410  72.501  0.00  0.00    +0.031 C 
ATOM     15  C   UNL     1     -12.795  15.027  71.423  0.00  0.00    -0.022 A 
ATOM     16  C   UNL     1     -12.115  15.972  70.708  0.00  0.00    -0.008 A 
ATOM     17  C   UNL     1     -11.079  15.568  69.907  0.00  0.00    -0.016 A 
ATOM     18  C   UNL     1     -10.315  16.613  69.162  0.00  0.00    +0.032 C 
ATOM     19  C   UNL     1     -11.205  14.321  69.316  0.00  0.00    +0.026 A 
ATOM     20  C   UNL     1     -11.841  13.327  70.052  0.00  0.00    +0.006 A 
ATOM     21  C   UNL     1     -12.856  13.750  70.882  0.00  0.00    -0.004 A 
ENDBRANCH  13  19
ENDBRANCH   1  13
TORSDOF 3
ENDMDL
