MODEL 1
REMARK VINA RESULT:      -7.3      0.000      0.000
REMARK  Name = 
REMARK  14 active torsions:
REMARK  status: ('A' for Active; 'I' for Inactive)
REMARK    1  A    between atoms: C_2  and  C_4
REMARK    2  A    between atoms: C_4  and  N_5
REMARK    3  A    between atoms: N_5  and  C_6
REMARK    4  A    between atoms: N_5  and  S_30
REMARK    5  A    between atoms: C_6  and  C_7
REMARK    6  A    between atoms: C_7  and  O_8
REMARK    7  A    between atoms: C_7  and  C_13
REMARK    8  A    between atoms: O_8  and  P_9
REMARK    9  A    between atoms: C_13  and  C_14
REMARK   10  A    between atoms: C_13  and  N_21
REMARK   11  A    between atoms: C_14  and  C_15
REMARK   12  A    between atoms: C_22  and  O_24
REMARK   13  A    between atoms: O_24  and  C_25
REMARK   14  A    between atoms: S_30  and  C_33
REMARK                            x       y       z     vdW  Elec       q    Type
REMARK                         _______ _______ _______ _____ _____    ______ ____
ROOT
ATOM      1  C   UNL     1     -10.543  14.516  67.464  0.00  0.00    +0.164 C 
ENDROOT
BRANCH   1   2
ATOM      2  C   UNL     1     -11.182  13.583  66.268  0.00  0.00    +0.128 C 
BRANCH   2   3
ATOM      3  N   UNL     1     -10.174  12.616  65.998  0.00  0.00    -0.153 NA
BRANCH   3   4
ATOM      4  S   UNL     1     -10.410  11.561  64.734  0.00  0.00    +0.063 S 
ATOM      5  O   UNL     1      -9.564  12.005  63.559  0.00  0.00    -0.153 OA
ATOM      6  O   UNL     1     -11.840  11.701  64.255  0.00  0.00    -0.153 OA
BRANCH   4   7
ATOM      7  C   UNL     1     -10.005   9.888  65.045  0.00  0.00    +0.122 A 
ATOM      8  C   UNL     1      -8.890   9.379  64.387  0.00  0.00    +0.021 A 
ATOM      9  C   UNL     1      -8.280   8.200  64.760  0.00  0.00    +0.019 A 
ATOM     10  C   UNL     1      -8.766   7.484  65.843  0.00  0.00    +0.089 A 
ATOM     11  N   UNL     1      -7.863   6.528  66.411  0.00  0.00    -0.128 NA
ATOM     12  C   UNL     1      -9.556   8.195  66.729  0.00  0.00    +0.019 A 
ATOM     13  C   UNL     1     -10.214   9.330  66.302  0.00  0.00    +0.021 A 
ENDBRANCH   4   7
ENDBRANCH   3   4
BRANCH   3  14
ATOM     14  C   UNL     1      -8.903  12.965  66.422  0.00  0.00    +0.096 C 
BRANCH  14  16
ATOM     15  C   UNL     1      -7.162  11.605  66.615  0.00  0.00    +0.001 C 
ATOM     16  C   UNL     1      -8.164  12.071  67.332  0.00  0.00    +0.018 C 
ATOM     17  C   UNL     1      -7.586  12.918  68.461  0.00  0.00    +0.001 C 
ENDBRANCH  14  16
ENDBRANCH   3  14
ENDBRANCH   2   3
ENDBRANCH   1   2
BRANCH   1  18
ATOM     18  O   UNL     1     -11.244  15.761  66.978  0.00  0.00    -0.269 OA
BRANCH  18  19
ATOM     19  P   UNL     1     -10.417  16.637  65.925  0.00  0.00    +0.533 P 
ATOM     20  O   UNL     1     -11.130  16.895  64.399  0.00  0.00    -0.115 OA
ATOM     21  O   UNL     1     -10.401  18.219  66.583  0.00  0.00    -0.115 OA
ATOM     22  O   UNL     1      -8.981  16.353  65.654  0.00  0.00    -0.222 OA
ENDBRANCH  18  19
ENDBRANCH   1  18
BRANCH   1  23
ATOM     23  C   UNL     1     -11.816  14.147  68.564  0.00  0.00    +0.132 C 
BRANCH  23  24
ATOM     24  N   UNL     1     -11.008  12.996  69.258  0.00  0.00    -0.168 NA
ATOM     25  C   UNL     1     -11.730  11.771  69.426  0.00  0.00    +0.421 C 
ATOM     26  O   UNL     1     -12.201  11.323  68.350  0.00  0.00    -0.225 OA
BRANCH  25  27
ATOM     27  O   UNL     1     -12.145  11.276  70.666  0.00  0.00    -0.435 OA
BRANCH  27  28
ATOM     28  C   UNL     1     -12.563   9.788  70.623  0.00  0.00    +0.202 C 
ATOM     29  C   UNL     1     -13.183   9.845  72.153  0.00  0.00    +0.186 C 
ATOM     30  O   UNL     1     -12.889   8.545  72.491  0.00  0.00    -0.350 OA
ATOM     31  C   UNL     1     -11.525   8.417  72.337  0.00  0.00    +0.146 C 
ATOM     32  C   UNL     1     -11.097   9.301  71.206  0.00  0.00    +0.078 C 
ENDBRANCH  27  28
ENDBRANCH  25  27
ENDBRANCH  23  24
BRANCH  23  33
ATOM     33  C   UNL     1     -11.313  15.285  69.617  0.00  0.00    +0.051 C 
BRANCH  33  34
ATOM     34  C   UNL     1     -12.238  15.426  70.715  0.00  0.00    -0.020 A 
ATOM     35  C   UNL     1     -11.701  15.860  71.925  0.00  0.00    -0.004 A 
ATOM     36  C   UNL     1     -12.440  15.930  73.077  0.00  0.00    -0.000 A 
ATOM     37  C   UNL     1     -13.818  15.826  72.929  0.00  0.00    -0.000 A 
ATOM     38  C   UNL     1     -14.327  15.202  71.820  0.00  0.00    -0.000 A 
ATOM     39  C   UNL     1     -13.438  14.741  70.870  0.00  0.00    -0.004 A 
ENDBRANCH  33  34
ENDBRANCH  23  33
ENDBRANCH   1  23
TORSDOF 14
ENDMDL
MODEL 2
REMARK VINA RESULT:      -7.2      3.487      7.421
REMARK  Name = 
REMARK  14 active torsions:
REMARK  status: ('A' for Active; 'I' for Inactive)
REMARK    1  A    between atoms: C_2  and  C_4
REMARK    2  A    between atoms: C_4  and  N_5
REMARK    3  A    between atoms: N_5  and  C_6
REMARK    4  A    between atoms: N_5  and  S_30
REMARK    5  A    between atoms: C_6  and  C_7
REMARK    6  A    between atoms: C_7  and  O_8
REMARK    7  A    between atoms: C_7  and  C_13
REMARK    8  A    between atoms: O_8  and  P_9
REMARK    9  A    between atoms: C_13  and  C_14
REMARK   10  A    between atoms: C_13  and  N_21
REMARK   11  A    between atoms: C_14  and  C_15
REMARK   12  A    between atoms: C_22  and  O_24
REMARK   13  A    between atoms: O_24  and  C_25
REMARK   14  A    between atoms: S_30  and  C_33
REMARK                            x       y       z     vdW  Elec       q    Type
REMARK                         _______ _______ _______ _____ _____    ______ ____
ROOT
ATOM      1  C   UNL     1     -10.571  13.838  66.587  0.00  0.00    +0.164 C 
ENDROOT
BRANCH   1   2
ATOM      2  C   UNL     1      -9.477  15.061  66.715  0.00  0.00    +0.128 C 
BRANCH   2   3
ATOM      3  N   UNL     1     -10.133  16.039  67.513  0.00  0.00    -0.153 NA
BRANCH   3   4
ATOM      4  S   UNL     1     -10.005  17.636  67.069  0.00  0.00    +0.063 S 
ATOM      5  O   UNL     1     -11.051  18.439  67.813  0.00  0.00    -0.153 OA
ATOM      6  O   UNL     1     -10.389  17.759  65.609  0.00  0.00    -0.153 OA
BRANCH   4   7
ATOM      7  C   UNL     1      -8.463  18.399  67.386  0.00  0.00    +0.122 A 
ATOM      8  C   UNL     1      -8.334  19.733  67.014  0.00  0.00    +0.021 A 
ATOM      9  C   UNL     1      -7.311  20.537  67.469  0.00  0.00    +0.019 A 
ATOM     10  C   UNL     1      -6.371  20.026  68.349  0.00  0.00    +0.089 A 
ATOM     11  N   UNL     1      -5.612  20.995  69.080  0.00  0.00    -0.128 NA
ATOM     12  C   UNL     1      -6.747  18.885  69.037  0.00  0.00    +0.019 A 
ATOM     13  C   UNL     1      -7.723  18.062  68.514  0.00  0.00    +0.021 A 
ENDBRANCH   4   7
ENDBRANCH   3   4
BRANCH   3  14
ATOM     14  C   UNL     1     -11.223  15.571  68.228  0.00  0.00    +0.096 C 
BRANCH  14  16
ATOM     15  C   UNL     1     -11.360  16.153  70.363  0.00  0.00    +0.001 C 
ATOM     16  C   UNL     1     -11.045  15.114  69.618  0.00  0.00    +0.018 C 
ATOM     17  C   UNL     1     -12.062  14.010  69.887  0.00  0.00    +0.001 C 
ENDBRANCH  14  16
ENDBRANCH   3  14
ENDBRANCH   2   3
ENDBRANCH   1   2
BRANCH   1  18
ATOM     18  O   UNL     1     -10.661  13.967  65.086  0.00  0.00    -0.269 OA
BRANCH  18  19
ATOM     19  P   UNL     1     -12.101  14.385  64.526  0.00  0.00    +0.533 P 
ATOM     20  O   UNL     1     -12.232  15.911  63.781  0.00  0.00    -0.115 OA
ATOM     21  O   UNL     1     -12.388  13.322  63.213  0.00  0.00    -0.115 OA
ATOM     22  O   UNL     1     -13.319  14.243  65.369  0.00  0.00    -0.222 OA
ENDBRANCH  18  19
ENDBRANCH   1  18
BRANCH   1  23
ATOM     23  C   UNL     1      -9.351  12.628  66.478  0.00  0.00    +0.132 C 
BRANCH  23  24
ATOM     24  N   UNL     1      -9.522  12.188  67.973  0.00  0.00    -0.168 NA
ATOM     25  C   UNL     1      -8.562  11.230  68.432  0.00  0.00    +0.421 C 
ATOM     26  O   UNL     1      -7.372  11.604  68.268  0.00  0.00    -0.225 OA
BRANCH  25  27
ATOM     27  O   UNL     1      -8.873   9.902  68.738  0.00  0.00    -0.435 OA
BRANCH  27  28
ATOM     28  C   UNL     1     -10.376   9.676  69.024  0.00  0.00    +0.202 C 
ATOM     29  C   UNL     1     -10.103   9.425  70.634  0.00  0.00    +0.186 C 
ATOM     30  O   UNL     1     -11.127   8.528  70.830  0.00  0.00    -0.350 OA
ATOM     31  C   UNL     1     -10.890   7.492  69.953  0.00  0.00    +0.146 C 
ATOM     32  C   UNL     1     -10.248   8.058  68.723  0.00  0.00    +0.078 C 
ENDBRANCH  27  28
ENDBRANCH  25  27
ENDBRANCH  23  24
BRANCH  23  33
ATOM     33  C   UNL     1     -10.413  11.525  65.917  0.00  0.00    +0.051 C 
BRANCH  33  34
ATOM     34  C   UNL     1      -9.776  10.597  65.016  0.00  0.00    -0.020 A 
ATOM     35  C   UNL     1      -9.942  10.842  63.655  0.00  0.00    -0.004 A 
ATOM     36  C   UNL     1      -9.489   9.981  62.690  0.00  0.00    -0.000 A 
ATOM     37  C   UNL     1      -8.603   8.997  63.113  0.00  0.00    -0.000 A 
ATOM     38  C   UNL     1      -8.602   8.619  64.431  0.00  0.00    -0.000 A 
ATOM     39  C   UNL     1      -9.458   9.272  65.293  0.00  0.00    -0.004 A 
ENDBRANCH  33  34
ENDBRANCH  23  33
ENDBRANCH   1  23
TORSDOF 14
ENDMDL
MODEL 3
REMARK VINA RESULT:      -7.1      1.597      2.265
REMARK  Name = 
REMARK  14 active torsions:
REMARK  status: ('A' for Active; 'I' for Inactive)
REMARK    1  A    between atoms: C_2  and  C_4
REMARK    2  A    between atoms: C_4  and  N_5
REMARK    3  A    between atoms: N_5  and  C_6
REMARK    4  A    between atoms: N_5  and  S_30
REMARK    5  A    between atoms: C_6  and  C_7
REMARK    6  A    between atoms: C_7  and  O_8
REMARK    7  A    between atoms: C_7  and  C_13
REMARK    8  A    between atoms: O_8  and  P_9
REMARK    9  A    between atoms: C_13  and  C_14
REMARK   10  A    between atoms: C_13  and  N_21
REMARK   11  A    between atoms: C_14  and  C_15
REMARK   12  A    between atoms: C_22  and  O_24
REMARK   13  A    between atoms: O_24  and  C_25
REMARK   14  A    between atoms: S_30  and  C_33
REMARK                            x       y       z     vdW  Elec       q    Type
REMARK                         _______ _______ _______ _____ _____    ______ ____
ROOT
ATOM      1  C   UNL     1     -10.561  14.024  67.563  0.00  0.00    +0.164 C 
ENDROOT
BRANCH   1   2
ATOM      2  C   UNL     1     -11.069  12.794  66.595  0.00  0.00    +0.128 C 
BRANCH   2   3
ATOM      3  N   UNL     1      -9.902  12.398  65.884  0.00  0.00    -0.153 NA
BRANCH   3   4
ATOM      4  S   UNL     1      -8.820  11.388  66.643  0.00  0.00    +0.063 S 
ATOM      5  O   UNL     1      -8.106  12.160  67.732  0.00  0.00    -0.153 OA
ATOM      6  O   UNL     1      -7.733  11.022  65.653  0.00  0.00    -0.153 OA
BRANCH   4   7
ATOM      7  C   UNL     1      -9.499   9.963  67.396  0.00  0.00    +0.122 A 
ATOM      8  C   UNL     1     -10.199   9.089  66.571  0.00  0.00    +0.021 A 
ATOM      9  C   UNL     1     -10.518   7.803  66.949  0.00  0.00    +0.019 A 
ATOM     10  C   UNL     1     -10.119   7.329  68.189  0.00  0.00    +0.089 A 
ATOM     11  N   UNL     1     -10.118   5.905  68.338  0.00  0.00    -0.128 NA
ATOM     12  C   UNL     1      -9.081   8.018  68.791  0.00  0.00    +0.019 A 
ATOM     13  C   UNL     1      -8.837   9.330  68.443  0.00  0.00    +0.021 A 
ENDBRANCH   4   7
ENDBRANCH   3   4
BRANCH   3  14
ATOM     14  C   UNL     1     -10.022  12.425  64.505  0.00  0.00    +0.096 C 
BRANCH  14  16
ATOM     15  C   UNL     1     -11.769  11.969  63.218  0.00  0.00    +0.001 C 
ATOM     16  C   UNL     1     -10.767  11.357  63.815  0.00  0.00    +0.018 C 
ATOM     17  C   UNL     1      -9.861  10.768  62.739  0.00  0.00    +0.001 C 
ENDBRANCH  14  16
ENDBRANCH   3  14
ENDBRANCH   2   3
ENDBRANCH   1   2
BRANCH   1  18
ATOM     18  O   UNL     1     -11.324  15.063  66.778  0.00  0.00    -0.269 OA
BRANCH  18  19
ATOM     19  P   UNL     1     -10.415  16.111  65.979  0.00  0.00    +0.533 P 
ATOM     20  O   UNL     1     -10.986  16.635  64.461  0.00  0.00    -0.115 OA
ATOM     21  O   UNL     1     -10.488  17.552  66.904  0.00  0.00    -0.115 OA
ATOM     22  O   UNL     1      -8.956  15.879  65.801  0.00  0.00    -0.222 OA
ENDBRANCH  18  19
ENDBRANCH   1  18
BRANCH   1  23
ATOM     23  C   UNL     1     -11.858  13.813  68.675  0.00  0.00    +0.132 C 
BRANCH  23  24
ATOM     24  N   UNL     1     -11.145  12.639  69.429  0.00  0.00    -0.168 NA
ATOM     25  C   UNL     1     -11.944  11.464  69.606  0.00  0.00    +0.421 C 
ATOM     26  O   UNL     1     -12.405  11.012  68.527  0.00  0.00    -0.225 OA
BRANCH  25  27
ATOM     27  O   UNL     1     -12.428  11.032  70.844  0.00  0.00    -0.435 OA
BRANCH  27  28
ATOM     28  C   UNL     1     -12.874   9.551  70.845  0.00  0.00    +0.202 C 
ATOM     29  C   UNL     1     -13.414   9.641  72.403  0.00  0.00    +0.186 C 
ATOM     30  O   UNL     1     -13.126   8.341  72.746  0.00  0.00    -0.350 OA
ATOM     31  C   UNL     1     -11.774   8.186  72.525  0.00  0.00    +0.146 C 
ATOM     32  C   UNL     1     -11.389   9.045  71.361  0.00  0.00    +0.078 C 
ENDBRANCH  27  28
ENDBRANCH  25  27
ENDBRANCH  23  24
BRANCH  23  33
ATOM     33  C   UNL     1     -11.266  14.959  69.672  0.00  0.00    +0.051 C 
BRANCH  33  34
ATOM     34  C   UNL     1     -12.167  15.215  70.768  0.00  0.00    -0.020 A 
ATOM     35  C   UNL     1     -11.585  15.622  71.967  0.00  0.00    -0.004 A 
ATOM     36  C   UNL     1     -12.308  15.790  73.118  0.00  0.00    -0.000 A 
ATOM     37  C   UNL     1     -13.690  15.819  72.975  0.00  0.00    -0.000 A 
ATOM     38  C   UNL     1     -14.263  15.224  71.882  0.00  0.00    -0.000 A 
ATOM     39  C   UNL     1     -13.428  14.657  70.941  0.00  0.00    -0.004 A 
ENDBRANCH  33  34
ENDBRANCH  23  33
ENDBRANCH   1  23
TORSDOF 14
ENDMDL
MODEL 4
REMARK VINA RESULT:      -7.0      3.098      5.241
REMARK  Name = 
REMARK  14 active torsions:
REMARK  status: ('A' for Active; 'I' for Inactive)
REMARK    1  A    between atoms: C_2  and  C_4
REMARK    2  A    between atoms: C_4  and  N_5
REMARK    3  A    between atoms: N_5  and  C_6
REMARK    4  A    between atoms: N_5  and  S_30
REMARK    5  A    between atoms: C_6  and  C_7
REMARK    6  A    between atoms: C_7  and  O_8
REMARK    7  A    between atoms: C_7  and  C_13
REMARK    8  A    between atoms: O_8  and  P_9
REMARK    9  A    between atoms: C_13  and  C_14
REMARK   10  A    between atoms: C_13  and  N_21
REMARK   11  A    between atoms: C_14  and  C_15
REMARK   12  A    between atoms: C_22  and  O_24
REMARK   13  A    between atoms: O_24  and  C_25
REMARK   14  A    between atoms: S_30  and  C_33
REMARK                            x       y       z     vdW  Elec       q    Type
REMARK                         _______ _______ _______ _____ _____    ______ ____
ROOT
ATOM      1  C   UNL     1      -8.081  14.126  68.401  0.00  0.00    +0.164 C 
ENDROOT
BRANCH   1   2
ATOM      2  C   UNL     1      -8.262  12.897  67.322  0.00  0.00    +0.128 C 
BRANCH   2   3
ATOM      3  N   UNL     1      -8.287  11.723  68.125  0.00  0.00    -0.153 NA
BRANCH   3   4
ATOM      4  S   UNL     1      -9.635  10.751  68.062  0.00  0.00    +0.063 S 
ATOM      5  O   UNL     1      -9.224   9.369  67.600  0.00  0.00    -0.153 OA
ATOM      6  O   UNL     1     -10.547  11.269  66.969  0.00  0.00    -0.153 OA
BRANCH   4   7
ATOM      7  C   UNL     1     -10.502  10.544  69.567  0.00  0.00    +0.122 A 
ATOM      8  C   UNL     1     -11.858  10.858  69.559  0.00  0.00    +0.021 A 
ATOM      9  C   UNL     1     -12.719  10.462  70.560  0.00  0.00    +0.019 A 
ATOM     10  C   UNL     1     -12.245   9.703  71.618  0.00  0.00    +0.089 A 
ATOM     11  N   UNL     1     -13.238   8.999  72.372  0.00  0.00    -0.128 NA
ATOM     12  C   UNL     1     -11.049   9.042  71.397  0.00  0.00    +0.019 A 
ATOM     13  C   UNL     1     -10.175   9.510  70.438  0.00  0.00    +0.021 A 
ENDBRANCH   4   7
ENDBRANCH   3   4
BRANCH   3  14
ATOM     14  C   UNL     1      -7.041  11.212  68.448  0.00  0.00    +0.096 C 
BRANCH  14  16
ATOM     15  C   UNL     1      -6.238   9.656  69.808  0.00  0.00    +0.001 C 
ATOM     16  C   UNL     1      -6.728  10.878  69.849  0.00  0.00    +0.018 C 
ATOM     17  C   UNL     1      -5.624  11.817  70.324  0.00  0.00    +0.001 C 
ENDBRANCH  14  16
ENDBRANCH   3  14
ENDBRANCH   2   3
ENDBRANCH   1   2
BRANCH   1  18
ATOM     18  O   UNL     1      -7.208  14.926  67.466  0.00  0.00    -0.269 OA
BRANCH  18  19
ATOM     19  P   UNL     1      -5.662  14.995  67.874  0.00  0.00    +0.533 P 
ATOM     20  O   UNL     1      -4.685  13.665  67.445  0.00  0.00    -0.115 OA
ATOM     21  O   UNL     1      -5.005  16.245  66.903  0.00  0.00    -0.115 OA
ATOM     22  O   UNL     1      -5.251  15.366  69.255  0.00  0.00    -0.222 OA
ENDBRANCH  18  19
ENDBRANCH   1  18
BRANCH   1  23
ATOM     23  C   UNL     1      -9.506  14.932  67.869  0.00  0.00    +0.132 C 
BRANCH  23  24
ATOM     24  N   UNL     1     -10.422  14.197  68.908  0.00  0.00    -0.168 NA
ATOM     25  C   UNL     1     -11.813  14.526  68.823  0.00  0.00    +0.421 C 
ATOM     26  O   UNL     1     -12.295  14.340  67.676  0.00  0.00    -0.225 OA
BRANCH  25  27
ATOM     27  O   UNL     1     -12.499  15.262  69.793  0.00  0.00    -0.435 OA
BRANCH  27  28
ATOM     28  C   UNL     1     -12.590  14.541  71.158  0.00  0.00    +0.202 C 
ATOM     29  C   UNL     1     -14.045  15.238  71.509  0.00  0.00    +0.186 C 
ATOM     30  O   UNL     1     -13.865  15.302  72.871  0.00  0.00    -0.350 OA
ATOM     31  C   UNL     1     -12.718  16.040  73.063  0.00  0.00    +0.146 C 
ATOM     32  C   UNL     1     -11.788  15.766  71.922  0.00  0.00    +0.078 C 
ENDBRANCH  27  28
ENDBRANCH  25  27
ENDBRANCH  23  24
BRANCH  23  33
ATOM     33  C   UNL     1      -9.223  16.202  68.852  0.00  0.00    +0.051 C 
BRANCH  33  34
ATOM     34  C   UNL     1      -9.667  17.436  68.252  0.00  0.00    -0.020 A 
ATOM     35  C   UNL     1     -10.035  17.375  66.910  0.00  0.00    -0.004 A 
ATOM     36  C   UNL     1     -10.366  18.489  66.185  0.00  0.00    -0.000 A 
ATOM     37  C   UNL     1     -10.602  19.649  66.915  0.00  0.00    -0.000 A 
ATOM     38  C   UNL     1     -10.050  19.777  68.163  0.00  0.00    -0.000 A 
ATOM     39  C   UNL     1      -9.317  18.719  68.660  0.00  0.00    -0.004 A 
ENDBRANCH  33  34
ENDBRANCH  23  33
ENDBRANCH   1  23
TORSDOF 14
ENDMDL
MODEL 5
REMARK VINA RESULT:      -6.7      3.197      5.130
REMARK  Name = 
REMARK  14 active torsions:
REMARK  status: ('A' for Active; 'I' for Inactive)
REMARK    1  A    between atoms: C_2  and  C_4
REMARK    2  A    between atoms: C_4  and  N_5
REMARK    3  A    between atoms: N_5  and  C_6
REMARK    4  A    between atoms: N_5  and  S_30
REMARK    5  A    between atoms: C_6  and  C_7
REMARK    6  A    between atoms: C_7  and  O_8
REMARK    7  A    between atoms: C_7  and  C_13
REMARK    8  A    between atoms: O_8  and  P_9
REMARK    9  A    between atoms: C_13  and  C_14
REMARK   10  A    between atoms: C_13  and  N_21
REMARK   11  A    between atoms: C_14  and  C_15
REMARK   12  A    between atoms: C_22  and  O_24
REMARK   13  A    between atoms: O_24  and  C_25
REMARK   14  A    between atoms: S_30  and  C_33
REMARK                            x       y       z     vdW  Elec       q    Type
REMARK                         _______ _______ _______ _____ _____    ______ ____
ROOT
ATOM      1  C   UNL     1      -8.097  14.410  68.298  0.00  0.00    +0.164 C 
ENDROOT
BRANCH   1   2
ATOM      2  C   UNL     1      -8.235  13.319  67.074  0.00  0.00    +0.128 C 
BRANCH   2   3
ATOM      3  N   UNL     1      -8.134  12.053  67.717  0.00  0.00    -0.153 NA
BRANCH   3   4
ATOM      4  S   UNL     1      -9.415  10.999  67.592  0.00  0.00    +0.063 S 
ATOM      5  O   UNL     1     -10.233  11.067  68.863  0.00  0.00    -0.153 OA
ATOM      6  O   UNL     1      -8.869   9.587  67.558  0.00  0.00    -0.153 OA
BRANCH   4   7
ATOM      7  C   UNL     1     -10.517  11.286  66.265  0.00  0.00    +0.122 A 
ATOM      8  C   UNL     1     -11.544  12.198  66.487  0.00  0.00    +0.021 A 
ATOM      9  C   UNL     1     -12.287  12.747  65.463  0.00  0.00    +0.019 A 
ATOM     10  C   UNL     1     -12.007  12.407  64.149  0.00  0.00    +0.089 A 
ATOM     11  N   UNL     1     -12.519  13.301  63.154  0.00  0.00    -0.128 NA
ATOM     12  C   UNL     1     -10.750  11.875  63.919  0.00  0.00    +0.019 A 
ATOM     13  C   UNL     1     -10.065  11.266  64.949  0.00  0.00    +0.021 A 
ENDBRANCH   4   7
ENDBRANCH   3   4
BRANCH   3  14
ATOM     14  C   UNL     1      -6.840  11.600  67.910  0.00  0.00    +0.096 C 
BRANCH  14  16
ATOM     15  C   UNL     1      -4.668  11.717  67.481  0.00  0.00    +0.001 C 
ATOM     16  C   UNL     1      -5.826  11.813  66.861  0.00  0.00    +0.018 C 
ATOM     17  C   UNL     1      -5.928  10.663  65.865  0.00  0.00    +0.001 C 
ENDBRANCH  14  16
ENDBRANCH   3  14
ENDBRANCH   2   3
ENDBRANCH   1   2
BRANCH   1  18
ATOM     18  O   UNL     1      -7.266  15.357  67.467  0.00  0.00    -0.269 OA
BRANCH  18  19
ATOM     19  P   UNL     1      -5.784  15.616  68.014  0.00  0.00    +0.533 P 
ATOM     20  O   UNL     1      -5.452  17.160  68.655  0.00  0.00    -0.115 OA
ATOM     21  O   UNL     1      -5.644  14.618  69.400  0.00  0.00    -0.115 OA
ATOM     22  O   UNL     1      -4.594  15.256  67.197  0.00  0.00    -0.222 OA
ENDBRANCH  18  19
ENDBRANCH   1  18
BRANCH   1  23
ATOM     23  C   UNL     1      -9.559  15.215  67.875  0.00  0.00    +0.132 C 
BRANCH  23  24
ATOM     24  N   UNL     1     -10.393  14.481  68.981  0.00  0.00    -0.168 NA
ATOM     25  C   UNL     1     -11.705  15.012  69.197  0.00  0.00    +0.421 C 
ATOM     26  O   UNL     1     -12.399  15.057  68.150  0.00  0.00    -0.225 OA
BRANCH  25  27
ATOM     27  O   UNL     1     -12.085  15.697  70.355  0.00  0.00    -0.435 OA
BRANCH  27  28
ATOM     28  C   UNL     1     -11.698  14.960  71.658  0.00  0.00    +0.202 C 
ATOM     29  C   UNL     1     -13.226  14.364  71.858  0.00  0.00    +0.186 C 
ATOM     30  O   UNL     1     -13.216  14.362  73.233  0.00  0.00    -0.350 OA
ATOM     31  C   UNL     1     -12.963  15.664  73.608  0.00  0.00    +0.146 C 
ATOM     32  C   UNL     1     -12.064  16.280  72.580  0.00  0.00    +0.078 C 
ENDBRANCH  27  28
ENDBRANCH  25  27
ENDBRANCH  23  24
BRANCH  23  33
ATOM     33  C   UNL     1      -9.204  16.487  68.831  0.00  0.00    +0.051 C 
BRANCH  33  34
ATOM     34  C   UNL     1      -9.489  17.735  68.168  0.00  0.00    -0.020 A 
ATOM     35  C   UNL     1     -10.162  17.650  66.951  0.00  0.00    -0.004 A 
ATOM     36  C   UNL     1     -10.397  18.745  66.161  0.00  0.00    -0.000 A 
ATOM     37  C   UNL     1     -10.194  19.985  66.754  0.00  0.00    -0.000 A 
ATOM     38  C   UNL     1      -9.354  20.081  67.833  0.00  0.00    -0.000 A 
ATOM     39  C   UNL     1      -8.779  18.922  68.312  0.00  0.00    -0.004 A 
ENDBRANCH  33  34
ENDBRANCH  23  33
ENDBRANCH   1  23
TORSDOF 14
ENDMDL
MODEL 6
REMARK VINA RESULT:      -6.7      3.584      7.550
REMARK  Name = 
REMARK  14 active torsions:
REMARK  status: ('A' for Active; 'I' for Inactive)
REMARK    1  A    between atoms: C_2  and  C_4
REMARK    2  A    between atoms: C_4  and  N_5
REMARK    3  A    between atoms: N_5  and  C_6
REMARK    4  A    between atoms: N_5  and  S_30
REMARK    5  A    between atoms: C_6  and  C_7
REMARK    6  A    between atoms: C_7  and  O_8
REMARK    7  A    between atoms: C_7  and  C_13
REMARK    8  A    between atoms: O_8  and  P_9
REMARK    9  A    between atoms: C_13  and  C_14
REMARK   10  A    between atoms: C_13  and  N_21
REMARK   11  A    between atoms: C_14  and  C_15
REMARK   12  A    between atoms: C_22  and  O_24
REMARK   13  A    between atoms: O_24  and  C_25
REMARK   14  A    between atoms: S_30  and  C_33
REMARK                            x       y       z     vdW  Elec       q    Type
REMARK                         _______ _______ _______ _____ _____    ______ ____
ROOT
ATOM      1  C   UNL     1      -9.371   8.787  67.707  0.00  0.00    +0.164 C 
ENDROOT
BRANCH   1   2
ATOM      2  C   UNL     1     -10.288   7.761  68.609  0.00  0.00    +0.128 C 
BRANCH   2   3
ATOM      3  N   UNL     1      -9.377   7.209  69.551  0.00  0.00    -0.153 NA
BRANCH   3   4
ATOM      4  S   UNL     1      -9.479   7.709  71.135  0.00  0.00    +0.063 S 
ATOM      5  O   UNL     1      -8.873   9.091  71.254  0.00  0.00    -0.153 OA
ATOM      6  O   UNL     1      -8.584   6.820  71.974  0.00  0.00    -0.153 OA
BRANCH   4   7
ATOM      7  C   UNL     1     -11.090   7.804  71.807  0.00  0.00    +0.122 A 
ATOM      8  C   UNL     1     -11.690   9.059  71.827  0.00  0.00    +0.021 A 
ATOM      9  C   UNL     1     -13.041   9.235  72.036  0.00  0.00    +0.019 A 
ATOM     10  C   UNL     1     -13.861   8.133  72.215  0.00  0.00    +0.089 A 
ATOM     11  N   UNL     1     -15.261   8.360  72.013  0.00  0.00    -0.128 NA
ATOM     12  C   UNL     1     -13.356   6.926  71.763  0.00  0.00    +0.019 A 
ATOM     13  C   UNL     1     -11.993   6.758  71.638  0.00  0.00    +0.021 A 
ENDBRANCH   4   7
ENDBRANCH   3   4
BRANCH   3  14
ATOM     14  C   UNL     1      -8.878   5.961  69.217  0.00  0.00    +0.096 C 
BRANCH  14  16
ATOM     15  C   UNL     1      -9.297   4.114  68.064  0.00  0.00    +0.001 C 
ATOM     16  C   UNL     1      -9.802   4.824  69.052  0.00  0.00    +0.018 C 
ATOM     17  C   UNL     1      -9.744   3.980  70.321  0.00  0.00    +0.001 C 
ENDBRANCH  14  16
ENDBRANCH   3  14
ENDBRANCH   2   3
ENDBRANCH   1   2
BRANCH   1  18
ATOM     18  O   UNL     1      -9.688   8.067  66.419  0.00  0.00    -0.269 OA
BRANCH  18  19
ATOM     19  P   UNL     1      -8.417   7.490  65.635  0.00  0.00    +0.533 P 
ATOM     20  O   UNL     1      -7.931   8.317  64.227  0.00  0.00    -0.115 OA
ATOM     21  O   UNL     1      -7.090   7.764  66.685  0.00  0.00    -0.115 OA
ATOM     22  O   UNL     1      -8.315   6.042  65.307  0.00  0.00    -0.222 OA
ENDBRANCH  18  19
ENDBRANCH   1  18
BRANCH   1  23
ATOM     23  C   UNL     1     -10.666   9.900  67.482  0.00  0.00    +0.132 C 
BRANCH  23  24
ATOM     24  N   UNL     1     -10.390  10.639  68.837  0.00  0.00    -0.168 NA
ATOM     25  C   UNL     1     -11.319  11.682  69.153  0.00  0.00    +0.421 C 
ATOM     26  O   UNL     1     -12.515  11.295  69.156  0.00  0.00    -0.225 OA
BRANCH  25  27
ATOM     27  O   UNL     1     -10.992  13.041  69.153  0.00  0.00    -0.435 OA
BRANCH  27  28
ATOM     28  C   UNL     1     -12.229  13.969  69.126  0.00  0.00    +0.202 C 
ATOM     29  C   UNL     1     -11.321  15.283  68.704  0.00  0.00    +0.186 C 
ATOM     30  O   UNL     1     -12.086  16.220  69.358  0.00  0.00    -0.350 OA
ATOM     31  C   UNL     1     -12.105  15.831  70.680  0.00  0.00    +0.146 C 
ATOM     32  C   UNL     1     -12.060  14.335  70.728  0.00  0.00    +0.078 C 
ENDBRANCH  27  28
ENDBRANCH  25  27
ENDBRANCH  23  24
BRANCH  23  33
ATOM     33  C   UNL     1      -9.724  10.909  66.613  0.00  0.00    +0.051 C 
BRANCH  33  34
ATOM     34  C   UNL     1     -10.434  11.435  65.474  0.00  0.00    -0.020 A 
ATOM     35  C   UNL     1     -11.607  12.137  65.746  0.00  0.00    -0.004 A 
ATOM     36  C   UNL     1     -12.438  12.593  64.757  0.00  0.00    -0.000 A 
ATOM     37  C   UNL     1     -11.922  12.582  63.467  0.00  0.00    -0.000 A 
ATOM     38  C   UNL     1     -10.896  11.725  63.164  0.00  0.00    -0.000 A 
ATOM     39  C   UNL     1     -10.390  10.937  64.177  0.00  0.00    -0.004 A 
ENDBRANCH  33  34
ENDBRANCH  23  33
ENDBRANCH   1  23
TORSDOF 14
ENDMDL
MODEL 7
REMARK VINA RESULT:      -6.7      1.501      2.067
REMARK  Name = 
REMARK  14 active torsions:
REMARK  status: ('A' for Active; 'I' for Inactive)
REMARK    1  A    between atoms: C_2  and  C_4
REMARK    2  A    between atoms: C_4  and  N_5
REMARK    3  A    between atoms: N_5  and  C_6
REMARK    4  A    between atoms: N_5  and  S_30
REMARK    5  A    between atoms: C_6  and  C_7
REMARK    6  A    between atoms: C_7  and  O_8
REMARK    7  A    between atoms: C_7  and  C_13
REMARK    8  A    between atoms: O_8  and  P_9
REMARK    9  A    between atoms: C_13  and  C_14
REMARK   10  A    between atoms: C_13  and  N_21
REMARK   11  A    between atoms: C_14  and  C_15
REMARK   12  A    between atoms: C_22  and  O_24
REMARK   13  A    between atoms: O_24  and  C_25
REMARK   14  A    between atoms: S_30  and  C_33
REMARK                            x       y       z     vdW  Elec       q    Type
REMARK                         _______ _______ _______ _____ _____    ______ ____
ROOT
ATOM      1  C   UNL     1     -10.445  14.349  67.449  0.00  0.00    +0.164 C 
ENDROOT
BRANCH   1   2
ATOM      2  C   UNL     1     -10.987  13.298  66.304  0.00  0.00    +0.128 C 
BRANCH   2   3
ATOM      3  N   UNL     1      -9.942  12.341  66.180  0.00  0.00    -0.153 NA
BRANCH   3   4
ATOM      4  S   UNL     1     -10.147  11.082  65.113  0.00  0.00    +0.063 S 
ATOM      5  O   UNL     1     -11.441  11.285  64.354  0.00  0.00    -0.153 OA
ATOM      6  O   UNL     1     -10.361   9.811  65.910  0.00  0.00    -0.153 OA
BRANCH   4   7
ATOM      7  C   UNL     1      -8.886  10.876  63.918  0.00  0.00    +0.122 A 
ATOM      8  C   UNL     1      -7.985   9.837  64.127  0.00  0.00    +0.021 A 
ATOM      9  C   UNL     1      -7.147   9.368  63.138  0.00  0.00    +0.019 A 
ATOM     10  C   UNL     1      -7.198   9.925  61.870  0.00  0.00    +0.089 A 
ATOM     11  N   UNL     1      -6.621   9.137  60.823  0.00  0.00    -0.128 NA
ATOM     12  C   UNL     1      -8.357  10.615  61.561  0.00  0.00    +0.019 A 
ATOM     13  C   UNL     1      -9.134  11.137  62.574  0.00  0.00    +0.021 A 
ENDBRANCH   4   7
ENDBRANCH   3   4
BRANCH   3  14
ATOM     14  C   UNL     1      -8.682  12.809  66.515  0.00  0.00    +0.096 C 
BRANCH  14  16
ATOM     15  C   UNL     1      -6.632  12.625  67.340  0.00  0.00    +0.001 C 
ATOM     16  C   UNL     1      -7.671  11.873  67.040  0.00  0.00    +0.018 C 
ATOM     17  C   UNL     1      -8.210  11.270  68.333  0.00  0.00    +0.001 C 
ENDBRANCH  14  16
ENDBRANCH   3  14
ENDBRANCH   2   3
ENDBRANCH   1   2
BRANCH   1  18
ATOM     18  O   UNL     1     -11.195  15.514  66.850  0.00  0.00    -0.269 OA
BRANCH  18  19
ATOM     19  P   UNL     1     -10.283  16.589  66.092  0.00  0.00    +0.533 P 
ATOM     20  O   UNL     1      -8.659  16.163  65.800  0.00  0.00    -0.115 OA
ATOM     21  O   UNL     1     -10.922  16.667  64.504  0.00  0.00    -0.115 OA
ATOM     22  O   UNL     1     -10.253  18.011  66.532  0.00  0.00    -0.222 OA
ENDBRANCH  18  19
ENDBRANCH   1  18
BRANCH   1  23
ATOM     23  C   UNL     1     -11.736  13.987  68.530  0.00  0.00    +0.132 C 
BRANCH  23  24
ATOM     24  N   UNL     1     -10.963  12.801  69.204  0.00  0.00    -0.168 NA
ATOM     25  C   UNL     1     -11.736  11.611  69.397  0.00  0.00    +0.421 C 
ATOM     26  O   UNL     1     -12.259  11.184  68.336  0.00  0.00    -0.225 OA
BRANCH  25  27
ATOM     27  O   UNL     1     -12.137  11.138  70.649  0.00  0.00    -0.435 OA
BRANCH  27  28
ATOM     28  C   UNL     1     -12.497   9.634  70.650  0.00  0.00    +0.202 C 
ATOM     29  C   UNL     1     -13.133   9.716  72.172  0.00  0.00    +0.186 C 
ATOM     30  O   UNL     1     -12.792   8.439  72.554  0.00  0.00    -0.350 OA
ATOM     31  C   UNL     1     -11.424   8.360  72.416  0.00  0.00    +0.146 C 
ATOM     32  C   UNL     1     -11.019   9.223  71.261  0.00  0.00    +0.078 C 
ENDBRANCH  27  28
ENDBRANCH  25  27
ENDBRANCH  23  24
BRANCH  23  33
ATOM     33  C   UNL     1     -11.213  15.088  69.614  0.00  0.00    +0.051 C 
BRANCH  33  34
ATOM     34  C   UNL     1     -12.173  15.275  70.673  0.00  0.00    -0.020 A 
ATOM     35  C   UNL     1     -11.675  15.753  71.883  0.00  0.00    -0.004 A 
ATOM     36  C   UNL     1     -12.452  15.870  73.005  0.00  0.00    -0.000 A 
ATOM     37  C   UNL     1     -13.825  15.768  72.815  0.00  0.00    -0.000 A 
ATOM     38  C   UNL     1     -14.300  15.104  71.714  0.00  0.00    -0.000 A 
ATOM     39  C   UNL     1     -13.382  14.603  70.813  0.00  0.00    -0.004 A 
ENDBRANCH  33  34
ENDBRANCH  23  33
ENDBRANCH   1  23
TORSDOF 14
ENDMDL
MODEL 8
REMARK VINA RESULT:      -6.7      3.653      6.563
REMARK  Name = 
REMARK  14 active torsions:
REMARK  status: ('A' for Active; 'I' for Inactive)
REMARK    1  A    between atoms: C_2  and  C_4
REMARK    2  A    between atoms: C_4  and  N_5
REMARK    3  A    between atoms: N_5  and  C_6
REMARK    4  A    between atoms: N_5  and  S_30
REMARK    5  A    between atoms: C_6  and  C_7
REMARK    6  A    between atoms: C_7  and  O_8
REMARK    7  A    between atoms: C_7  and  C_13
REMARK    8  A    between atoms: O_8  and  P_9
REMARK    9  A    between atoms: C_13  and  C_14
REMARK   10  A    between atoms: C_13  and  N_21
REMARK   11  A    between atoms: C_14  and  C_15
REMARK   12  A    between atoms: C_22  and  O_24
REMARK   13  A    between atoms: O_24  and  C_25
REMARK   14  A    between atoms: S_30  and  C_33
REMARK                            x       y       z     vdW  Elec       q    Type
REMARK                         _______ _______ _______ _____ _____    ______ ____
ROOT
ATOM      1  C   UNL     1      -9.325  14.192  66.689  0.00  0.00    +0.164 C 
ENDROOT
BRANCH   1   2
ATOM      2  C   UNL     1      -9.711  13.283  68.005  0.00  0.00    +0.128 C 
BRANCH   2   3
ATOM      3  N   UNL     1      -9.567  11.939  67.562  0.00  0.00    -0.153 NA
BRANCH   3   4
ATOM      4  S   UNL     1     -10.835  10.889  67.795  0.00  0.00    +0.063 S 
ATOM      5  O   UNL     1     -10.584   9.629  66.994  0.00  0.00    -0.153 OA
ATOM      6  O   UNL     1     -12.078  11.498  67.179  0.00  0.00    -0.153 OA
BRANCH   4   7
ATOM      7  C   UNL     1     -11.125  10.390  69.446  0.00  0.00    +0.122 A 
ATOM      8  C   UNL     1     -12.156  11.030  70.125  0.00  0.00    +0.021 A 
ATOM      9  C   UNL     1     -12.692  10.542  71.297  0.00  0.00    +0.019 A 
ATOM     10  C   UNL     1     -12.215   9.356  71.833  0.00  0.00    +0.089 A 
ATOM     11  N   UNL     1     -13.070   8.716  72.786  0.00  0.00    -0.128 NA
ATOM     12  C   UNL     1     -11.534   8.530  70.955  0.00  0.00    +0.019 A 
ATOM     13  C   UNL     1     -10.945   9.065  69.829  0.00  0.00    +0.021 A 
ENDBRANCH   4   7
ENDBRANCH   3   4
BRANCH   3  14
ATOM     14  C   UNL     1      -8.660  11.761  66.531  0.00  0.00    +0.096 C 
BRANCH  14  16
ATOM     15  C   UNL     1      -7.349  10.259  65.559  0.00  0.00    +0.001 C 
ATOM     16  C   UNL     1      -7.505  10.864  66.719  0.00  0.00    +0.018 C 
ATOM     17  C   UNL     1      -6.273  11.726  66.976  0.00  0.00    +0.001 C 
ENDBRANCH  14  16
ENDBRANCH   3  14
ENDBRANCH   2   3
ENDBRANCH   1   2
BRANCH   1  18
ATOM     18  O   UNL     1     -10.723  14.745  66.560  0.00  0.00    -0.269 OA
BRANCH  18  19
ATOM     19  P   UNL     1     -11.459  14.414  65.178  0.00  0.00    +0.533 P 
ATOM     20  O   UNL     1     -13.122  14.046  65.252  0.00  0.00    -0.115 OA
ATOM     21  O   UNL     1     -11.460  15.893  64.314  0.00  0.00    -0.115 OA
ATOM     22  O   UNL     1     -10.875  13.442  64.215  0.00  0.00    -0.222 OA
ENDBRANCH  18  19
ENDBRANCH   1  18
BRANCH   1  23
ATOM     23  C   UNL     1      -8.810  15.530  67.643  0.00  0.00    +0.132 C 
BRANCH  23  24
ATOM     24  N   UNL     1      -7.311  15.072  67.644  0.00  0.00    -0.168 NA
ATOM     25  C   UNL     1      -6.606  15.323  68.864  0.00  0.00    +0.421 C 
ATOM     26  O   UNL     1      -7.168  14.823  69.872  0.00  0.00    -0.225 OA
BRANCH  25  27
ATOM     27  O   UNL     1      -5.586  16.271  68.993  0.00  0.00    -0.435 OA
BRANCH  27  28
ATOM     28  C   UNL     1      -6.109  17.699  69.271  0.00  0.00    +0.202 C 
ATOM     29  C   UNL     1      -4.899  18.390  68.383  0.00  0.00    +0.186 C 
ATOM     30  O   UNL     1      -4.795  19.542  69.128  0.00  0.00    -0.350 OA
ATOM     31  C   UNL     1      -4.517  19.132  70.414  0.00  0.00    +0.146 C 
ATOM     32  C   UNL     1      -5.206  17.823  70.648  0.00  0.00    +0.078 C 
ENDBRANCH  27  28
ENDBRANCH  25  27
ENDBRANCH  23  24
BRANCH  23  33
ATOM     33  C   UNL     1      -8.635  16.475  66.326  0.00  0.00    +0.051 C 
BRANCH  33  34
ATOM     34  C   UNL     1      -8.916  17.855  66.632  0.00  0.00    -0.020 A 
ATOM     35  C   UNL     1     -10.260  18.219  66.679  0.00  0.00    -0.004 A 
ATOM     36  C   UNL     1     -10.668  19.516  66.847  0.00  0.00    -0.000 A 
ATOM     37  C   UNL     1      -9.693  20.417  67.258  0.00  0.00    -0.000 A 
ATOM     38  C   UNL     1      -8.375  20.135  67.012  0.00  0.00    -0.000 A 
ATOM     39  C   UNL     1      -8.071  18.935  66.402  0.00  0.00    -0.004 A 
ENDBRANCH  33  34
ENDBRANCH  23  33
ENDBRANCH   1  23
TORSDOF 14
ENDMDL
MODEL 9
REMARK VINA RESULT:      -6.5      3.545      7.098
REMARK  Name = 
REMARK  14 active torsions:
REMARK  status: ('A' for Active; 'I' for Inactive)
REMARK    1  A    between atoms: C_2  and  C_4
REMARK    2  A    between atoms: C_4  and  N_5
REMARK    3  A    between atoms: N_5  and  C_6
REMARK    4  A    between atoms: N_5  and  S_30
REMARK    5  A    between atoms: C_6  and  C_7
REMARK    6  A    between atoms: C_7  and  O_8
REMARK    7  A    between atoms: C_7  and  C_13
REMARK    8  A    between atoms: O_8  and  P_9
REMARK    9  A    between atoms: C_13  and  C_14
REMARK   10  A    between atoms: C_13  and  N_21
REMARK   11  A    between atoms: C_14  and  C_15
REMARK   12  A    between atoms: C_22  and  O_24
REMARK   13  A    between atoms: O_24  and  C_25
REMARK   14  A    between atoms: S_30  and  C_33
REMARK                            x       y       z     vdW  Elec       q    Type
REMARK                         _______ _______ _______ _____ _____    ______ ____
ROOT
ATOM      1  C   UNL     1     -10.912  14.044  68.879  0.00  0.00    +0.164 C 
ENDROOT
BRANCH   1   2
ATOM      2  C   UNL     1     -11.196  14.988  67.561  0.00  0.00    +0.128 C 
BRANCH   2   3
ATOM      3  N   UNL     1      -9.993  15.728  67.391  0.00  0.00    -0.153 NA
BRANCH   3   4
ATOM      4  S   UNL     1     -10.101  17.299  66.855  0.00  0.00    +0.063 S 
ATOM      5  O   UNL     1     -11.265  17.977  67.547  0.00  0.00    -0.153 OA
ATOM      6  O   UNL     1     -10.481  17.279  65.389  0.00  0.00    -0.153 OA
BRANCH   4   7
ATOM      7  C   UNL     1      -8.695  18.302  67.133  0.00  0.00    +0.122 A 
ATOM      8  C   UNL     1      -7.769  18.387  66.098  0.00  0.00    +0.021 A 
ATOM      9  C   UNL     1      -6.792  19.358  66.051  0.00  0.00    +0.019 A 
ATOM     10  C   UNL     1      -6.720  20.313  67.053  0.00  0.00    +0.089 A 
ATOM     11  N   UNL     1      -5.976  21.494  66.732  0.00  0.00    -0.128 NA
ATOM     12  C   UNL     1      -7.869  20.487  67.803  0.00  0.00    +0.019 A 
ATOM     13  C   UNL     1      -8.792  19.465  67.890  0.00  0.00    +0.021 A 
ENDBRANCH   4   7
ENDBRANCH   3   4
BRANCH   3  14
ATOM     14  C   UNL     1      -8.932  15.301  68.171  0.00  0.00    +0.096 C 
BRANCH  14  16
ATOM     15  C   UNL     1      -6.729  15.473  68.356  0.00  0.00    +0.001 C 
ATOM     16  C   UNL     1      -7.639  14.987  67.536  0.00  0.00    +0.018 C 
ATOM     17  C   UNL     1      -7.484  13.470  67.502  0.00  0.00    +0.001 C 
ENDBRANCH  14  16
ENDBRANCH   3  14
ENDBRANCH   2   3
ENDBRANCH   1   2
BRANCH   1  18
ATOM     18  O   UNL     1     -12.181  14.483  69.568  0.00  0.00    -0.269 OA
BRANCH  18  19
ATOM     19  P   UNL     1     -11.969  15.441  70.832  0.00  0.00    +0.533 P 
ATOM     20  O   UNL     1     -11.270  16.968  70.542  0.00  0.00    -0.115 OA
ATOM     21  O   UNL     1     -13.551  15.864  71.335  0.00  0.00    -0.115 OA
ATOM     22  O   UNL     1     -11.326  14.934  72.076  0.00  0.00    -0.222 OA
ENDBRANCH  18  19
ENDBRANCH   1  18
BRANCH   1  23
ATOM     23  C   UNL     1     -11.685  12.672  68.182  0.00  0.00    +0.132 C 
BRANCH  23  24
ATOM     24  N   UNL     1     -10.815  12.726  66.879  0.00  0.00    -0.168 NA
ATOM     25  C   UNL     1     -11.356  12.009  65.764  0.00  0.00    +0.421 C 
ATOM     26  O   UNL     1     -12.525  12.364  65.468  0.00  0.00    -0.225 OA
BRANCH  25  27
ATOM     27  O   UNL     1     -10.796  10.836  65.248  0.00  0.00    -0.435 OA
BRANCH  27  28
ATOM     28  C   UNL     1      -9.340  11.016  64.759  0.00  0.00    +0.202 C 
ATOM     29  C   UNL     1      -9.801  11.027  63.172  0.00  0.00    +0.186 C 
ATOM     30  O   UNL     1      -8.662  10.440  62.673  0.00  0.00    -0.350 OA
ATOM     31  C   UNL     1      -8.552   9.228  63.318  0.00  0.00    +0.146 C 
ATOM     32  C   UNL     1      -9.097   9.384  64.704  0.00  0.00    +0.078 C 
ENDBRANCH  27  28
ENDBRANCH  25  27
ENDBRANCH  23  24
BRANCH  23  33
ATOM     33  C   UNL     1     -10.676  11.644  68.945  0.00  0.00    +0.051 C 
BRANCH  33  34
ATOM     34  C   UNL     1     -11.394  10.788  69.857  0.00  0.00    -0.020 A 
ATOM     35  C   UNL     1     -12.370  11.398  70.641  0.00  0.00    -0.004 A 
ATOM     36  C   UNL     1     -13.048  10.730  71.627  0.00  0.00    -0.000 A 
ATOM     37  C   UNL     1     -12.931   9.345  71.622  0.00  0.00    -0.000 A 
ATOM     38  C   UNL     1     -11.843   8.768  71.020  0.00  0.00    -0.000 A 
ATOM     39  C   UNL     1     -10.929   9.596  70.401  0.00  0.00    -0.004 A 
ENDBRANCH  33  34
ENDBRANCH  23  33
ENDBRANCH   1  23
TORSDOF 14
ENDMDL
