MODEL 1
REMARK VINA RESULT:      -7.3      0.000      0.000
REMARK  Name = 
REMARK  7 active torsions:
REMARK  status: ('A' for Active; 'I' for Inactive)
REMARK    1  A    between atoms: C_2  and  C_3
REMARK    2  A    between atoms: C_3  and  C_4
REMARK    3  A    between atoms: C_12  and  O_13
REMARK    4  A    between atoms: C_32  and  C_33
REMARK    5  A    between atoms: C_35  and  C_36
REMARK    6  A    between atoms: C_41  and  O_42
REMARK    7  A    between atoms: C_55  and  O_56
REMARK                            x       y       z     vdW  Elec       q    Type
REMARK                         _______ _______ _______ _____ _____    ______ ____
ROOT
ATOM      1  C   UNL     1     -12.148  13.236  71.119  0.00  0.00    +0.083 C 
ATOM      2  C   UNL     1     -12.659  11.715  71.040  0.00  0.00    +0.157 C 
ATOM      3  O   UNL     1     -13.067  11.299  72.125  0.00  0.00    -0.296 OA
ATOM      4  C   UNL     1     -12.051  10.789  70.120  0.00  0.00    +0.098 C 
ATOM      5  C   UNL     1     -10.891   9.930  70.901  0.00  0.00    +0.163 C 
ATOM      6  O   UNL     1      -9.834  10.366  69.910  0.00  0.00    -0.223 OA
ATOM      7  C   UNL     1     -11.268   8.455  70.136  0.00  0.00    +0.075 C 
ATOM      8  C   UNL     1     -11.312   8.991  68.632  0.00  0.00    +0.007 C 
ATOM      9  C   UNL     1      -9.644   7.971  70.023  0.00  0.00    +0.189 C 
ATOM     10  O   UNL     1      -9.955   6.610  69.408  0.00  0.00    -0.447 OA
ATOM     11  C   UNL     1      -8.980   6.001  68.645  0.00  0.00    +0.335 C 
ATOM     12  O   UNL     1      -7.839   5.612  69.012  0.00  0.00    -0.248 OA
ATOM     13  C   UNL     1      -9.016   6.858  67.274  0.00  0.00    +0.175 C 
ATOM     14  N   UNL     1      -7.970   5.941  66.550  0.00  0.00    -0.265 N 
ATOM     15  C   UNL     1      -7.924   4.544  66.778  0.00  0.00    +0.094 C 
ATOM     16  C   UNL     1      -9.207   3.809  66.795  0.00  0.00    +0.022 C 
ATOM     17  C   UNL     1     -10.337   4.669  67.232  0.00  0.00    +0.004 C 
ATOM     18  C   UNL     1      -7.481   6.441  65.319  0.00  0.00    +0.289 C 
ATOM     19  O   UNL     1      -7.078   5.597  64.475  0.00  0.00    -0.267 OA
ATOM     20  C   UNL     1      -7.521   7.871  65.145  0.00  0.00    +0.279 C 
ATOM     21  O   UNL     1      -7.083   8.165  63.974  0.00  0.00    -0.281 OA
ATOM     22  C   UNL     1      -7.584   8.897  66.172  0.00  0.00    +0.279 C 
ATOM     23  C   UNL     1      -6.032   9.442  65.905  0.00  0.00    +0.065 C 
ATOM     24  C   UNL     1      -6.091  10.956  66.309  0.00  0.00    +0.038 C 
ATOM     25  C   UNL     1      -7.220  11.737  67.075  0.00  0.00    +0.145 C 
ATOM     26  C   UNL     1      -8.596  10.752  66.755  0.00  0.00    +0.172 C 
ATOM     27  C   UNL     1      -9.163  12.088  65.832  0.00  0.00    +0.145 C 
ATOM     28  C   UNL     1     -10.417  12.324  66.856  0.00  0.00    +0.032 C 
ATOM     29  C   UNL     1     -10.315  13.955  66.890  0.00  0.00    +0.007 C 
ATOM     30  C   UNL     1     -11.909  14.113  66.595  0.00  0.00    +0.000 C 
ATOM     31  C   UNL     1     -10.426  14.000  68.504  0.00  0.00    +0.022 C 
ATOM     32  C   UNL     1     -11.689  14.444  69.001  0.00  0.00    -0.048 C 
ATOM     33  C   UNL     1     -12.054  15.841  68.594  0.00  0.00    +0.026 C 
ATOM     34  C   UNL     1      -5.338   9.028  67.347  0.00  0.00    +0.006 C 
ATOM     35  O   UNL     1      -7.527   8.829  67.424  0.00  0.00    -0.187 OA
ATOM     36  O   UNL     1      -8.102  10.054  65.537  0.00  0.00    -0.324 OA
ATOM     37  C   UNL     1     -10.257   5.992  66.631  0.00  0.00    +0.031 C 
ATOM     38  C   UNL     1     -12.484  13.577  69.576  0.00  0.00    -0.027 C 
ENDROOT
BRANCH   9  39
ATOM     39  C   UNL     1      -9.653   7.436  71.546  0.00  0.00    -0.009 C 
ATOM     40  C   UNL     1      -9.991   6.209  71.849  0.00  0.00    -0.031 C 
ATOM     41  C   UNL     1      -8.637   8.115  72.420  0.00  0.00    +0.030 C 
BRANCH  40  42
ATOM     42  C   UNL     1      -9.099   5.490  72.985  0.00  0.00    +0.024 C 
ATOM     43  C   UNL     1     -10.309   5.397  74.085  0.00  0.00    +0.037 C 
ATOM     44  C   UNL     1      -9.513   4.184  74.859  0.00  0.00    +0.146 C 
ATOM     45  C   UNL     1     -10.562   2.928  74.325  0.00  0.00    +0.179 C 
ATOM     46  O   UNL     1      -9.378   2.073  73.949  0.00  0.00    -0.221 OA
ATOM     47  C   UNL     1     -10.695   3.502  72.797  0.00  0.00    +0.036 C 
ATOM     48  C   UNL     1      -9.383   3.998  72.394  0.00  0.00    +0.007 C 
BRANCH  44  49
ATOM     49  O   UNL     1     -10.300   4.365  76.128  0.00  0.00    -0.351 OA
ATOM     50  C   UNL     1      -9.780   5.437  76.799  0.00  0.00    +0.174 C 
ENDBRANCH  44  49
ENDBRANCH  40  42
ENDBRANCH   9  39
BRANCH  27  51
ATOM     51  O   UNL     1     -10.024  11.281  64.893  0.00  0.00    -0.351 OA
ATOM     52  C   UNL     1     -10.188  12.188  63.846  0.00  0.00    +0.174 C 
ENDBRANCH  27  51
BRANCH  25  53
ATOM     53  O   UNL     1      -6.937  11.130  68.445  0.00  0.00    -0.351 OA
ATOM     54  C   UNL     1      -6.394  12.155  69.212  0.00  0.00    +0.174 C 
ENDBRANCH  25  53
BRANCH   1  55
ATOM     55  C   UNL     1     -13.610  13.789  71.612  0.00  0.00    +0.038 C 
BRANCH  55  57
ATOM     56  C   UNL     1     -12.813  14.983  73.250  0.00  0.00    -0.005 C 
ATOM     57  C   UNL     1     -13.283  14.875  72.554  0.00  0.00    -0.025 C 
ENDBRANCH  55  57
ENDBRANCH   1  55
TORSDOF 7
ENDMDL
MODEL 2
REMARK VINA RESULT:      -6.6      1.715      2.235
REMARK  Name = 
REMARK  7 active torsions:
REMARK  status: ('A' for Active; 'I' for Inactive)
REMARK    1  A    between atoms: C_2  and  C_3
REMARK    2  A    between atoms: C_3  and  C_4
REMARK    3  A    between atoms: C_12  and  O_13
REMARK    4  A    between atoms: C_32  and  C_33
REMARK    5  A    between atoms: C_35  and  C_36
REMARK    6  A    between atoms: C_41  and  O_42
REMARK    7  A    between atoms: C_55  and  O_56
REMARK                            x       y       z     vdW  Elec       q    Type
REMARK                         _______ _______ _______ _____ _____    ______ ____
ROOT
ATOM      1  C   UNL     1     -11.973  11.053  71.298  0.00  0.00    +0.083 C 
ATOM      2  C   UNL     1     -12.367   9.497  71.217  0.00  0.00    +0.157 C 
ATOM      3  O   UNL     1     -12.783   9.061  72.291  0.00  0.00    -0.296 OA
ATOM      4  C   UNL     1     -11.659   8.612  70.330  0.00  0.00    +0.098 C 
ATOM      5  C   UNL     1     -10.468   7.848  71.162  0.00  0.00    +0.163 C 
ATOM      6  O   UNL     1      -9.411   8.354  70.205  0.00  0.00    -0.223 OA
ATOM      7  C   UNL     1     -10.706   6.343  70.399  0.00  0.00    +0.075 C 
ATOM      8  C   UNL     1     -10.734   6.862  68.889  0.00  0.00    +0.007 C 
ATOM      9  C   UNL     1      -9.048   5.981  70.351  0.00  0.00    +0.189 C 
ATOM     10  O   UNL     1      -9.234   4.595  69.739  0.00  0.00    -0.447 OA
ATOM     11  C   UNL     1      -8.188   4.054  69.019  0.00  0.00    +0.335 C 
ATOM     12  O   UNL     1      -7.037   3.754  69.431  0.00  0.00    -0.248 OA
ATOM     13  C   UNL     1      -8.237   4.895  67.638  0.00  0.00    +0.175 C 
ATOM     14  N   UNL     1      -7.100   4.053  66.963  0.00  0.00    -0.265 N 
ATOM     15  C   UNL     1      -6.959   2.665  67.208  0.00  0.00    +0.094 C 
ATOM     16  C   UNL     1      -8.184   1.837  67.186  0.00  0.00    +0.022 C 
ATOM     17  C   UNL     1      -9.390   2.613  67.572  0.00  0.00    +0.004 C 
ATOM     18  C   UNL     1      -6.605   4.578  65.745  0.00  0.00    +0.289 C 
ATOM     19  O   UNL     1      -6.109   3.760  64.925  0.00  0.00    -0.267 OA
ATOM     20  C   UNL     1      -6.743   6.000  65.554  0.00  0.00    +0.279 C 
ATOM     21  O   UNL     1      -6.286   6.316  64.397  0.00  0.00    -0.281 OA
ATOM     22  C   UNL     1      -6.920   7.026  66.567  0.00  0.00    +0.279 C 
ATOM     23  C   UNL     1      -5.404   7.683  66.351  0.00  0.00    +0.065 C 
ATOM     24  C   UNL     1      -5.590   9.192  66.736  0.00  0.00    +0.038 C 
ATOM     25  C   UNL     1      -6.801   9.892  67.453  0.00  0.00    +0.145 C 
ATOM     26  C   UNL     1      -8.088   8.805  67.093  0.00  0.00    +0.172 C 
ATOM     27  C   UNL     1      -8.718  10.088  66.136  0.00  0.00    +0.145 C 
ATOM     28  C   UNL     1     -10.023  10.238  67.111  0.00  0.00    +0.032 C 
ATOM     29  C   UNL     1     -10.043  11.873  67.132  0.00  0.00    +0.007 C 
ATOM     30  C   UNL     1     -11.633  11.909  66.777  0.00  0.00    +0.000 C 
ATOM     31  C   UNL     1     -10.218  11.922  68.740  0.00  0.00    +0.022 C 
ATOM     32  C   UNL     1     -11.528  12.274  69.186  0.00  0.00    -0.048 C 
ATOM     33  C   UNL     1     -11.980  13.638  68.751  0.00  0.00    +0.026 C 
ATOM     34  C   UNL     1      -4.736   7.334  67.822  0.00  0.00    +0.006 C 
ATOM     35  O   UNL     1      -6.905   6.972  67.821  0.00  0.00    -0.187 OA
ATOM     36  O   UNL     1      -7.499   8.136  65.902  0.00  0.00    -0.324 OA
ATOM     37  C   UNL     1      -9.386   3.934  66.960  0.00  0.00    +0.031 C 
ATOM     38  C   UNL     1     -12.276  11.355  69.741  0.00  0.00    -0.027 C 
ENDROOT
BRANCH   9  39
ATOM     39  C   UNL     1      -9.073   5.458  71.878  0.00  0.00    -0.009 C 
ATOM     40  C   UNL     1      -9.704   4.367  72.229  0.00  0.00    -0.031 C 
ATOM     41  C   UNL     1      -7.841   5.830  72.653  0.00  0.00    +0.030 C 
BRANCH  40  42
ATOM     42  C   UNL     1      -8.949   3.426  73.299  0.00  0.00    +0.024 C 
ATOM     43  C   UNL     1     -10.320   2.781  73.921  0.00  0.00    +0.037 C 
ATOM     44  C   UNL     1      -9.461   1.497  74.485  0.00  0.00    +0.146 C 
ATOM     45  C   UNL     1     -10.047   0.377  73.317  0.00  0.00    +0.179 C 
ATOM     46  O   UNL     1      -8.644  -0.114  73.056  0.00  0.00    -0.221 OA
ATOM     47  C   UNL     1      -9.963   1.430  72.065  0.00  0.00    +0.036 C 
ATOM     48  C   UNL     1      -8.743   2.216  72.228  0.00  0.00    +0.007 C 
BRANCH  44  49
ATOM     49  O   UNL     1     -10.530   1.105  75.466  0.00  0.00    -0.351 OA
ATOM     50  C   UNL     1     -10.045   1.312  76.728  0.00  0.00    +0.174 C 
ENDBRANCH  44  49
ENDBRANCH  40  42
ENDBRANCH   9  39
BRANCH  27  51
ATOM     51  O   UNL     1      -9.481   9.212  65.175  0.00  0.00    -0.351 OA
ATOM     52  C   UNL     1      -9.668  10.094  64.111  0.00  0.00    +0.174 C 
ENDBRANCH  27  51
BRANCH  25  53
ATOM     53  O   UNL     1      -6.525   9.319  68.839  0.00  0.00    -0.351 OA
ATOM     54  C   UNL     1      -6.110  10.392  69.620  0.00  0.00    +0.174 C 
ENDBRANCH  25  53
BRANCH   1  55
ATOM     55  C   UNL     1     -13.490  11.499  71.732  0.00  0.00    +0.038 C 
BRANCH  55  57
ATOM     56  C   UNL     1     -13.791  13.599  72.227  0.00  0.00    -0.005 C 
ATOM     57  C   UNL     1     -13.334  12.886  72.206  0.00  0.00    -0.025 C 
ENDBRANCH  55  57
ENDBRANCH   1  55
TORSDOF 7
ENDMDL
MODEL 3
REMARK VINA RESULT:      -6.4      2.590      8.486
REMARK  Name = 
REMARK  7 active torsions:
REMARK  status: ('A' for Active; 'I' for Inactive)
REMARK    1  A    between atoms: C_2  and  C_3
REMARK    2  A    between atoms: C_3  and  C_4
REMARK    3  A    between atoms: C_12  and  O_13
REMARK    4  A    between atoms: C_32  and  C_33
REMARK    5  A    between atoms: C_35  and  C_36
REMARK    6  A    between atoms: C_41  and  O_42
REMARK    7  A    between atoms: C_55  and  O_56
REMARK                            x       y       z     vdW  Elec       q    Type
REMARK                         _______ _______ _______ _____ _____    ______ ____
ROOT
ATOM      1  C   UNL     1      -7.569  10.312  63.127  0.00  0.00    +0.083 C 
ATOM      2  C   UNL     1      -9.040  10.154  63.755  0.00  0.00    +0.157 C 
ATOM      3  O   UNL     1      -9.744  11.145  63.559  0.00  0.00    -0.296 OA
ATOM      4  C   UNL     1      -9.243   9.377  64.950  0.00  0.00    +0.098 C 
ATOM      5  C   UNL     1      -9.237  10.375  66.253  0.00  0.00    +0.163 C 
ATOM      6  O   UNL     1      -8.112   9.599  66.901  0.00  0.00    -0.223 OA
ATOM      7  C   UNL     1     -10.507   9.568  67.053  0.00  0.00    +0.075 C 
ATOM      8  C   UNL     1      -9.955   8.078  66.898  0.00  0.00    +0.007 C 
ATOM      9  C   UNL     1      -9.816   9.773  68.591  0.00  0.00    +0.189 C 
ATOM     10  O   UNL     1     -10.974   9.125  69.344  0.00  0.00    -0.447 OA
ATOM     11  C   UNL     1     -10.719   8.569  70.581  0.00  0.00    +0.335 C 
ATOM     12  O   UNL     1     -10.322   9.152  71.625  0.00  0.00    -0.248 OA
ATOM     13  C   UNL     1      -9.933   7.207  70.202  0.00  0.00    +0.175 C 
ATOM     14  N   UNL     1      -9.870   6.706  71.686  0.00  0.00    -0.265 N 
ATOM     15  C   UNL     1     -10.924   6.955  72.599  0.00  0.00    +0.094 C 
ATOM     16  C   UNL     1     -12.308   6.735  72.125  0.00  0.00    +0.022 C 
ATOM     17  C   UNL     1     -12.435   6.937  70.659  0.00  0.00    +0.004 C 
ATOM     18  C   UNL     1      -9.034   5.586  71.908  0.00  0.00    +0.289 C 
ATOM     19  O   UNL     1      -9.314   4.844  72.887  0.00  0.00    -0.267 OA
ATOM     20  C   UNL     1      -7.956   5.392  70.971  0.00  0.00    +0.279 C 
ATOM     21  O   UNL     1      -7.317   4.323  71.281  0.00  0.00    -0.281 OA
ATOM     22  C   UNL     1      -7.341   6.376  70.098  0.00  0.00    +0.279 C 
ATOM     23  C   UNL     1      -5.899   6.405  70.933  0.00  0.00    +0.065 C 
ATOM     24  C   UNL     1      -4.838   6.773  69.838  0.00  0.00    +0.038 C 
ATOM     25  C   UNL     1      -5.063   7.301  68.375  0.00  0.00    +0.145 C 
ATOM     26  C   UNL     1      -6.656   6.734  68.046  0.00  0.00    +0.172 C 
ATOM     27  C   UNL     1      -5.902   5.706  66.892  0.00  0.00    +0.145 C 
ATOM     28  C   UNL     1      -6.649   6.469  65.654  0.00  0.00    +0.032 C 
ATOM     29  C   UNL     1      -5.353   6.504  64.658  0.00  0.00    +0.007 C 
ATOM     30  C   UNL     1      -6.225   5.908  63.417  0.00  0.00    +0.000 C 
ATOM     31  C   UNL     1      -5.579   8.066  64.301  0.00  0.00    +0.022 C 
ATOM     32  C   UNL     1      -6.114   8.307  62.999  0.00  0.00    -0.048 C 
ATOM     33  C   UNL     1      -5.243   7.823  61.877  0.00  0.00    +0.026 C 
ATOM     34  C   UNL     1      -5.934   7.958  71.499  0.00  0.00    +0.006 C 
ATOM     35  O   UNL     1      -7.502   7.617  69.994  0.00  0.00    -0.187 OA
ATOM     36  O   UNL     1      -6.724   5.642  69.053  0.00  0.00    -0.324 OA
ATOM     37  C   UNL     1     -11.312   6.349  69.945  0.00  0.00    +0.031 C 
ATOM     38  C   UNL     1      -7.348   8.730  62.890  0.00  0.00    -0.027 C 
ENDROOT
BRANCH   9  39
ATOM     39  C   UNL     1     -10.404  11.272  68.703  0.00  0.00    -0.009 C 
ATOM     40  C   UNL     1      -9.787  12.301  68.182  0.00  0.00    -0.031 C 
ATOM     41  C   UNL     1     -11.904  11.318  68.767  0.00  0.00    +0.030 C 
BRANCH  40  42
ATOM     42  C   UNL     1     -10.725  13.394  67.454  0.00  0.00    +0.024 C 
ATOM     43  C   UNL     1     -10.499  14.557  68.585  0.00  0.00    +0.037 C 
ATOM     44  C   UNL     1     -10.939  15.706  67.492  0.00  0.00    +0.146 C 
ATOM     45  C   UNL     1      -9.350  16.322  67.246  0.00  0.00    +0.179 C 
ATOM     46  O   UNL     1      -9.550  16.293  65.751  0.00  0.00    -0.221 OA
ATOM     47  C   UNL     1      -8.635  14.848  67.228  0.00  0.00    +0.036 C 
ATOM     48  C   UNL     1      -9.516  13.936  66.506  0.00  0.00    +0.007 C 
BRANCH  44  49
ATOM     49  O   UNL     1     -11.222  16.729  68.556  0.00  0.00    -0.351 OA
ATOM     50  C   UNL     1     -11.687  16.073  69.662  0.00  0.00    +0.174 C 
ENDBRANCH  44  49
ENDBRANCH  40  42
ENDBRANCH   9  39
BRANCH  27  51
ATOM     51  O   UNL     1      -6.956   4.629  66.925  0.00  0.00    -0.351 OA
ATOM     52  C   UNL     1      -6.223   3.532  66.472  0.00  0.00    +0.174 C 
ENDBRANCH  27  51
BRANCH  25  53
ATOM     53  O   UNL     1      -5.500   8.707  68.773  0.00  0.00    -0.351 OA
ATOM     54  C   UNL     1      -4.442   9.544  68.440  0.00  0.00    +0.174 C 
ENDBRANCH  25  53
BRANCH   1  55
ATOM     55  C   UNL     1      -8.149  10.511  61.606  0.00  0.00    +0.038 C 
BRANCH  55  57
ATOM     56  C   UNL     1      -6.437  11.711  60.996  0.00  0.00    -0.005 C 
ATOM     57  C   UNL     1      -7.024  11.112  60.870  0.00  0.00    -0.025 C 
ENDBRANCH  55  57
ENDBRANCH   1  55
TORSDOF 7
ENDMDL
MODEL 4
REMARK VINA RESULT:      -6.3      2.827     10.228
REMARK  Name = 
REMARK  7 active torsions:
REMARK  status: ('A' for Active; 'I' for Inactive)
REMARK    1  A    between atoms: C_2  and  C_3
REMARK    2  A    between atoms: C_3  and  C_4
REMARK    3  A    between atoms: C_12  and  O_13
REMARK    4  A    between atoms: C_32  and  C_33
REMARK    5  A    between atoms: C_35  and  C_36
REMARK    6  A    between atoms: C_41  and  O_42
REMARK    7  A    between atoms: C_55  and  O_56
REMARK                            x       y       z     vdW  Elec       q    Type
REMARK                         _______ _______ _______ _____ _____    ______ ____
ROOT
ATOM      1  C   UNL     1      -8.377   2.501  63.981  0.00  0.00    +0.083 C 
ATOM      2  C   UNL     1      -9.530   3.580  64.277  0.00  0.00    +0.157 C 
ATOM      3  O   UNL     1      -9.671   4.383  63.353  0.00  0.00    -0.296 OA
ATOM      4  C   UNL     1      -9.795   4.011  65.625  0.00  0.00    +0.098 C 
ATOM      5  C   UNL     1      -8.980   5.405  65.919  0.00  0.00    +0.163 C 
ATOM      6  O   UNL     1      -8.271   4.794  67.108  0.00  0.00    -0.223 OA
ATOM      7  C   UNL     1     -10.245   6.124  66.806  0.00  0.00    +0.075 C 
ATOM      8  C   UNL     1     -10.563   4.895  67.775  0.00  0.00    +0.007 C 
ATOM      9  C   UNL     1      -9.195   6.862  67.918  0.00  0.00    +0.189 C 
ATOM     10  O   UNL     1     -10.301   7.581  68.685  0.00  0.00    -0.447 OA
ATOM     11  C   UNL     1     -10.065   7.925  70.001  0.00  0.00    +0.335 C 
ATOM     12  O   UNL     1      -9.193   8.714  70.451  0.00  0.00    -0.248 OA
ATOM     13  C   UNL     1     -10.179   6.504  70.764  0.00  0.00    +0.175 C 
ATOM     14  N   UNL     1     -10.016   7.137  72.189  0.00  0.00    -0.265 N 
ATOM     15  C   UNL     1     -10.550   8.410  72.501  0.00  0.00    +0.094 C 
ATOM     16  C   UNL     1     -11.927   8.705  72.050  0.00  0.00    +0.022 C 
ATOM     17  C   UNL     1     -12.287   7.950  70.823  0.00  0.00    +0.004 C 
ATOM     18  C   UNL     1      -9.821   6.209  73.241  0.00  0.00    +0.289 C 
ATOM     19  O   UNL     1     -10.187   6.562  74.394  0.00  0.00    -0.267 OA
ATOM     20  C   UNL     1      -9.247   4.938  72.879  0.00  0.00    +0.279 C 
ATOM     21  O   UNL     1      -9.169   4.199  73.926  0.00  0.00    -0.281 OA
ATOM     22  C   UNL     1      -8.456   4.615  71.705  0.00  0.00    +0.279 C 
ATOM     23  C   UNL     1      -7.037   4.412  72.557  0.00  0.00    +0.065 C 
ATOM     24  C   UNL     1      -6.235   3.366  71.707  0.00  0.00    +0.038 C 
ATOM     25  C   UNL     1      -6.514   2.846  70.250  0.00  0.00    +0.145 C 
ATOM     26  C   UNL     1      -8.203   3.148  70.095  0.00  0.00    +0.172 C 
ATOM     27  C   UNL     1      -8.364   1.436  70.067  0.00  0.00    +0.145 C 
ATOM     28  C   UNL     1      -8.908   1.465  68.525  0.00  0.00    +0.032 C 
ATOM     29  C   UNL     1      -8.051   0.172  68.009  0.00  0.00    +0.007 C 
ATOM     30  C   UNL     1      -9.373  -0.503  67.338  0.00  0.00    +0.000 C 
ATOM     31  C   UNL     1      -7.549   0.944  66.678  0.00  0.00    +0.022 C 
ATOM     32  C   UNL     1      -8.190   0.527  65.472  0.00  0.00    -0.048 C 
ATOM     33  C   UNL     1      -7.976  -0.918  65.129  0.00  0.00    +0.026 C 
ATOM     34  C   UNL     1      -6.159   5.669  71.940  0.00  0.00    +0.006 C 
ATOM     35  O   UNL     1      -7.999   5.333  70.782  0.00  0.00    -0.187 OA
ATOM     36  O   UNL     1      -8.559   3.210  71.538  0.00  0.00    -0.324 OA
ATOM     37  C   UNL     1     -11.817   6.574  70.892  0.00  0.00    +0.031 C 
ATOM     38  C   UNL     1      -9.035   1.340  64.890  0.00  0.00    -0.027 C 
ENDROOT
BRANCH   9  39
ATOM     39  C   UNL     1      -8.914   8.087  66.906  0.00  0.00    -0.009 C 
ATOM     40  C   UNL     1      -9.821   8.992  66.641  0.00  0.00    -0.031 C 
ATOM     41  C   UNL     1      -7.474   8.515  66.878  0.00  0.00    +0.030 C 
BRANCH  40  42
ATOM     42  C   UNL     1      -9.296  10.514  66.549  0.00  0.00    +0.024 C 
ATOM     43  C   UNL     1     -10.563  11.053  65.662  0.00  0.00    +0.037 C 
ATOM     44  C   UNL     1     -10.252  12.593  66.152  0.00  0.00    +0.146 C 
ATOM     45  C   UNL     1     -11.591  12.700  67.229  0.00  0.00    +0.179 C 
ATOM     46  O   UNL     1     -10.703  13.275  68.305  0.00  0.00    -0.221 OA
ATOM     47  C   UNL     1     -11.409  11.184  67.822  0.00  0.00    +0.036 C 
ATOM     48  C   UNL     1      -9.979  10.933  67.968  0.00  0.00    +0.007 C 
BRANCH  44  49
ATOM     49  O   UNL     1     -11.047  13.200  65.029  0.00  0.00    -0.351 OA
ATOM     50  C   UNL     1     -10.698  12.562  63.870  0.00  0.00    +0.174 C 
ENDBRANCH  44  49
ENDBRANCH  40  42
ENDBRANCH   9  39
BRANCH  27  51
ATOM     51  O   UNL     1      -9.771   1.399  70.609  0.00  0.00    -0.351 OA
ATOM     52  C   UNL     1      -9.834   0.086  71.077  0.00  0.00    +0.174 C 
ENDBRANCH  27  51
BRANCH  25  53
ATOM     53  O   UNL     1      -6.084   4.123  69.535  0.00  0.00    -0.351 OA
ATOM     54  C   UNL     1      -4.867   3.830  68.929  0.00  0.00    +0.174 C 
ENDBRANCH  25  53
BRANCH   1  55
ATOM     55  C   UNL     1      -9.129   1.944  62.635  0.00  0.00    +0.038 C 
BRANCH  55  57
ATOM     56  C   UNL     1      -7.198   1.560  61.703  0.00  0.00    -0.005 C 
ATOM     57  C   UNL     1      -8.030   1.432  61.797  0.00  0.00    -0.025 C 
ENDBRANCH  55  57
ENDBRANCH   1  55
TORSDOF 7
ENDMDL
MODEL 5
REMARK VINA RESULT:      -6.2      2.735      8.413
REMARK  Name = 
REMARK  7 active torsions:
REMARK  status: ('A' for Active; 'I' for Inactive)
REMARK    1  A    between atoms: C_2  and  C_3
REMARK    2  A    between atoms: C_3  and  C_4
REMARK    3  A    between atoms: C_12  and  O_13
REMARK    4  A    between atoms: C_32  and  C_33
REMARK    5  A    between atoms: C_35  and  C_36
REMARK    6  A    between atoms: C_41  and  O_42
REMARK    7  A    between atoms: C_55  and  O_56
REMARK                            x       y       z     vdW  Elec       q    Type
REMARK                         _______ _______ _______ _____ _____    ______ ____
ROOT
ATOM      1  C   UNL     1     -12.446   8.246  71.120  0.00  0.00    +0.083 C 
ATOM      2  C   UNL     1     -11.567   9.591  71.069  0.00  0.00    +0.157 C 
ATOM      3  O   UNL     1     -12.254  10.594  70.873  0.00  0.00    -0.296 OA
ATOM      4  C   UNL     1     -10.216   9.559  70.572  0.00  0.00    +0.098 C 
ATOM      5  C   UNL     1     -10.212   9.981  68.986  0.00  0.00    +0.163 C 
ATOM      6  O   UNL     1      -9.535   8.686  68.594  0.00  0.00    -0.223 OA
ATOM      7  C   UNL     1      -8.789  10.912  69.091  0.00  0.00    +0.075 C 
ATOM      8  C   UNL     1      -7.888   9.852  69.874  0.00  0.00    +0.007 C 
ATOM      9  C   UNL     1      -8.223  10.421  67.567  0.00  0.00    +0.189 C 
ATOM     10  O   UNL     1      -6.978  11.304  67.599  0.00  0.00    -0.447 OA
ATOM     11  C   UNL     1      -5.893  10.928  66.834  0.00  0.00    +0.335 C 
ATOM     12  O   UNL     1      -5.827  10.823  65.581  0.00  0.00    -0.248 OA
ATOM     13  C   UNL     1      -5.283   9.686  67.671  0.00  0.00    +0.175 C 
ATOM     14  N   UNL     1      -4.043   9.521  66.726  0.00  0.00    -0.265 N 
ATOM     15  C   UNL     1      -3.417  10.639  66.122  0.00  0.00    +0.094 C 
ATOM     16  C   UNL     1      -3.162  11.823  66.970  0.00  0.00    +0.022 C 
ATOM     17  C   UNL     1      -4.147  11.941  68.076  0.00  0.00    +0.004 C 
ATOM     18  C   UNL     1      -3.277   8.349  66.936  0.00  0.00    +0.289 C 
ATOM     19  O   UNL     1      -2.060   8.392  66.614  0.00  0.00    -0.267 OA
ATOM     20  C   UNL     1      -3.966   7.228  67.525  0.00  0.00    +0.279 C 
ATOM     21  O   UNL     1      -3.136   6.262  67.685  0.00  0.00    -0.281 OA
ATOM     22  C   UNL     1      -5.394   6.967  67.547  0.00  0.00    +0.279 C 
ATOM     23  C   UNL     1      -5.305   5.676  66.495  0.00  0.00    +0.065 C 
ATOM     24  C   UNL     1      -6.511   4.766  66.914  0.00  0.00    +0.038 C 
ATOM     25  C   UNL     1      -7.717   5.092  67.868  0.00  0.00    +0.145 C 
ATOM     26  C   UNL     1      -7.057   6.354  68.837  0.00  0.00    +0.172 C 
ATOM     27  C   UNL     1      -7.151   5.221  70.129  0.00  0.00    +0.145 C 
ATOM     28  C   UNL     1      -8.266   6.130  70.907  0.00  0.00    +0.032 C 
ATOM     29  C   UNL     1      -9.221   4.885  71.366  0.00  0.00    +0.007 C 
ATOM     30  C   UNL     1      -9.267   5.419  72.904  0.00  0.00    +0.000 C 
ATOM     31  C   UNL     1     -10.565   5.642  70.875  0.00  0.00    +0.022 C 
ATOM     32  C   UNL     1     -11.375   6.161  71.930  0.00  0.00    -0.048 C 
ATOM     33  C   UNL     1     -11.896   5.118  72.875  0.00  0.00    +0.026 C 
ATOM     34  C   UNL     1      -6.149   6.299  65.217  0.00  0.00    +0.006 C 
ATOM     35  O   UNL     1      -6.360   7.559  67.007  0.00  0.00    -0.187 OA
ATOM     36  O   UNL     1      -5.612   6.074  68.627  0.00  0.00    -0.324 OA
ATOM     37  C   UNL     1      -4.415  10.647  68.684  0.00  0.00    +0.031 C 
ATOM     38  C   UNL     1     -11.436   7.457  72.103  0.00  0.00    -0.027 C 
ENDROOT
BRANCH   9  39
ATOM     39  C   UNL     1      -9.146  11.516  66.823  0.00  0.00    -0.009 C 
ATOM     40  C   UNL     1      -9.018  12.799  67.045  0.00  0.00    -0.031 C 
ATOM     41  C   UNL     1      -9.587  11.087  65.452  0.00  0.00    +0.030 C 
BRANCH  40  42
ATOM     42  C   UNL     1      -9.122  13.755  65.749  0.00  0.00    +0.024 C 
ATOM     43  C   UNL     1     -10.704  14.121  65.964  0.00  0.00    +0.037 C 
ATOM     44  C   UNL     1     -10.516  15.473  65.046  0.00  0.00    +0.146 C 
ATOM     45  C   UNL     1     -10.587  16.580  66.362  0.00  0.00    +0.179 C 
ATOM     46  O   UNL     1      -9.371  17.306  65.841  0.00  0.00    -0.221 OA
ATOM     47  C   UNL     1      -9.670  15.662  67.362  0.00  0.00    +0.036 C 
ATOM     48  C   UNL     1      -8.602  15.068  66.563  0.00  0.00    +0.007 C 
BRANCH  44  49
ATOM     49  O   UNL     1     -11.992  15.608  64.793  0.00  0.00    -0.351 OA
ATOM     50  C   UNL     1     -12.438  14.434  64.250  0.00  0.00    +0.174 C 
ENDBRANCH  44  49
ENDBRANCH  40  42
ENDBRANCH   9  39
BRANCH  27  51
ATOM     51  O   UNL     1      -6.031   5.816  70.944  0.00  0.00    -0.351 OA
ATOM     52  C   UNL     1      -5.687   4.728  71.746  0.00  0.00    +0.174 C 
ENDBRANCH  27  51
BRANCH  25  53
ATOM     53  O   UNL     1      -8.441   6.027  66.905  0.00  0.00    -0.351 OA
ATOM     54  C   UNL     1      -9.583   5.347  66.499  0.00  0.00    +0.174 C 
ENDBRANCH  25  53
BRANCH   1  55
ATOM     55  C   UNL     1     -13.341   8.781  72.386  0.00  0.00    +0.038 C 
BRANCH  55  57
ATOM     56  C   UNL     1     -15.033   7.566  71.750  0.00  0.00    -0.005 C 
ATOM     57  C   UNL     1     -14.687   8.243  72.125  0.00  0.00    -0.025 C 
ENDBRANCH  55  57
ENDBRANCH   1  55
TORSDOF 7
ENDMDL
MODEL 6
REMARK VINA RESULT:      -5.9      1.081      1.754
REMARK  Name = 
REMARK  7 active torsions:
REMARK  status: ('A' for Active; 'I' for Inactive)
REMARK    1  A    between atoms: C_2  and  C_3
REMARK    2  A    between atoms: C_3  and  C_4
REMARK    3  A    between atoms: C_12  and  O_13
REMARK    4  A    between atoms: C_32  and  C_33
REMARK    5  A    between atoms: C_35  and  C_36
REMARK    6  A    between atoms: C_41  and  O_42
REMARK    7  A    between atoms: C_55  and  O_56
REMARK                            x       y       z     vdW  Elec       q    Type
REMARK                         _______ _______ _______ _____ _____    ______ ____
ROOT
ATOM      1  C   UNL     1     -12.096  12.810  71.299  0.00  0.00    +0.083 C 
ATOM      2  C   UNL     1     -12.584  11.294  71.093  0.00  0.00    +0.157 C 
ATOM      3  O   UNL     1     -12.977  10.779  72.141  0.00  0.00    -0.296 OA
ATOM      4  C   UNL     1     -11.971  10.460  70.092  0.00  0.00    +0.098 C 
ATOM      5  C   UNL     1     -10.791   9.556  70.788  0.00  0.00    +0.163 C 
ATOM      6  O   UNL     1      -9.750  10.092  69.831  0.00  0.00    -0.223 OA
ATOM      7  C   UNL     1     -11.152   8.147  69.901  0.00  0.00    +0.075 C 
ATOM      8  C   UNL     1     -11.217   8.809  68.450  0.00  0.00    +0.007 C 
ATOM      9  C   UNL     1      -9.522   7.700  69.736  0.00  0.00    +0.189 C 
ATOM     10  O   UNL     1      -9.818   6.392  69.007  0.00  0.00    -0.447 OA
ATOM     11  C   UNL     1      -8.839   5.866  68.188  0.00  0.00    +0.335 C 
ATOM     12  O   UNL     1      -7.691   5.465  68.512  0.00  0.00    -0.248 OA
ATOM     13  C   UNL     1      -8.900   6.837  66.896  0.00  0.00    +0.175 C 
ATOM     14  N   UNL     1      -7.846   6.003  66.088  0.00  0.00    -0.265 N 
ATOM     15  C   UNL     1      -7.777   4.593  66.195  0.00  0.00    +0.094 C 
ATOM     16  C   UNL     1      -9.049   3.839  66.157  0.00  0.00    +0.022 C 
ATOM     17  C   UNL     1     -10.188   4.640  66.674  0.00  0.00    +0.004 C 
ATOM     18  C   UNL     1      -7.375   6.615  64.902  0.00  0.00    +0.289 C 
ATOM     19  O   UNL     1      -6.966   5.854  63.985  0.00  0.00    -0.267 OA
ATOM     20  C   UNL     1      -7.438   8.054  64.852  0.00  0.00    +0.279 C 
ATOM     21  O   UNL     1      -7.015   8.454  63.708  0.00  0.00    -0.281 OA
ATOM     22  C   UNL     1      -7.508   8.986  65.964  0.00  0.00    +0.279 C 
ATOM     23  C   UNL     1      -5.966   9.577  65.735  0.00  0.00    +0.065 C 
ATOM     24  C   UNL     1      -6.045  11.049  66.268  0.00  0.00    +0.038 C 
ATOM     25  C   UNL     1      -7.179  11.743  67.107  0.00  0.00    +0.145 C 
ATOM     26  C   UNL     1      -8.543  10.768  66.713  0.00  0.00    +0.172 C 
ATOM     27  C   UNL     1      -9.138  12.170  65.913  0.00  0.00    +0.145 C 
ATOM     28  C   UNL     1     -10.386  12.297  66.962  0.00  0.00    +0.032 C 
ATOM     29  C   UNL     1     -10.309  13.920  67.136  0.00  0.00    +0.007 C 
ATOM     30  C   UNL     1     -11.908  14.078  66.867  0.00  0.00    +0.000 C 
ATOM     31  C   UNL     1     -10.408  13.824  68.749  0.00  0.00    +0.022 C 
ATOM     32  C   UNL     1     -11.673  14.203  69.291  0.00  0.00    -0.048 C 
ATOM     33  C   UNL     1     -12.062  15.625  69.009  0.00  0.00    +0.026 C 
ATOM     34  C   UNL     1      -5.255   9.051  67.132  0.00  0.00    +0.006 C 
ATOM     35  O   UNL     1      -7.440   8.811  67.206  0.00  0.00    -0.187 OA
ATOM     36  O   UNL     1      -8.049  10.186  65.436  0.00  0.00    -0.324 OA
ATOM     37  C   UNL     1     -10.133   6.011  66.190  0.00  0.00    +0.031 C 
ATOM     38  C   UNL     1     -12.450  13.277  69.794  0.00  0.00    -0.027 C 
ENDROOT
BRANCH   9  39
ATOM     39  C   UNL     1      -9.510   7.035  71.206  0.00  0.00    -0.009 C 
ATOM     40  C   UNL     1      -8.650   7.395  72.124  0.00  0.00    -0.031 C 
ATOM     41  C   UNL     1     -10.867   6.580  71.664  0.00  0.00    +0.030 C 
BRANCH  40  42
ATOM     42  C   UNL     1      -9.231   7.530  73.623  0.00  0.00    +0.024 C 
ATOM     43  C   UNL     1      -8.637   6.094  74.141  0.00  0.00    +0.037 C 
ATOM     44  C   UNL     1      -8.734   6.615  75.699  0.00  0.00    +0.146 C 
ATOM     45  C   UNL     1      -7.040   6.834  75.909  0.00  0.00    +0.179 C 
ATOM     46  O   UNL     1      -7.273   8.192  76.524  0.00  0.00    -0.221 OA
ATOM     47  C   UNL     1      -6.804   7.493  74.428  0.00  0.00    +0.036 C 
ATOM     48  C   UNL     1      -7.936   8.371  74.147  0.00  0.00    +0.007 C 
BRANCH  44  49
ATOM     49  O   UNL     1      -8.670   5.220  76.257  0.00  0.00    -0.351 OA
ATOM     50  C   UNL     1      -9.812   4.564  75.889  0.00  0.00    +0.174 C 
ENDBRANCH  44  49
ENDBRANCH  40  42
ENDBRANCH   9  39
BRANCH  27  51
ATOM     51  O   UNL     1      -9.994  11.433  64.913  0.00  0.00    -0.351 OA
ATOM     52  C   UNL     1     -10.193  12.429  63.957  0.00  0.00    +0.174 C 
ENDBRANCH  27  51
BRANCH  25  53
ATOM     53  O   UNL     1      -6.876  11.025  68.418  0.00  0.00    -0.351 OA
ATOM     54  C   UNL     1      -6.366  11.993  69.275  0.00  0.00    +0.174 C 
ENDBRANCH  25  53
BRANCH   1  55
ATOM     55  C   UNL     1     -13.562  13.295  71.849  0.00  0.00    +0.038 C 
BRANCH  55  57
ATOM     56  C   UNL     1     -13.329  15.228  72.827  0.00  0.00    -0.005 C 
ATOM     57  C   UNL     1     -13.249  14.385  72.791  0.00  0.00    -0.025 C 
ENDBRANCH  55  57
ENDBRANCH   1  55
TORSDOF 7
ENDMDL
MODEL 7
REMARK VINA RESULT:      -5.9      2.534      8.390
REMARK  Name = 
REMARK  7 active torsions:
REMARK  status: ('A' for Active; 'I' for Inactive)
REMARK    1  A    between atoms: C_2  and  C_3
REMARK    2  A    between atoms: C_3  and  C_4
REMARK    3  A    between atoms: C_12  and  O_13
REMARK    4  A    between atoms: C_32  and  C_33
REMARK    5  A    between atoms: C_35  and  C_36
REMARK    6  A    between atoms: C_41  and  O_42
REMARK    7  A    between atoms: C_55  and  O_56
REMARK                            x       y       z     vdW  Elec       q    Type
REMARK                         _______ _______ _______ _____ _____    ______ ____
ROOT
ATOM      1  C   UNL     1      -6.948   6.847  73.916  0.00  0.00    +0.083 C 
ATOM      2  C   UNL     1      -6.644   8.141  73.014  0.00  0.00    +0.157 C 
ATOM      3  O   UNL     1      -7.001   9.187  73.557  0.00  0.00    -0.296 OA
ATOM      4  C   UNL     1      -6.678   8.052  71.578  0.00  0.00    +0.098 C 
ATOM      5  C   UNL     1      -8.154   8.527  71.039  0.00  0.00    +0.163 C 
ATOM      6  O   UNL     1      -8.369   7.211  70.325  0.00  0.00    -0.223 OA
ATOM      7  C   UNL     1      -7.547   9.374  69.691  0.00  0.00    +0.075 C 
ATOM      8  C   UNL     1      -6.568   8.239  69.140  0.00  0.00    +0.007 C 
ATOM      9  C   UNL     1      -8.827   8.905  68.680  0.00  0.00    +0.189 C 
ATOM     10  O   UNL     1      -8.350   9.715  67.478  0.00  0.00    -0.447 OA
ATOM     11  C   UNL     1      -8.739   9.307  66.219  0.00  0.00    +0.335 C 
ATOM     12  O   UNL     1      -9.907   9.241  65.752  0.00  0.00    -0.248 OA
ATOM     13  C   UNL     1      -7.813   8.005  65.967  0.00  0.00    +0.175 C 
ATOM     14  N   UNL     1      -8.312   7.804  64.494  0.00  0.00    -0.265 N 
ATOM     15  C   UNL     1      -8.624   8.905  63.660  0.00  0.00    +0.094 C 
ATOM     16  C   UNL     1      -7.681  10.044  63.647  0.00  0.00    +0.022 C 
ATOM     17  C   UNL     1      -6.949  10.178  64.933  0.00  0.00    +0.004 C 
ATOM     18  C   UNL     1      -7.925   6.585  63.888  0.00  0.00    +0.289 C 
ATOM     19  O   UNL     1      -7.832   6.572  62.632  0.00  0.00    -0.267 OA
ATOM     20  C   UNL     1      -7.648   5.485  64.777  0.00  0.00    +0.279 C 
ATOM     21  O   UNL     1      -7.276   4.469  64.085  0.00  0.00    -0.281 OA
ATOM     22  C   UNL     1      -8.103   5.302  66.144  0.00  0.00    +0.279 C 
ATOM     23  C   UNL     1      -9.133   4.045  65.770  0.00  0.00    +0.065 C 
ATOM     24  C   UNL     1      -9.174   3.189  67.083  0.00  0.00    +0.038 C 
ATOM     25  C   UNL     1      -8.647   3.548  68.520  0.00  0.00    +0.145 C 
ATOM     26  C   UNL     1      -7.454   4.738  68.161  0.00  0.00    +0.172 C 
ATOM     27  C   UNL     1      -6.321   3.569  68.717  0.00  0.00    +0.145 C 
ATOM     28  C   UNL     1      -5.901   4.511  69.986  0.00  0.00    +0.032 C 
ATOM     29  C   UNL     1      -5.841   3.306  71.090  0.00  0.00    +0.007 C 
ATOM     30  C   UNL     1      -4.375   3.788  71.613  0.00  0.00    +0.000 C 
ATOM     31  C   UNL     1      -6.702   4.152  72.167  0.00  0.00    +0.022 C 
ATOM     32  C   UNL     1      -5.942   4.679  73.255  0.00  0.00    -0.048 C 
ATOM     33  C   UNL     1      -5.270   3.635  74.098  0.00  0.00    +0.026 C 
ATOM     34  C   UNL     1     -10.582   4.757  66.124  0.00  0.00    +0.006 C 
ATOM     35  O   UNL     1      -8.896   5.965  66.856  0.00  0.00    -0.187 OA
ATOM     36  O   UNL     1      -7.198   4.386  66.738  0.00  0.00    -0.324 OA
ATOM     37  C   UNL     1      -6.526   8.881  65.438  0.00  0.00    +0.031 C 
ATOM     38  C   UNL     1      -5.733   5.969  73.316  0.00  0.00    -0.027 C 
ENDROOT
BRANCH   9  39
ATOM     39  C   UNL     1      -9.774  10.074  69.263  0.00  0.00    -0.009 C 
ATOM     40  C   UNL     1      -9.789  11.277  68.750  0.00  0.00    -0.031 C 
ATOM     41  C   UNL     1     -11.050   9.558  69.867  0.00  0.00    +0.030 C 
BRANCH  40  42
ATOM     42  C   UNL     1     -11.239  11.971  68.616  0.00  0.00    +0.024 C 
ATOM     43  C   UNL     1     -10.674  13.506  68.688  0.00  0.00    +0.037 C 
ATOM     44  C   UNL     1     -12.046  14.046  67.958  0.00  0.00    +0.146 C 
ATOM     45  C   UNL     1     -11.311  14.368  66.435  0.00  0.00    +0.179 C 
ATOM     46  O   UNL     1     -12.438  13.665  65.721  0.00  0.00    -0.221 OA
ATOM     47  C   UNL     1     -10.398  13.008  66.436  0.00  0.00    +0.036 C 
ATOM     48  C   UNL     1     -11.211  11.928  66.987  0.00  0.00    +0.007 C 
BRANCH  44  49
ATOM     49  O   UNL     1     -11.832  15.463  68.414  0.00  0.00    -0.351 OA
ATOM     50  C   UNL     1     -12.063  15.514  69.761  0.00  0.00    +0.174 C 
ENDBRANCH  44  49
ENDBRANCH  40  42
ENDBRANCH   9  39
BRANCH  27  51
ATOM     51  O   UNL     1      -5.158   4.072  67.900  0.00  0.00    -0.351 OA
ATOM     52  C   UNL     1      -4.346   2.939  67.878  0.00  0.00    +0.174 C 
ENDBRANCH  27  51
BRANCH  25  53
ATOM     53  O   UNL     1      -9.744   4.554  68.850  0.00  0.00    -0.351 OA
ATOM     54  C   UNL     1     -10.097   4.314  70.173  0.00  0.00    +0.174 C 
ENDBRANCH  25  53
BRANCH   1  55
ATOM     55  C   UNL     1      -6.016   7.387  75.152  0.00  0.00    +0.038 C 
BRANCH  55  57
ATOM     56  C   UNL     1      -7.562   6.932  76.617  0.00  0.00    -0.005 C 
ATOM     57  C   UNL     1      -6.756   6.985  76.361  0.00  0.00    -0.025 C 
ENDBRANCH  55  57
ENDBRANCH   1  55
TORSDOF 7
ENDMDL
MODEL 8
REMARK VINA RESULT:      -5.8      3.104      8.597
REMARK  Name = 
REMARK  7 active torsions:
REMARK  status: ('A' for Active; 'I' for Inactive)
REMARK    1  A    between atoms: C_2  and  C_3
REMARK    2  A    between atoms: C_3  and  C_4
REMARK    3  A    between atoms: C_12  and  O_13
REMARK    4  A    between atoms: C_32  and  C_33
REMARK    5  A    between atoms: C_35  and  C_36
REMARK    6  A    between atoms: C_41  and  O_42
REMARK    7  A    between atoms: C_55  and  O_56
REMARK                            x       y       z     vdW  Elec       q    Type
REMARK                         _______ _______ _______ _____ _____    ______ ____
ROOT
ATOM      1  C   UNL     1      -4.486  11.463  72.663  0.00  0.00    +0.083 C 
ATOM      2  C   UNL     1      -4.677  11.342  71.072  0.00  0.00    +0.157 C 
ATOM      3  O   UNL     1      -4.908  12.429  70.542  0.00  0.00    -0.296 OA
ATOM      4  C   UNL     1      -5.238  10.149  70.495  0.00  0.00    +0.098 C 
ATOM      5  C   UNL     1      -6.849  10.365  70.262  0.00  0.00    +0.163 C 
ATOM      6  O   UNL     1      -7.181   9.151  71.101  0.00  0.00    -0.223 OA
ATOM      7  C   UNL     1      -6.882   9.567  68.757  0.00  0.00    +0.075 C 
ATOM      8  C   UNL     1      -6.072   8.258  69.183  0.00  0.00    +0.007 C 
ATOM      9  C   UNL     1      -8.394   8.850  69.046  0.00  0.00    +0.189 C 
ATOM     10  O   UNL     1      -8.489   8.185  67.676  0.00  0.00    -0.447 OA
ATOM     11  C   UNL     1      -9.279   7.061  67.549  0.00  0.00    +0.335 C 
ATOM     12  O   UNL     1     -10.523   6.966  67.718  0.00  0.00    -0.248 OA
ATOM     13  C   UNL     1      -8.389   5.919  68.269  0.00  0.00    +0.175 C 
ATOM     14  N   UNL     1      -9.381   4.763  67.899  0.00  0.00    -0.265 N 
ATOM     15  C   UNL     1     -10.094   4.760  66.676  0.00  0.00    +0.094 C 
ATOM     16  C   UNL     1      -9.346   5.099  65.446  0.00  0.00    +0.022 C 
ATOM     17  C   UNL     1      -8.203   6.007  65.720  0.00  0.00    +0.004 C 
ATOM     18  C   UNL     1      -9.128   3.525  68.537  0.00  0.00    +0.289 C 
ATOM     19  O   UNL     1      -9.514   2.483  67.944  0.00  0.00    -0.267 OA
ATOM     20  C   UNL     1      -8.427   3.581  69.795  0.00  0.00    +0.279 C 
ATOM     21  O   UNL     1      -8.241   2.387  70.227  0.00  0.00    -0.281 OA
ATOM     22  C   UNL     1      -8.314   4.706  70.707  0.00  0.00    +0.279 C 
ATOM     23  C   UNL     1      -9.275   4.017  71.882  0.00  0.00    +0.065 C 
ATOM     24  C   UNL     1      -8.731   4.630  73.219  0.00  0.00    +0.038 C 
ATOM     25  C   UNL     1      -7.742   5.833  73.431  0.00  0.00    +0.145 C 
ATOM     26  C   UNL     1      -6.900   5.854  71.928  0.00  0.00    +0.172 C 
ATOM     27  C   UNL     1      -5.529   5.376  72.850  0.00  0.00    +0.145 C 
ATOM     28  C   UNL     1      -4.761   6.782  72.524  0.00  0.00    +0.032 C 
ATOM     29  C   UNL     1      -4.167   7.014  74.030  0.00  0.00    +0.007 C 
ATOM     30  C   UNL     1      -2.670   7.296  73.453  0.00  0.00    +0.000 C 
ATOM     31  C   UNL     1      -4.642   8.562  74.057  0.00  0.00    +0.022 C 
ATOM     32  C   UNL     1      -3.586   9.510  73.901  0.00  0.00    -0.048 C 
ATOM     33  C   UNL     1      -2.544   9.454  74.979  0.00  0.00    +0.026 C 
ATOM     34  C   UNL     1     -10.549   5.069  71.854  0.00  0.00    +0.006 C 
ATOM     35  O   UNL     1      -8.844   5.844  70.700  0.00  0.00    -0.187 OA
ATOM     36  O   UNL     1      -7.163   4.455  71.497  0.00  0.00    -0.324 OA
ATOM     37  C   UNL     1      -7.491   5.611  66.926  0.00  0.00    +0.031 C 
ATOM     38  C   UNL     1      -3.502  10.187  72.783  0.00  0.00    -0.027 C 
ENDROOT
BRANCH   9  39
ATOM     39  C   UNL     1      -9.166  10.194  68.598  0.00  0.00    -0.009 C 
ATOM     40  C   UNL     1      -9.181  10.605  67.355  0.00  0.00    -0.031 C 
ATOM     41  C   UNL     1     -10.367  10.500  69.447  0.00  0.00    +0.030 C 
BRANCH  40  42
ATOM     42  C   UNL     1     -10.588  11.185  66.819  0.00  0.00    +0.024 C 
ATOM     43  C   UNL     1      -9.956  12.577  66.229  0.00  0.00    +0.037 C 
ATOM     44  C   UNL     1     -11.259  12.748  65.238  0.00  0.00    +0.146 C 
ATOM     45  C   UNL     1     -10.425  12.330  63.791  0.00  0.00    +0.179 C 
ATOM     46  O   UNL     1     -11.542  11.397  63.394  0.00  0.00    -0.221 OA
ATOM     47  C   UNL     1      -9.578  11.104  64.472  0.00  0.00    +0.036 C 
ATOM     48  C   UNL     1     -10.470  10.407  65.393  0.00  0.00    +0.007 C 
BRANCH  44  49
ATOM     49  O   UNL     1     -11.004  14.213  65.018  0.00  0.00    -0.351 OA
ATOM     50  C   UNL     1     -11.126  14.850  66.221  0.00  0.00    +0.174 C 
ENDBRANCH  44  49
ENDBRANCH  40  42
ENDBRANCH   9  39
BRANCH  27  51
ATOM     51  O   UNL     1      -4.815   4.673  71.723  0.00  0.00    -0.351 OA
ATOM     52  C   UNL     1      -3.961   3.835  72.439  0.00  0.00    +0.174 C 
ENDBRANCH  27  51
BRANCH  25  53
ATOM     53  O   UNL     1      -8.732   6.928  73.045  0.00  0.00    -0.351 OA
ATOM     54  C   UNL     1      -8.763   7.810  74.119  0.00  0.00    +0.174 C 
ENDBRANCH  25  53
BRANCH   1  55
ATOM     55  C   UNL     1      -3.217  12.491  72.516  0.00  0.00    +0.038 C 
BRANCH  55  57
ATOM     56  C   UNL     1      -3.010  13.380  74.493  0.00  0.00    -0.005 C 
ATOM     57  C   UNL     1      -3.318  13.357  73.704  0.00  0.00    -0.025 C 
ENDBRANCH  55  57
ENDBRANCH   1  55
TORSDOF 7
ENDMDL
MODEL 9
REMARK VINA RESULT:      -5.8      1.963      3.249
REMARK  Name = 
REMARK  7 active torsions:
REMARK  status: ('A' for Active; 'I' for Inactive)
REMARK    1  A    between atoms: C_2  and  C_3
REMARK    2  A    between atoms: C_3  and  C_4
REMARK    3  A    between atoms: C_12  and  O_13
REMARK    4  A    between atoms: C_32  and  C_33
REMARK    5  A    between atoms: C_35  and  C_36
REMARK    6  A    between atoms: C_41  and  O_42
REMARK    7  A    between atoms: C_55  and  O_56
REMARK                            x       y       z     vdW  Elec       q    Type
REMARK                         _______ _______ _______ _____ _____    ______ ____
ROOT
ATOM      1  C   UNL     1     -10.631  11.815  68.101  0.00  0.00    +0.083 C 
ATOM      2  C   UNL     1     -11.242  10.420  68.614  0.00  0.00    +0.157 C 
ATOM      3  O   UNL     1     -11.674  10.491  69.765  0.00  0.00    -0.296 OA
ATOM      4  C   UNL     1     -10.699   9.171  68.146  0.00  0.00    +0.098 C 
ATOM      5  C   UNL     1      -9.597   8.619  69.230  0.00  0.00    +0.163 C 
ATOM      6  O   UNL     1      -8.516   8.564  68.173  0.00  0.00    -0.223 OA
ATOM      7  C   UNL     1     -10.072   6.989  69.097  0.00  0.00    +0.075 C 
ATOM      8  C   UNL     1     -10.084   6.891  67.503  0.00  0.00    +0.007 C 
ATOM      9  C   UNL     1      -8.484   6.400  69.223  0.00  0.00    +0.189 C 
ATOM     10  O   UNL     1      -8.886   4.928  69.184  0.00  0.00    -0.447 OA
ATOM     11  C   UNL     1      -7.955   4.009  68.746  0.00  0.00    +0.335 C 
ATOM     12  O   UNL     1      -6.842   3.726  69.263  0.00  0.00    -0.248 OA
ATOM     13  C   UNL     1      -7.937   4.258  67.148  0.00  0.00    +0.175 C 
ATOM     14  N   UNL     1      -6.956   3.067  66.867  0.00  0.00    -0.265 N 
ATOM     15  C   UNL     1      -7.002   1.873  67.627  0.00  0.00    +0.094 C 
ATOM     16  C   UNL     1      -8.331   1.285  67.901  0.00  0.00    +0.022 C 
ATOM     17  C   UNL     1      -9.401   2.315  67.937  0.00  0.00    +0.004 C 
ATOM     18  C   UNL     1      -6.438   3.012  65.551  0.00  0.00    +0.289 C 
ATOM     19  O   UNL     1      -6.093   1.880  65.116  0.00  0.00    -0.267 OA
ATOM     20  C   UNL     1      -6.383   4.257  64.828  0.00  0.00    +0.279 C 
ATOM     21  O   UNL     1      -5.930   4.038  63.647  0.00  0.00    -0.281 OA
ATOM     22  C   UNL     1      -6.376   5.605  65.368  0.00  0.00    +0.279 C 
ATOM     23  C   UNL     1      -4.791   5.905  64.946  0.00  0.00    +0.065 C 
ATOM     24  C   UNL     1      -4.749   7.456  64.721  0.00  0.00    +0.038 C 
ATOM     25  C   UNL     1      -5.822   8.544  65.091  0.00  0.00    +0.145 C 
ATOM     26  C   UNL     1      -7.262   7.599  65.151  0.00  0.00    +0.172 C 
ATOM     27  C   UNL     1      -7.741   8.497  63.764  0.00  0.00    +0.145 C 
ATOM     28  C   UNL     1      -8.974   9.193  64.582  0.00  0.00    +0.032 C 
ATOM     29  C   UNL     1      -8.764  10.697  63.976  0.00  0.00    +0.007 C 
ATOM     30  C   UNL     1     -10.345  10.824  63.604  0.00  0.00    +0.000 C 
ATOM     31  C   UNL     1      -8.869  11.381  65.439  0.00  0.00    +0.022 C 
ATOM     32  C   UNL     1     -10.098  12.061  65.691  0.00  0.00    -0.048 C 
ATOM     33  C   UNL     1     -10.371  13.205  64.759  0.00  0.00    +0.026 C 
ATOM     34  C   UNL     1      -4.124   6.050  66.451  0.00  0.00    +0.006 C 
ATOM     35  O   UNL     1      -6.321   6.033  66.547  0.00  0.00    -0.187 OA
ATOM     36  O   UNL     1      -6.818   6.450  64.318  0.00  0.00    -0.324 OA
ATOM     37  C   UNL     1      -9.235   3.287  66.867  0.00  0.00    +0.031 C 
ATOM     38  C   UNL     1     -10.947  11.541  66.541  0.00  0.00    -0.027 C 
ENDROOT
BRANCH   9  39
ATOM     39  C   UNL     1      -8.525   6.509  70.832  0.00  0.00    -0.009 C 
ATOM     40  C   UNL     1      -9.315   5.761  71.559  0.00  0.00    -0.031 C 
ATOM     41  C   UNL     1      -7.212   6.924  71.433  0.00  0.00    +0.030 C 
BRANCH  40  42
ATOM     42  C   UNL     1      -8.680   5.180  72.924  0.00  0.00    +0.024 C 
ATOM     43  C   UNL     1     -10.048   5.352  73.807  0.00  0.00    +0.037 C 
ATOM     44  C   UNL     1      -9.499   4.230  74.878  0.00  0.00    +0.146 C 
ATOM     45  C   UNL     1     -10.567   2.979  74.373  0.00  0.00    +0.179 C 
ATOM     46  O   UNL     1      -9.425   1.994  74.332  0.00  0.00    -0.221 OA
ATOM     47  C   UNL     1     -10.409   3.302  72.775  0.00  0.00    +0.036 C 
ATOM     48  C   UNL     1      -9.009   3.634  72.526  0.00  0.00    +0.007 C 
BRANCH  44  49
ATOM     49  O   UNL     1     -10.450   4.671  75.956  0.00  0.00    -0.351 OA
ATOM     50  C   UNL     1      -9.769   5.490  76.813  0.00  0.00    +0.174 C 
ENDBRANCH  44  49
ENDBRANCH  40  42
ENDBRANCH   9  39
BRANCH  27  51
ATOM     51  O   UNL     1      -8.655   7.440  63.197  0.00  0.00    -0.351 OA
ATOM     52  C   UNL     1      -8.693   7.821  61.856  0.00  0.00    +0.174 C 
ENDBRANCH  27  51
BRANCH  25  53
ATOM     53  O   UNL     1      -5.577   8.509  66.596  0.00  0.00    -0.351 OA
ATOM     54  C   UNL     1      -4.926   9.698  66.905  0.00  0.00    +0.174 C 
ENDBRANCH  25  53
BRANCH   1  55
ATOM     55  C   UNL     1     -12.053  12.606  68.303  0.00  0.00    +0.038 C 
BRANCH  55  57
ATOM     56  C   UNL     1     -11.156  14.511  68.864  0.00  0.00    -0.005 C 
ATOM     57  C   UNL     1     -11.663  14.025  68.389  0.00  0.00    -0.025 C 
ENDBRANCH  55  57
ENDBRANCH   1  55
TORSDOF 7
ENDMDL
