MODEL 1
REMARK VINA RESULT:      -4.6      0.000      0.000
REMARK  Name = 
REMARK  5 active torsions:
REMARK  status: ('A' for Active; 'I' for Inactive)
REMARK    1  A    between atoms: P_2  and  N_3
REMARK    2  A    between atoms: N_3  and  C_4
REMARK    3  A    between atoms: N_3  and  C_7
REMARK    4  A    between atoms: C_4  and  C_5
REMARK    5  A    between atoms: C_7  and  C_8
REMARK                            x       y       z     vdW  Elec       q    Type
REMARK                         _______ _______ _______ _____ _____    ______ ____
ROOT
ATOM      1  O   UNL     1     -11.010  17.709  64.879  0.00  0.00    -0.253 OA
ATOM      2  P   UNL     1     -10.289  17.140  66.085  0.00  0.00    +0.365 P 
ATOM      3  O   UNL     1      -8.624  17.391  65.916  0.00  0.00    -0.291 OA
ATOM      4  C   UNL     1      -8.355  18.653  66.467  0.00  0.00    +0.153 C 
ATOM      5  C   UNL     1      -9.527  19.600  66.259  0.00  0.00    +0.052 C 
ATOM      6  C   UNL     1     -10.583  19.419  67.332  0.00  0.00    +0.102 C 
ATOM      7  N   UNL     1     -10.769  18.000  67.542  0.00  0.00    -0.133 NA
ENDROOT
BRANCH   2   8
ATOM      8  N   UNL     1     -10.735  15.499  66.252  0.00  0.00    -0.195 NA
BRANCH   8   9
ATOM      9  C   UNL     1     -10.384  14.858  67.473  0.00  0.00    +0.099 C 
BRANCH   9  10
ATOM     10  C   UNL     1     -11.690  14.541  68.195  0.00  0.00    +0.113 C 
ATOM     11 CL   UNL     1     -11.829  12.787  68.473  0.00  0.00    -0.112 Cl
ENDBRANCH   9  10
ENDBRANCH   8   9
BRANCH   8  12
ATOM     12  C   UNL     1     -10.766  14.702  65.088  0.00  0.00    +0.099 C 
BRANCH  12  13
ATOM     13  C   UNL     1     -12.130  14.378  64.561  0.00  0.00    +0.113 C 
ATOM     14 CL   UNL     1     -12.592  12.718  65.002  0.00  0.00    -0.112 Cl
ENDBRANCH  12  13
ENDBRANCH   8  12
ENDBRANCH   2   8
TORSDOF 5
ENDMDL
MODEL 2
REMARK VINA RESULT:      -4.6      0.431      2.140
REMARK  Name = 
REMARK  5 active torsions:
REMARK  status: ('A' for Active; 'I' for Inactive)
REMARK    1  A    between atoms: P_2  and  N_3
REMARK    2  A    between atoms: N_3  and  C_4
REMARK    3  A    between atoms: N_3  and  C_7
REMARK    4  A    between atoms: C_4  and  C_5
REMARK    5  A    between atoms: C_7  and  C_8
REMARK                            x       y       z     vdW  Elec       q    Type
REMARK                         _______ _______ _______ _____ _____    ______ ____
ROOT
ATOM      1  O   UNL     1     -11.011  17.612  64.862  0.00  0.00    -0.253 OA
ATOM      2  P   UNL     1     -10.255  17.071  66.059  0.00  0.00    +0.365 P 
ATOM      3  O   UNL     1      -8.607  17.410  65.886  0.00  0.00    -0.291 OA
ATOM      4  C   UNL     1      -8.401  18.679  66.448  0.00  0.00    +0.153 C 
ATOM      5  C   UNL     1      -9.623  19.565  66.255  0.00  0.00    +0.052 C 
ATOM      6  C   UNL     1     -10.663  19.318  67.330  0.00  0.00    +0.102 C 
ATOM      7  N   UNL     1     -10.773  17.890  67.526  0.00  0.00    -0.133 NA
ENDROOT
BRANCH   2   8
ATOM      8  N   UNL     1     -10.614  15.407  66.212  0.00  0.00    -0.195 NA
BRANCH   8   9
ATOM      9  C   UNL     1     -10.760  14.666  65.006  0.00  0.00    +0.099 C 
BRANCH   9  10
ATOM     10  C   UNL     1     -12.245  14.352  64.858  0.00  0.00    +0.113 C 
ATOM     11 CL   UNL     1     -12.502  12.589  64.842  0.00  0.00    -0.112 Cl
ENDBRANCH   9  10
ENDBRANCH   8   9
BRANCH   8  12
ATOM     12  C   UNL     1     -11.388  14.998  67.319  0.00  0.00    +0.099 C 
BRANCH  12  13
ATOM     13  C   UNL     1     -10.747  13.985  68.216  0.00  0.00    +0.113 C 
ATOM     14 CL   UNL     1     -11.749  12.518  68.319  0.00  0.00    -0.112 Cl
ENDBRANCH  12  13
ENDBRANCH   8  12
ENDBRANCH   2   8
TORSDOF 5
ENDMDL
MODEL 3
REMARK VINA RESULT:      -4.3      1.624      2.931
REMARK  Name = 
REMARK  5 active torsions:
REMARK  status: ('A' for Active; 'I' for Inactive)
REMARK    1  A    between atoms: P_2  and  N_3
REMARK    2  A    between atoms: N_3  and  C_4
REMARK    3  A    between atoms: N_3  and  C_7
REMARK    4  A    between atoms: C_4  and  C_5
REMARK    5  A    between atoms: C_7  and  C_8
REMARK                            x       y       z     vdW  Elec       q    Type
REMARK                         _______ _______ _______ _____ _____    ______ ____
ROOT
ATOM      1  O   UNL     1     -10.350  17.136  65.484  0.00  0.00    -0.253 OA
ATOM      2  P   UNL     1     -10.024  17.214  66.962  0.00  0.00    +0.365 P 
ATOM      3  O   UNL     1      -8.364  17.471  67.162  0.00  0.00    -0.291 OA
ATOM      4  C   UNL     1      -8.172  18.861  67.142  0.00  0.00    +0.153 C 
ATOM      5  C   UNL     1      -9.178  19.537  66.222  0.00  0.00    +0.052 C 
ATOM      6  C   UNL     1     -10.497  19.785  66.928  0.00  0.00    +0.102 C 
ATOM      7  N   UNL     1     -10.826  18.600  67.689  0.00  0.00    -0.133 NA
ENDROOT
BRANCH   2   8
ATOM      8  N   UNL     1     -10.607  15.795  67.715  0.00  0.00    -0.195 NA
BRANCH   8   9
ATOM      9  C   UNL     1     -10.566  14.596  66.949  0.00  0.00    +0.099 C 
BRANCH   9  10
ATOM     10  C   UNL     1     -12.012  14.164  66.730  0.00  0.00    +0.113 C 
ATOM     11 CL   UNL     1     -12.436  14.287  65.004  0.00  0.00    -0.112 Cl
ENDBRANCH   9  10
ENDBRANCH   8   9
BRANCH   8  12
ATOM     12  C   UNL     1     -11.653  15.928  68.653  0.00  0.00    +0.099 C 
BRANCH  12  13
ATOM     13  C   UNL     1     -11.245  15.853  70.092  0.00  0.00    +0.113 C 
ATOM     14 CL   UNL     1     -12.677  15.778  71.145  0.00  0.00    -0.112 Cl
ENDBRANCH  12  13
ENDBRANCH   8  12
ENDBRANCH   2   8
TORSDOF 5
ENDMDL
MODEL 4
REMARK VINA RESULT:      -4.3      1.913      2.363
REMARK  Name = 
REMARK  5 active torsions:
REMARK  status: ('A' for Active; 'I' for Inactive)
REMARK    1  A    between atoms: P_2  and  N_3
REMARK    2  A    between atoms: N_3  and  C_4
REMARK    3  A    between atoms: N_3  and  C_7
REMARK    4  A    between atoms: C_4  and  C_5
REMARK    5  A    between atoms: C_7  and  C_8
REMARK                            x       y       z     vdW  Elec       q    Type
REMARK                         _______ _______ _______ _____ _____    ______ ____
ROOT
ATOM      1  O   UNL     1      -8.892  17.563  68.645  0.00  0.00    -0.253 OA
ATOM      2  P   UNL     1      -9.779  17.535  67.416  0.00  0.00    +0.365 P 
ATOM      3  O   UNL     1     -10.977  18.721  67.557  0.00  0.00    -0.291 OA
ATOM      4  C   UNL     1     -10.435  19.899  67.023  0.00  0.00    +0.153 C 
ATOM      5  C   UNL     1      -8.935  19.969  67.270  0.00  0.00    +0.052 C 
ATOM      6  C   UNL     1      -8.163  19.202  66.214  0.00  0.00    +0.102 C 
ATOM      7  N   UNL     1      -8.846  17.949  65.984  0.00  0.00    -0.133 NA
ENDROOT
BRANCH   2   8
ATOM      8  N   UNL     1     -10.384  15.948  67.229  0.00  0.00    -0.195 NA
BRANCH   8   9
ATOM      9  C   UNL     1     -10.531  15.171  68.411  0.00  0.00    +0.099 C 
BRANCH   9  10
ATOM     10  C   UNL     1     -11.833  15.615  69.071  0.00  0.00    +0.113 C 
ATOM     11 CL   UNL     1     -11.530  16.112  70.755  0.00  0.00    -0.112 Cl
ENDBRANCH   9  10
ENDBRANCH   8   9
BRANCH   8  12
ATOM     12  C   UNL     1     -10.073  15.260  66.037  0.00  0.00    +0.099 C 
BRANCH  12  13
ATOM     13  C   UNL     1     -11.166  15.208  65.015  0.00  0.00    +0.113 C 
ATOM     14 CL   UNL     1     -12.458  14.103  65.536  0.00  0.00    -0.112 Cl
ENDBRANCH  12  13
ENDBRANCH   8  12
ENDBRANCH   2   8
TORSDOF 5
ENDMDL
MODEL 5
REMARK VINA RESULT:      -4.1      1.807      2.117
REMARK  Name = 
REMARK  5 active torsions:
REMARK  status: ('A' for Active; 'I' for Inactive)
REMARK    1  A    between atoms: P_2  and  N_3
REMARK    2  A    between atoms: N_3  and  C_4
REMARK    3  A    between atoms: N_3  and  C_7
REMARK    4  A    between atoms: C_4  and  C_5
REMARK    5  A    between atoms: C_7  and  C_8
REMARK                            x       y       z     vdW  Elec       q    Type
REMARK                         _______ _______ _______ _____ _____    ______ ____
ROOT
ATOM      1  O   UNL     1     -11.040  17.427  68.102  0.00  0.00    -0.253 OA
ATOM      2  P   UNL     1     -10.042  17.459  66.962  0.00  0.00    +0.365 P 
ATOM      3  O   UNL     1     -10.602  18.501  65.752  0.00  0.00    -0.291 OA
ATOM      4  C   UNL     1     -10.128  19.781  66.080  0.00  0.00    +0.153 C 
ATOM      5  C   UNL     1     -10.049  19.963  67.588  0.00  0.00    +0.052 C 
ATOM      6  C   UNL     1      -8.756  19.402  68.147  0.00  0.00    +0.102 C 
ATOM      7  N   UNL     1      -8.511  18.127  67.513  0.00  0.00    -0.133 NA
ENDROOT
BRANCH   2   8
ATOM      8  N   UNL     1      -9.777  15.855  66.435  0.00  0.00    -0.195 NA
BRANCH   8   9
ATOM      9  C   UNL     1      -8.525  15.267  66.769  0.00  0.00    +0.099 C 
BRANCH   9  10
ATOM     10  C   UNL     1      -8.723  14.534  68.093  0.00  0.00    +0.113 C 
ATOM     11 CL   UNL     1      -8.991  12.797  67.799  0.00  0.00    -0.112 Cl
ENDBRANCH   9  10
ENDBRANCH   8   9
BRANCH   8  12
ATOM     12  C   UNL     1     -10.380  15.451  65.225  0.00  0.00    +0.099 C 
BRANCH  12  13
ATOM     13  C   UNL     1     -11.231  14.221  65.306  0.00  0.00    +0.113 C 
ATOM     14 CL   UNL     1     -12.165  14.206  66.821  0.00  0.00    -0.112 Cl
ENDBRANCH  12  13
ENDBRANCH   8  12
ENDBRANCH   2   8
TORSDOF 5
ENDMDL
MODEL 6
REMARK VINA RESULT:      -4.1      1.724      3.059
REMARK  Name = 
REMARK  5 active torsions:
REMARK  status: ('A' for Active; 'I' for Inactive)
REMARK    1  A    between atoms: P_2  and  N_3
REMARK    2  A    between atoms: N_3  and  C_4
REMARK    3  A    between atoms: N_3  and  C_7
REMARK    4  A    between atoms: C_4  and  C_5
REMARK    5  A    between atoms: C_7  and  C_8
REMARK                            x       y       z     vdW  Elec       q    Type
REMARK                         _______ _______ _______ _____ _____    ______ ____
ROOT
ATOM      1  O   UNL     1      -8.761  17.657  68.657  0.00  0.00    -0.253 OA
ATOM      2  P   UNL     1      -9.651  17.512  67.440  0.00  0.00    +0.365 P 
ATOM      3  O   UNL     1     -10.962  18.574  67.568  0.00  0.00    -0.291 OA
ATOM      4  C   UNL     1     -10.545  19.789  67.003  0.00  0.00    +0.153 C 
ATOM      5  C   UNL     1      -9.058  20.015  67.232  0.00  0.00    +0.052 C 
ATOM      6  C   UNL     1      -8.222  19.306  66.185  0.00  0.00    +0.102 C 
ATOM      7  N   UNL     1      -8.777  17.986  65.989  0.00  0.00    -0.133 NA
ENDROOT
BRANCH   2   8
ATOM      8  N   UNL     1     -10.095  15.868  67.292  0.00  0.00    -0.195 NA
BRANCH   8   9
ATOM      9  C   UNL     1     -10.757  15.485  66.093  0.00  0.00    +0.099 C 
BRANCH   9  10
ATOM     10  C   UNL     1     -10.549  13.982  65.935  0.00  0.00    +0.113 C 
ATOM     11 CL   UNL     1     -12.118  13.138  65.976  0.00  0.00    -0.112 Cl
ENDBRANCH   9  10
ENDBRANCH   8   9
BRANCH   8  12
ATOM     12  C   UNL     1     -10.434  15.169  68.471  0.00  0.00    +0.099 C 
BRANCH  12  13
ATOM     13  C   UNL     1     -11.749  15.537  69.085  0.00  0.00    +0.113 C 
ATOM     14 CL   UNL     1     -12.385  14.189  70.056  0.00  0.00    -0.112 Cl
ENDBRANCH  12  13
ENDBRANCH   8  12
ENDBRANCH   2   8
TORSDOF 5
ENDMDL
MODEL 7
REMARK VINA RESULT:      -4.1      4.057      5.646
REMARK  Name = 
REMARK  5 active torsions:
REMARK  status: ('A' for Active; 'I' for Inactive)
REMARK    1  A    between atoms: P_2  and  N_3
REMARK    2  A    between atoms: N_3  and  C_4
REMARK    3  A    between atoms: N_3  and  C_7
REMARK    4  A    between atoms: C_4  and  C_5
REMARK    5  A    between atoms: C_7  and  C_8
REMARK                            x       y       z     vdW  Elec       q    Type
REMARK                         _______ _______ _______ _____ _____    ______ ____
ROOT
ATOM      1  O   UNL     1     -10.316  13.791  65.303  0.00  0.00    -0.253 OA
ATOM      2  P   UNL     1     -11.376  12.805  65.749  0.00  0.00    +0.365 P 
ATOM      3  O   UNL     1     -12.722  12.923  64.730  0.00  0.00    -0.291 OA
ATOM      4  C   UNL     1     -12.488  12.045  63.660  0.00  0.00    +0.153 C 
ATOM      5  C   UNL     1     -11.003  11.961  63.339  0.00  0.00    +0.052 C 
ATOM      6  C   UNL     1     -10.297  10.965  64.238  0.00  0.00    +0.102 C 
ATOM      7  N   UNL     1     -10.781  11.158  65.586  0.00  0.00    -0.133 NA
ENDROOT
BRANCH   2   8
ATOM      8  N   UNL     1     -11.721  13.096  67.397  0.00  0.00    -0.195 NA
BRANCH   8   9
ATOM      9  C   UNL     1     -12.055  14.431  67.759  0.00  0.00    +0.099 C 
BRANCH   9  10
ATOM     10  C   UNL     1     -11.199  14.787  68.970  0.00  0.00    +0.113 C 
ATOM     11 CL   UNL     1     -12.186  15.622  70.196  0.00  0.00    -0.112 Cl
ENDBRANCH   9  10
ENDBRANCH   8   9
BRANCH   8  12
ATOM     12  C   UNL     1     -11.047  12.314  68.360  0.00  0.00    +0.099 C 
BRANCH  12  13
ATOM     13  C   UNL     1     -11.856  11.221  68.986  0.00  0.00    +0.113 C 
ATOM     14 CL   UNL     1     -12.294  11.646  70.657  0.00  0.00    -0.112 Cl
ENDBRANCH  12  13
ENDBRANCH   8  12
ENDBRANCH   2   8
TORSDOF 5
ENDMDL
MODEL 8
REMARK VINA RESULT:      -4.0      2.637      4.874
REMARK  Name = 
REMARK  5 active torsions:
REMARK  status: ('A' for Active; 'I' for Inactive)
REMARK    1  A    between atoms: P_2  and  N_3
REMARK    2  A    between atoms: N_3  and  C_4
REMARK    3  A    between atoms: N_3  and  C_7
REMARK    4  A    between atoms: C_4  and  C_5
REMARK    5  A    between atoms: C_7  and  C_8
REMARK                            x       y       z     vdW  Elec       q    Type
REMARK                         _______ _______ _______ _____ _____    ______ ____
ROOT
ATOM      1  O   UNL     1     -10.948  15.845  64.620  0.00  0.00    -0.253 OA
ATOM      2  P   UNL     1     -11.014  14.927  65.823  0.00  0.00    +0.365 P 
ATOM      3  O   UNL     1     -12.590  14.337  65.997  0.00  0.00    -0.291 OA
ATOM      4  C   UNL     1     -12.667  13.172  65.220  0.00  0.00    +0.153 C 
ATOM      5  C   UNL     1     -11.777  13.277  63.991  0.00  0.00    +0.052 C 
ATOM      6  C   UNL     1     -10.343  12.902  64.311  0.00  0.00    +0.102 C 
ATOM      7  N   UNL     1      -9.990  13.519  65.570  0.00  0.00    -0.133 NA
ENDROOT
BRANCH   2   8
ATOM      8  N   UNL     1     -10.433  15.782  67.184  0.00  0.00    -0.195 NA
BRANCH   8   9
ATOM      9  C   UNL     1      -9.738  16.997  66.931  0.00  0.00    +0.099 C 
BRANCH   9  10
ATOM     10  C   UNL     1     -10.403  18.071  67.786  0.00  0.00    +0.113 C 
ATOM     11 CL   UNL     1     -10.670  19.546  66.822  0.00  0.00    -0.112 Cl
ENDBRANCH   9  10
ENDBRANCH   8   9
BRANCH   8  12
ATOM     12  C   UNL     1     -10.040  15.034  68.314  0.00  0.00    +0.099 C 
BRANCH  12  13
ATOM     13  C   UNL     1     -11.142  14.654  69.254  0.00  0.00    +0.113 C 
ATOM     14 CL   UNL     1     -11.582  12.943  69.044  0.00  0.00    -0.112 Cl
ENDBRANCH  12  13
ENDBRANCH   8  12
ENDBRANCH   2   8
TORSDOF 5
ENDMDL
MODEL 9
REMARK VINA RESULT:      -4.0      1.758      2.801
REMARK  Name = 
REMARK  5 active torsions:
REMARK  status: ('A' for Active; 'I' for Inactive)
REMARK    1  A    between atoms: P_2  and  N_3
REMARK    2  A    between atoms: N_3  and  C_4
REMARK    3  A    between atoms: N_3  and  C_7
REMARK    4  A    between atoms: C_4  and  C_5
REMARK    5  A    between atoms: C_7  and  C_8
REMARK                            x       y       z     vdW  Elec       q    Type
REMARK                         _______ _______ _______ _____ _____    ______ ____
ROOT
ATOM      1  O   UNL     1     -11.309  16.766  68.398  0.00  0.00    -0.253 OA
ATOM      2  P   UNL     1     -10.404  16.451  67.225  0.00  0.00    +0.365 P 
ATOM      3  O   UNL     1     -10.436  17.738  66.126  0.00  0.00    -0.291 OA
ATOM      4  C   UNL     1      -9.437  18.634  66.536  0.00  0.00    +0.153 C 
ATOM      5  C   UNL     1      -9.283  18.625  68.050  0.00  0.00    +0.052 C 
ATOM      6  C   UNL     1      -8.380  17.496  68.508  0.00  0.00    +0.102 C 
ATOM      7  N   UNL     1      -8.737  16.309  67.764  0.00  0.00    -0.133 NA
ENDROOT
BRANCH   2   8
ATOM      8  N   UNL     1     -10.889  14.953  66.560  0.00  0.00    -0.195 NA
BRANCH   8   9
ATOM      9  C   UNL     1     -10.706  14.780  65.160  0.00  0.00    +0.099 C 
BRANCH   9  10
ATOM     10  C   UNL     1     -12.089  14.542  64.561  0.00  0.00    +0.113 C 
ATOM     11 CL   UNL     1     -12.091  13.041  63.601  0.00  0.00    -0.112 Cl
ENDBRANCH   9  10
ENDBRANCH   8   9
BRANCH   8  12
ATOM     12  C   UNL     1     -11.983  14.290  67.157  0.00  0.00    +0.099 C 
BRANCH  12  13
ATOM     13  C   UNL     1     -11.640  13.088  67.981  0.00  0.00    +0.113 C 
ATOM     14 CL   UNL     1     -11.435  11.657  66.944  0.00  0.00    -0.112 Cl
ENDBRANCH  12  13
ENDBRANCH   8  12
ENDBRANCH   2   8
TORSDOF 5
ENDMDL
