MODEL 1
REMARK VINA RESULT:      -6.8      0.000      0.000
REMARK  Name = 
REMARK  10 active torsions:
REMARK  status: ('A' for Active; 'I' for Inactive)
REMARK    1  A    between atoms: C_2  and  C_3
REMARK    2  A    between atoms: C_3  and  C_4
REMARK    3  A    between atoms: C_4  and  O_6
REMARK    4  A    between atoms: O_6  and  C_7
REMARK    5  A    between atoms: C_7  and  O_8
REMARK    6  A    between atoms: O_8  and  C_9
REMARK    7  A    between atoms: C_9  and  C_11
REMARK    8  A    between atoms: C_17  and  C_18
REMARK    9  A    between atoms: C_18  and  O_20
REMARK   10  A    between atoms: C_22  and  C_23
REMARK                            x       y       z     vdW  Elec       q    Type
REMARK                         _______ _______ _______ _____ _____    ______ ____
ROOT
ATOM      1  C   UNL     1     -11.163  13.954  68.636  0.00  0.00    +0.073 C 
ATOM      2  C   UNL     1     -11.358  14.492  67.093  0.00  0.00    +0.082 C 
ATOM      3  C   UNL     1     -10.242  15.681  67.287  0.00  0.00    +0.073 C 
ATOM      4  C   UNL     1     -10.867  16.640  67.985  0.00  0.00    +0.051 C 
ATOM      5  C   UNL     1     -10.202  17.980  68.046  0.00  0.00    +0.049 C 
ATOM      6  N   UNL     1     -11.736  16.267  69.065  0.00  0.00    -0.221 NA
ATOM      7  C   UNL     1     -11.765  14.872  69.402  0.00  0.00    +0.051 C 
ATOM      8  C   UNL     1     -12.739  14.514  70.481  0.00  0.00    +0.049 C 
ENDROOT
BRANCH   2   9
ATOM      9  C   UNL     1     -10.275  13.435  66.481  0.00  0.00    -0.002 A 
ATOM     10  C   UNL     1     -10.685  12.632  65.483  0.00  0.00    +0.065 A 
ATOM     11 CL   UNL     1     -12.333  12.472  64.981  0.00  0.00    -0.082 Cl
ATOM     12  C   UNL     1      -9.788  11.648  65.079  0.00  0.00    +0.068 A 
ATOM     13 CL   UNL     1      -9.955  11.001  63.451  0.00  0.00    -0.081 Cl
ATOM     14  C   UNL     1      -8.688  11.349  65.875  0.00  0.00    +0.012 A 
ATOM     15  C   UNL     1      -8.502  11.991  67.095  0.00  0.00    +0.001 A 
ATOM     16  C   UNL     1      -9.242  13.140  67.357  0.00  0.00    -0.003 A 
ENDBRANCH   2   9
BRANCH   3  17
ATOM     17  C   UNL     1      -9.846  16.117  65.935  0.00  0.00    +0.339 C 
ATOM     18  O   UNL     1     -10.718  16.584  65.138  0.00  0.00    -0.245 OA
BRANCH  17  19
ATOM     19  O   UNL     1      -8.569  16.679  65.813  0.00  0.00    -0.442 OA
ATOM     20  C   UNL     1      -7.478  16.210  66.605  0.00  0.00    +0.256 C 
ENDBRANCH  17  19
ENDBRANCH   3  17
BRANCH   1  21
ATOM     21  C   UNL     1     -11.617  12.560  68.785  0.00  0.00    +0.341 C 
ATOM     22  O   UNL     1     -12.363  11.992  67.928  0.00  0.00    -0.245 OA
BRANCH  21  23
ATOM     23  O   UNL     1     -10.791  11.651  69.459  0.00  0.00    -0.405 OA
BRANCH  23  24
ATOM     24  C   UNL     1     -11.202  10.309  69.705  0.00  0.00    +0.433 C 
BRANCH  24  25
ATOM     25  O   UNL     1     -11.457  10.052  71.054  0.00  0.00    -0.408 OA
BRANCH  25  26
ATOM     26  C   UNL     1     -12.681  10.110  71.674  0.00  0.00    +0.320 C 
ATOM     27  O   UNL     1     -13.233  11.238  71.761  0.00  0.00    -0.250 OA
BRANCH  26  28
ATOM     28  C   UNL     1     -13.295   8.972  72.421  0.00  0.00    +0.110 C 
BRANCH  28  30
ATOM     29  C   UNL     1     -14.887   7.566  71.832  0.00  0.00    +0.001 C 
ATOM     30  C   UNL     1     -14.296   8.366  71.441  0.00  0.00    +0.012 C 
ENDBRANCH  28  30
ENDBRANCH  26  28
ENDBRANCH  25  26
ENDBRANCH  24  25
ENDBRANCH  23  24
ENDBRANCH  21  23
ENDBRANCH   1  21
TORSDOF 10
ENDMDL
MODEL 2
REMARK VINA RESULT:      -6.7      2.177      6.650
REMARK  Name = 
REMARK  10 active torsions:
REMARK  status: ('A' for Active; 'I' for Inactive)
REMARK    1  A    between atoms: C_2  and  C_3
REMARK    2  A    between atoms: C_3  and  C_4
REMARK    3  A    between atoms: C_4  and  O_6
REMARK    4  A    between atoms: O_6  and  C_7
REMARK    5  A    between atoms: C_7  and  O_8
REMARK    6  A    between atoms: O_8  and  C_9
REMARK    7  A    between atoms: C_9  and  C_11
REMARK    8  A    between atoms: C_17  and  C_18
REMARK    9  A    between atoms: C_18  and  O_20
REMARK   10  A    between atoms: C_22  and  C_23
REMARK                            x       y       z     vdW  Elec       q    Type
REMARK                         _______ _______ _______ _____ _____    ______ ____
ROOT
ATOM      1  C   UNL     1     -11.019  14.849  67.814  0.00  0.00    +0.073 C 
ATOM      2  C   UNL     1     -10.418  13.418  68.360  0.00  0.00    +0.082 C 
ATOM      3  C   UNL     1     -11.831  13.021  69.097  0.00  0.00    +0.073 C 
ATOM      4  C   UNL     1     -11.857  13.747  70.224  0.00  0.00    +0.051 C 
ATOM      5  C   UNL     1     -12.873  13.367  71.256  0.00  0.00    +0.049 C 
ATOM      6  N   UNL     1     -11.406  15.109  70.189  0.00  0.00    -0.221 NA
ATOM      7  C   UNL     1     -11.079  15.636  68.895  0.00  0.00    +0.051 C 
ATOM      8  C   UNL     1     -10.541  17.033  68.910  0.00  0.00    +0.049 C 
ENDROOT
BRANCH   2   9
ATOM      9  C   UNL     1     -10.793  12.620  66.986  0.00  0.00    -0.002 A 
ATOM     10  C   UNL     1      -9.803  11.961  66.358  0.00  0.00    +0.065 A 
ATOM     11 CL   UNL     1      -8.127  12.107  66.770  0.00  0.00    -0.082 Cl
ATOM     12  C   UNL     1     -10.119  11.411  65.120  0.00  0.00    +0.068 A 
ATOM     13 CL   UNL     1      -9.145  10.062  64.547  0.00  0.00    -0.081 Cl
ATOM     14  C   UNL     1     -11.286  11.798  64.472  0.00  0.00    +0.012 A 
ATOM     15  C   UNL     1     -12.117  12.766  65.028  0.00  0.00    +0.001 A 
ATOM     16  C   UNL     1     -11.935  13.104  66.366  0.00  0.00    -0.003 A 
ENDBRANCH   2   9
BRANCH   3  17
ATOM     17  C   UNL     1     -11.786  11.568  69.349  0.00  0.00    +0.339 C 
ATOM     18  O   UNL     1     -12.514  10.784  68.665  0.00  0.00    -0.245 OA
BRANCH  17  19
ATOM     19  O   UNL     1     -10.547  11.043  69.736  0.00  0.00    -0.442 OA
ATOM     20  C   UNL     1     -10.169   9.711  69.389  0.00  0.00    +0.256 C 
ENDBRANCH  17  19
ENDBRANCH   3  17
BRANCH   1  21
ATOM     21  C   UNL     1     -10.251  15.355  66.662  0.00  0.00    +0.341 C 
ATOM     22  O   UNL     1     -10.729  16.199  65.842  0.00  0.00    -0.245 OA
BRANCH  21  23
ATOM     23  O   UNL     1      -8.857  15.449  66.772  0.00  0.00    -0.405 OA
BRANCH  23  24
ATOM     24  C   UNL     1      -8.136  16.542  66.211  0.00  0.00    +0.433 C 
BRANCH  24  25
ATOM     25  O   UNL     1      -7.512  17.341  67.172  0.00  0.00    -0.408 OA
BRANCH  25  26
ATOM     26  C   UNL     1      -7.716  18.685  67.368  0.00  0.00    +0.320 C 
ATOM     27  O   UNL     1      -7.620  19.120  68.545  0.00  0.00    -0.250 OA
BRANCH  26  28
ATOM     28  C   UNL     1      -8.236  19.613  66.320  0.00  0.00    +0.110 C 
BRANCH  28  30
ATOM     29  C   UNL     1     -10.436  19.672  66.199  0.00  0.00    +0.001 C 
ATOM     30  C   UNL     1      -9.626  20.006  66.812  0.00  0.00    +0.012 C 
ENDBRANCH  28  30
ENDBRANCH  26  28
ENDBRANCH  25  26
ENDBRANCH  24  25
ENDBRANCH  23  24
ENDBRANCH  21  23
ENDBRANCH   1  21
TORSDOF 10
ENDMDL
MODEL 3
REMARK VINA RESULT:      -6.5      2.224      6.637
REMARK  Name = 
REMARK  10 active torsions:
REMARK  status: ('A' for Active; 'I' for Inactive)
REMARK    1  A    between atoms: C_2  and  C_3
REMARK    2  A    between atoms: C_3  and  C_4
REMARK    3  A    between atoms: C_4  and  O_6
REMARK    4  A    between atoms: O_6  and  C_7
REMARK    5  A    between atoms: C_7  and  O_8
REMARK    6  A    between atoms: O_8  and  C_9
REMARK    7  A    between atoms: C_9  and  C_11
REMARK    8  A    between atoms: C_17  and  C_18
REMARK    9  A    between atoms: C_18  and  O_20
REMARK   10  A    between atoms: C_22  and  C_23
REMARK                            x       y       z     vdW  Elec       q    Type
REMARK                         _______ _______ _______ _____ _____    ______ ____
ROOT
ATOM      1  C   UNL     1     -11.480  13.466  67.878  0.00  0.00    +0.073 C 
ATOM      2  C   UNL     1     -10.340  12.395  68.389  0.00  0.00    +0.082 C 
ATOM      3  C   UNL     1     -11.470  11.347  68.955  0.00  0.00    +0.073 C 
ATOM      4  C   UNL     1     -11.886  11.870  70.117  0.00  0.00    +0.051 C 
ATOM      5  C   UNL     1     -12.688  10.981  71.016  0.00  0.00    +0.049 C 
ATOM      6  N   UNL     1     -12.087  13.288  70.215  0.00  0.00    -0.221 NA
ATOM      7  C   UNL     1     -11.950  14.033  68.996  0.00  0.00    +0.051 C 
ATOM      8  C   UNL     1     -12.091  15.515  69.153  0.00  0.00    +0.049 C 
ENDROOT
BRANCH   2   9
ATOM      9  C   UNL     1     -10.235  11.658  66.937  0.00  0.00    -0.002 A 
ATOM     10  C   UNL     1      -9.008  11.483  66.414  0.00  0.00    +0.065 A 
ATOM     11 CL   UNL     1      -7.569  12.201  67.055  0.00  0.00    -0.082 Cl
ATOM     12  C   UNL     1      -8.958  10.982  65.117  0.00  0.00    +0.068 A 
ATOM     13 CL   UNL     1      -7.489  10.158  64.609  0.00  0.00    -0.081 Cl
ATOM     14  C   UNL     1     -10.111  10.969  64.339  0.00  0.00    +0.012 A 
ATOM     15  C   UNL     1     -11.301  11.495  64.829  0.00  0.00    +0.001 A 
ATOM     16  C   UNL     1     -11.403  11.740  66.195  0.00  0.00    -0.003 A 
ENDBRANCH   2   9
BRANCH   3  17
ATOM     17  C   UNL     1     -10.799  10.043  69.117  0.00  0.00    +0.339 C 
ATOM     18  O   UNL     1     -10.986   9.124  68.261  0.00  0.00    -0.245 OA
BRANCH  17  19
ATOM     19  O   UNL     1      -9.523  10.069  69.693  0.00  0.00    -0.442 OA
ATOM     20  C   UNL     1      -9.193   9.223  70.794  0.00  0.00    +0.256 C 
ENDBRANCH  17  19
ENDBRANCH   3  17
BRANCH   1  21
ATOM     21  C   UNL     1     -10.947  14.371  66.844  0.00  0.00    +0.341 C 
ATOM     22  O   UNL     1     -11.684  14.891  65.949  0.00  0.00    -0.245 OA
BRANCH  21  23
ATOM     23  O   UNL     1      -9.841  15.172  67.156  0.00  0.00    -0.405 OA
BRANCH  23  24
ATOM     24  C   UNL     1      -8.983  15.687  66.141  0.00  0.00    +0.433 C 
BRANCH  24  25
ATOM     25  O   UNL     1      -9.048  17.077  66.019  0.00  0.00    -0.408 OA
BRANCH  25  26
ATOM     26  C   UNL     1     -10.169  17.854  66.184  0.00  0.00    +0.320 C 
ATOM     27  O   UNL     1     -10.865  18.092  65.162  0.00  0.00    -0.250 OA
BRANCH  26  28
ATOM     28  C   UNL     1     -10.497  18.592  67.440  0.00  0.00    +0.110 C 
BRANCH  28  30
ATOM     29  C   UNL     1      -9.025  20.226  67.301  0.00  0.00    +0.001 C 
ATOM     30  C   UNL     1     -10.067  20.030  67.164  0.00  0.00    +0.012 C 
ENDBRANCH  28  30
ENDBRANCH  26  28
ENDBRANCH  25  26
ENDBRANCH  24  25
ENDBRANCH  23  24
ENDBRANCH  21  23
ENDBRANCH   1  21
TORSDOF 10
ENDMDL
MODEL 4
REMARK VINA RESULT:      -6.3      2.227      5.952
REMARK  Name = 
REMARK  10 active torsions:
REMARK  status: ('A' for Active; 'I' for Inactive)
REMARK    1  A    between atoms: C_2  and  C_3
REMARK    2  A    between atoms: C_3  and  C_4
REMARK    3  A    between atoms: C_4  and  O_6
REMARK    4  A    between atoms: O_6  and  C_7
REMARK    5  A    between atoms: C_7  and  O_8
REMARK    6  A    between atoms: O_8  and  C_9
REMARK    7  A    between atoms: C_9  and  C_11
REMARK    8  A    between atoms: C_17  and  C_18
REMARK    9  A    between atoms: C_18  and  O_20
REMARK   10  A    between atoms: C_22  and  C_23
REMARK                            x       y       z     vdW  Elec       q    Type
REMARK                         _______ _______ _______ _____ _____    ______ ____
ROOT
ATOM      1  C   UNL     1     -10.927  15.048  67.415  0.00  0.00    +0.073 C 
ATOM      2  C   UNL     1     -10.332  13.637  68.016  0.00  0.00    +0.082 C 
ATOM      3  C   UNL     1     -11.741  13.282  68.780  0.00  0.00    +0.073 C 
ATOM      4  C   UNL     1     -11.752  14.054  69.876  0.00  0.00    +0.051 C 
ATOM      5  C   UNL     1     -12.763  13.725  70.931  0.00  0.00    +0.049 C 
ATOM      6  N   UNL     1     -11.292  15.410  69.781  0.00  0.00    -0.221 NA
ATOM      7  C   UNL     1     -10.972  15.881  68.463  0.00  0.00    +0.051 C 
ATOM      8  C   UNL     1     -10.423  17.272  68.415  0.00  0.00    +0.049 C 
ENDROOT
BRANCH   2   9
ATOM      9  C   UNL     1     -10.724  12.786  66.679  0.00  0.00    -0.002 A 
ATOM     10  C   UNL     1      -9.761  12.037  66.113  0.00  0.00    +0.065 A 
ATOM     11 CL   UNL     1      -8.089  12.110  66.555  0.00  0.00    -0.082 Cl
ATOM     12  C   UNL     1     -10.083  11.436  64.900  0.00  0.00    +0.068 A 
ATOM     13 CL   UNL     1      -9.178  10.004  64.426  0.00  0.00    -0.081 Cl
ATOM     14  C   UNL     1     -11.212  11.853  64.203  0.00  0.00    +0.012 A 
ATOM     15  C   UNL     1     -11.997  12.895  64.685  0.00  0.00    +0.001 A 
ATOM     16  C   UNL     1     -11.823  13.298  66.006  0.00  0.00    -0.003 A 
ENDBRANCH   2   9
BRANCH   3  17
ATOM     17  C   UNL     1     -11.705  11.840  69.092  0.00  0.00    +0.339 C 
ATOM     18  O   UNL     1     -12.445  11.034  68.448  0.00  0.00    -0.245 OA
BRANCH  17  19
ATOM     19  O   UNL     1     -10.466  11.322  69.489  0.00  0.00    -0.442 OA
ATOM     20  C   UNL     1     -10.121   9.961  69.235  0.00  0.00    +0.256 C 
ENDBRANCH  17  19
ENDBRANCH   3  17
BRANCH   1  21
ATOM     21  C   UNL     1     -10.164  15.500  66.238  0.00  0.00    +0.341 C 
ATOM     22  O   UNL     1     -10.608  16.380  65.435  0.00  0.00    -0.245 OA
BRANCH  21  23
ATOM     23  O   UNL     1      -8.764  15.491  66.298  0.00  0.00    -0.405 OA
BRANCH  23  24
ATOM     24  C   UNL     1      -8.001  16.679  66.111  0.00  0.00    +0.433 C 
BRANCH  24  25
ATOM     25  O   UNL     1      -6.864  16.735  66.920  0.00  0.00    -0.408 OA
BRANCH  25  26
ATOM     26  C   UNL     1      -6.813  17.178  68.219  0.00  0.00    +0.320 C 
ATOM     27  O   UNL     1      -7.024  18.402  68.422  0.00  0.00    -0.250 OA
BRANCH  26  28
ATOM     28  C   UNL     1      -6.330  16.353  69.365  0.00  0.00    +0.110 C 
BRANCH  28  30
ATOM     29  C   UNL     1      -6.892  14.221  69.362  0.00  0.00    +0.001 C 
ATOM     30  C   UNL     1      -7.322  15.197  69.451  0.00  0.00    +0.012 C 
ENDBRANCH  28  30
ENDBRANCH  26  28
ENDBRANCH  25  26
ENDBRANCH  24  25
ENDBRANCH  23  24
ENDBRANCH  21  23
ENDBRANCH   1  21
TORSDOF 10
ENDMDL
MODEL 5
REMARK VINA RESULT:      -6.2      2.606      4.420
REMARK  Name = 
REMARK  10 active torsions:
REMARK  status: ('A' for Active; 'I' for Inactive)
REMARK    1  A    between atoms: C_2  and  C_3
REMARK    2  A    between atoms: C_3  and  C_4
REMARK    3  A    between atoms: C_4  and  O_6
REMARK    4  A    between atoms: O_6  and  C_7
REMARK    5  A    between atoms: C_7  and  O_8
REMARK    6  A    between atoms: O_8  and  C_9
REMARK    7  A    between atoms: C_9  and  C_11
REMARK    8  A    between atoms: C_17  and  C_18
REMARK    9  A    between atoms: C_18  and  O_20
REMARK   10  A    between atoms: C_22  and  C_23
REMARK                            x       y       z     vdW  Elec       q    Type
REMARK                         _______ _______ _______ _____ _____    ______ ____
ROOT
ATOM      1  C   UNL     1     -10.229  11.242  66.687  0.00  0.00    +0.073 C 
ATOM      2  C   UNL     1     -10.164  12.731  65.992  0.00  0.00    +0.082 C 
ATOM      3  C   UNL     1     -11.623  12.537  65.264  0.00  0.00    +0.073 C 
ATOM      4  C   UNL     1     -11.389  11.741  64.212  0.00  0.00    +0.051 C 
ATOM      5  C   UNL     1     -12.470  11.640  63.180  0.00  0.00    +0.049 C 
ATOM      6  N   UNL     1     -10.491  10.631  64.359  0.00  0.00    -0.221 NA
ATOM      7  C   UNL     1     -10.005  10.381  65.687  0.00  0.00    +0.051 C 
ATOM      8  C   UNL     1      -9.012   9.265  65.786  0.00  0.00    +0.049 C 
ENDROOT
BRANCH   2   9
ATOM      9  C   UNL     1     -10.799  13.479  67.296  0.00  0.00    -0.002 A 
ATOM     10  C   UNL     1     -10.116  14.516  67.814  0.00  0.00    +0.065 A 
ATOM     11 CL   UNL     1      -8.505  14.945  67.349  0.00  0.00    -0.082 Cl
ATOM     12  C   UNL     1     -10.607  15.041  69.005  0.00  0.00    +0.068 A 
ATOM     13 CL   UNL     1     -10.191  16.705  69.402  0.00  0.00    -0.081 Cl
ATOM     14  C   UNL     1     -11.549  14.328  69.737  0.00  0.00    +0.012 A 
ATOM     15  C   UNL     1     -11.971  13.072  69.313  0.00  0.00    +0.001 A 
ATOM     16  C   UNL     1     -11.683  12.683  68.008  0.00  0.00    -0.003 A 
ENDBRANCH   2   9
BRANCH   3  17
ATOM     17  C   UNL     1     -12.088  13.883  64.876  0.00  0.00    +0.339 C 
ATOM     18  O   UNL     1     -13.160  14.350  65.372  0.00  0.00    -0.245 OA
BRANCH  17  19
ATOM     19  O   UNL     1     -11.093  14.831  64.612  0.00  0.00    -0.442 OA
ATOM     20  C   UNL     1     -11.380  16.229  64.640  0.00  0.00    +0.256 C 
ENDBRANCH  17  19
ENDBRANCH   3  17
BRANCH   1  21
ATOM     21  C   UNL     1      -9.336  11.151  67.857  0.00  0.00    +0.341 C 
ATOM     22  O   UNL     1      -8.295  11.869  67.976  0.00  0.00    -0.245 OA
BRANCH  21  23
ATOM     23  O   UNL     1      -9.885  10.798  69.097  0.00  0.00    -0.405 OA
BRANCH  23  24
ATOM     24  C   UNL     1      -9.959   9.439  69.520  0.00  0.00    +0.433 C 
BRANCH  24  25
ATOM     25  O   UNL     1     -11.222   9.080  69.997  0.00  0.00    -0.408 OA
BRANCH  25  26
ATOM     26  C   UNL     1     -11.698   9.287  71.269  0.00  0.00    +0.320 C 
ATOM     27  O   UNL     1     -11.078   8.736  72.216  0.00  0.00    -0.250 OA
BRANCH  26  28
ATOM     28  C   UNL     1     -13.002   9.946  71.577  0.00  0.00    +0.110 C 
BRANCH  28  30
ATOM     29  C   UNL     1     -14.482   8.316  71.678  0.00  0.00    +0.001 C 
ATOM     30  C   UNL     1     -13.812   8.873  72.299  0.00  0.00    +0.012 C 
ENDBRANCH  28  30
ENDBRANCH  26  28
ENDBRANCH  25  26
ENDBRANCH  24  25
ENDBRANCH  23  24
ENDBRANCH  21  23
ENDBRANCH   1  21
TORSDOF 10
ENDMDL
MODEL 6
REMARK VINA RESULT:      -6.1      3.231      6.716
REMARK  Name = 
REMARK  10 active torsions:
REMARK  status: ('A' for Active; 'I' for Inactive)
REMARK    1  A    between atoms: C_2  and  C_3
REMARK    2  A    between atoms: C_3  and  C_4
REMARK    3  A    between atoms: C_4  and  O_6
REMARK    4  A    between atoms: O_6  and  C_7
REMARK    5  A    between atoms: C_7  and  O_8
REMARK    6  A    between atoms: O_8  and  C_9
REMARK    7  A    between atoms: C_9  and  C_11
REMARK    8  A    between atoms: C_17  and  C_18
REMARK    9  A    between atoms: C_18  and  O_20
REMARK   10  A    between atoms: C_22  and  C_23
REMARK                            x       y       z     vdW  Elec       q    Type
REMARK                         _______ _______ _______ _____ _____    ______ ____
ROOT
ATOM      1  C   UNL     1     -11.311  10.078  69.593  0.00  0.00    +0.073 C 
ATOM      2  C   UNL     1      -9.818   9.596  70.089  0.00  0.00    +0.082 C 
ATOM      3  C   UNL     1     -10.357   8.102  70.507  0.00  0.00    +0.073 C 
ATOM      4  C   UNL     1     -10.987   8.270  71.679  0.00  0.00    +0.051 C 
ATOM      5  C   UNL     1     -11.312   7.035  72.460  0.00  0.00    +0.049 C 
ATOM      6  N   UNL     1     -11.813   9.428  71.870  0.00  0.00    -0.221 NA
ATOM      7  C   UNL     1     -12.008  10.264  70.720  0.00  0.00    +0.051 C 
ATOM      8  C   UNL     1     -12.812  11.500  70.979  0.00  0.00    +0.049 C 
ENDROOT
BRANCH   2   9
ATOM      9  C   UNL     1      -9.362   9.125  68.594  0.00  0.00    -0.002 A 
ATOM     10  C   UNL     1      -8.306   9.746  68.040  0.00  0.00    +0.065 A 
ATOM     11 CL   UNL     1      -7.562  11.165  68.695  0.00  0.00    -0.082 Cl
ATOM     12  C   UNL     1      -8.028   9.424  66.716  0.00  0.00    +0.068 A 
ATOM     13 CL   UNL     1      -6.387   9.676  66.134  0.00  0.00    -0.081 Cl
ATOM     14  C   UNL     1      -8.976   8.744  65.959  0.00  0.00    +0.012 A 
ATOM     15  C   UNL     1     -10.217   8.424  66.500  0.00  0.00    +0.001 A 
ATOM     16  C   UNL     1     -10.378   8.509  67.880  0.00  0.00    -0.003 A 
ENDBRANCH   2   9
BRANCH   3  17
ATOM     17  C   UNL     1      -9.168   7.234  70.611  0.00  0.00    +0.339 C 
ATOM     18  O   UNL     1      -8.267   7.494  71.466  0.00  0.00    -0.245 OA
BRANCH  17  19
ATOM     19  O   UNL     1      -9.370   5.873  70.355  0.00  0.00    -0.442 OA
ATOM     20  C   UNL     1     -10.329   5.438  69.391  0.00  0.00    +0.256 C 
ENDBRANCH  17  19
ENDBRANCH   3  17
BRANCH   1  21
ATOM     21  C   UNL     1     -11.230  11.217  68.662  0.00  0.00    +0.341 C 
ATOM     22  O   UNL     1     -12.062  11.385  67.717  0.00  0.00    -0.245 OA
BRANCH  21  23
ATOM     23  O   UNL     1     -10.698  12.428  69.125  0.00  0.00    -0.405 OA
BRANCH  23  24
ATOM     24  C   UNL     1     -10.970  13.663  68.468  0.00  0.00    +0.433 C 
BRANCH  24  25
ATOM     25  O   UNL     1     -12.069  14.340  69.003  0.00  0.00    -0.408 OA
BRANCH  25  26
ATOM     26  C   UNL     1     -12.036  15.542  69.666  0.00  0.00    +0.320 C 
ATOM     27  O   UNL     1     -11.687  16.558  69.008  0.00  0.00    -0.250 OA
BRANCH  26  28
ATOM     28  C   UNL     1     -12.189  15.687  71.144  0.00  0.00    +0.110 C 
BRANCH  28  30
ATOM     29  C   UNL     1     -13.794  14.936  72.456  0.00  0.00    +0.001 C 
ATOM     30  C   UNL     1     -13.602  15.188  71.434  0.00  0.00    +0.012 C 
ENDBRANCH  28  30
ENDBRANCH  26  28
ENDBRANCH  25  26
ENDBRANCH  24  25
ENDBRANCH  23  24
ENDBRANCH  21  23
ENDBRANCH   1  21
TORSDOF 10
ENDMDL
MODEL 7
REMARK VINA RESULT:      -6.1      1.503      2.145
REMARK  Name = 
REMARK  10 active torsions:
REMARK  status: ('A' for Active; 'I' for Inactive)
REMARK    1  A    between atoms: C_2  and  C_3
REMARK    2  A    between atoms: C_3  and  C_4
REMARK    3  A    between atoms: C_4  and  O_6
REMARK    4  A    between atoms: O_6  and  C_7
REMARK    5  A    between atoms: C_7  and  O_8
REMARK    6  A    between atoms: O_8  and  C_9
REMARK    7  A    between atoms: C_9  and  C_11
REMARK    8  A    between atoms: C_17  and  C_18
REMARK    9  A    between atoms: C_18  and  O_20
REMARK   10  A    between atoms: C_22  and  C_23
REMARK                            x       y       z     vdW  Elec       q    Type
REMARK                         _______ _______ _______ _____ _____    ______ ____
ROOT
ATOM      1  C   UNL     1     -11.177  13.969  68.625  0.00  0.00    +0.073 C 
ATOM      2  C   UNL     1     -11.365  14.506  67.081  0.00  0.00    +0.082 C 
ATOM      3  C   UNL     1     -10.249  15.694  67.280  0.00  0.00    +0.073 C 
ATOM      4  C   UNL     1     -10.876  16.654  67.974  0.00  0.00    +0.051 C 
ATOM      5  C   UNL     1     -10.210  17.994  68.037  0.00  0.00    +0.049 C 
ATOM      6  N   UNL     1     -11.750  16.283  69.050  0.00  0.00    -0.221 NA
ATOM      7  C   UNL     1     -11.782  14.888  69.389  0.00  0.00    +0.051 C 
ATOM      8  C   UNL     1     -12.761  14.531  70.463  0.00  0.00    +0.049 C 
ENDROOT
BRANCH   2   9
ATOM      9  C   UNL     1     -10.281  13.447  66.475  0.00  0.00    -0.002 A 
ATOM     10  C   UNL     1     -10.688  12.641  65.478  0.00  0.00    +0.065 A 
ATOM     11 CL   UNL     1     -12.335  12.479  64.973  0.00  0.00    -0.082 Cl
ATOM     12  C   UNL     1      -9.789  11.657  65.078  0.00  0.00    +0.068 A 
ATOM     13 CL   UNL     1      -9.954  11.004  63.452  0.00  0.00    -0.081 Cl
ATOM     14  C   UNL     1      -8.691  11.360  65.878  0.00  0.00    +0.012 A 
ATOM     15  C   UNL     1      -8.508  12.005  67.097  0.00  0.00    +0.001 A 
ATOM     16  C   UNL     1      -9.249  13.155  67.353  0.00  0.00    -0.003 A 
ENDBRANCH   2   9
BRANCH   3  17
ATOM     17  C   UNL     1      -9.846  16.129  65.929  0.00  0.00    +0.339 C 
ATOM     18  O   UNL     1     -10.719  16.570  65.119  0.00  0.00    -0.245 OA
BRANCH  17  19
ATOM     19  O   UNL     1      -8.581  16.719  65.818  0.00  0.00    -0.442 OA
ATOM     20  C   UNL     1      -7.472  16.232  66.573  0.00  0.00    +0.256 C 
ENDBRANCH  17  19
ENDBRANCH   3  17
BRANCH   1  21
ATOM     21  C   UNL     1     -11.633  12.575  68.773  0.00  0.00    +0.341 C 
ATOM     22  O   UNL     1     -12.341  11.993  67.893  0.00  0.00    -0.245 OA
BRANCH  21  23
ATOM     23  O   UNL     1     -10.834  11.678  69.494  0.00  0.00    -0.405 OA
BRANCH  23  24
ATOM     24  C   UNL     1     -11.376  10.495  70.074  0.00  0.00    +0.433 C 
BRANCH  24  25
ATOM     25  O   UNL     1     -10.397   9.591  70.495  0.00  0.00    -0.408 OA
BRANCH  25  26
ATOM     26  C   UNL     1     -10.235   8.303  70.047  0.00  0.00    +0.320 C 
ATOM     27  O   UNL     1     -10.658   7.375  70.785  0.00  0.00    -0.250 OA
BRANCH  26  28
ATOM     28  C   UNL     1      -9.420   7.929  68.853  0.00  0.00    +0.110 C 
BRANCH  28  30
ATOM     29  C   UNL     1     -10.453   8.374  66.958  0.00  0.00    +0.001 C 
ATOM     30  C   UNL     1     -10.447   7.663  67.756  0.00  0.00    +0.012 C 
ENDBRANCH  28  30
ENDBRANCH  26  28
ENDBRANCH  25  26
ENDBRANCH  24  25
ENDBRANCH  23  24
ENDBRANCH  21  23
ENDBRANCH   1  21
TORSDOF 10
ENDMDL
MODEL 8
REMARK VINA RESULT:      -6.0      3.740      6.120
REMARK  Name = 
REMARK  10 active torsions:
REMARK  status: ('A' for Active; 'I' for Inactive)
REMARK    1  A    between atoms: C_2  and  C_3
REMARK    2  A    between atoms: C_3  and  C_4
REMARK    3  A    between atoms: C_4  and  O_6
REMARK    4  A    between atoms: O_6  and  C_7
REMARK    5  A    between atoms: C_7  and  O_8
REMARK    6  A    between atoms: O_8  and  C_9
REMARK    7  A    between atoms: C_9  and  C_11
REMARK    8  A    between atoms: C_17  and  C_18
REMARK    9  A    between atoms: C_18  and  O_20
REMARK   10  A    between atoms: C_22  and  C_23
REMARK                            x       y       z     vdW  Elec       q    Type
REMARK                         _______ _______ _______ _____ _____    ______ ____
ROOT
ATOM      1  C   UNL     1      -8.436  16.897  67.913  0.00  0.00    +0.073 C 
ATOM      2  C   UNL     1      -7.718  15.417  67.860  0.00  0.00    +0.082 C 
ATOM      3  C   UNL     1      -6.917  15.672  69.271  0.00  0.00    +0.073 C 
ATOM      4  C   UNL     1      -5.893  16.477  68.954  0.00  0.00    +0.051 C 
ATOM      5  C   UNL     1      -4.808  16.631  69.974  0.00  0.00    +0.049 C 
ATOM      6  N   UNL     1      -6.108  17.553  68.029  0.00  0.00    -0.221 NA
ATOM      7  C   UNL     1      -7.464  17.766  67.608  0.00  0.00    +0.051 C 
ATOM      8  C   UNL     1      -7.636  18.845  66.585  0.00  0.00    +0.049 C 
ENDROOT
BRANCH   2   9
ATOM      9  C   UNL     1      -8.973  14.671  68.590  0.00  0.00    -0.002 A 
ATOM     10  C   UNL     1      -9.492  13.589  67.983  0.00  0.00    +0.065 A 
ATOM     11 CL   UNL     1      -9.086  13.090  66.375  0.00  0.00    -0.082 Cl
ATOM     12  C   UNL     1     -10.646  13.059  68.551  0.00  0.00    +0.068 A 
ATOM     13 CL   UNL     1     -11.017  11.368  68.237  0.00  0.00    -0.081 Cl
ATOM     14  C   UNL     1     -11.355  13.802  69.489  0.00  0.00    +0.012 A 
ATOM     15  C   UNL     1     -10.948  15.087  69.829  0.00  0.00    +0.001 A 
ATOM     16  C   UNL     1      -9.667  15.493  69.464  0.00  0.00    -0.003 A 
ENDBRANCH   2   9
BRANCH   3  17
ATOM     17  C   UNL     1      -6.482  14.350  69.759  0.00  0.00    +0.339 C 
ATOM     18  O   UNL     1      -5.735  13.622  69.034  0.00  0.00    -0.245 OA
BRANCH  17  19
ATOM     19  O   UNL     1      -6.264  14.237  71.137  0.00  0.00    -0.442 OA
ATOM     20  C   UNL     1      -5.278  13.347  71.658  0.00  0.00    +0.256 C 
ENDBRANCH  17  19
ENDBRANCH   3  17
BRANCH   1  21
ATOM     21  C   UNL     1      -9.652  16.939  67.083  0.00  0.00    +0.341 C 
ATOM     22  O   UNL     1     -10.558  17.815  67.245  0.00  0.00    -0.245 OA
BRANCH  21  23
ATOM     23  O   UNL     1      -9.580  16.485  65.759  0.00  0.00    -0.405 OA
BRANCH  23  24
ATOM     24  C   UNL     1     -10.753  16.211  64.998  0.00  0.00    +0.433 C 
BRANCH  24  25
ATOM     25  O   UNL     1     -11.408  15.045  65.401  0.00  0.00    -0.408 OA
BRANCH  25  26
ATOM     26  C   UNL     1     -12.127  14.198  64.593  0.00  0.00    +0.320 C 
ATOM     27  O   UNL     1     -12.869  14.721  63.720  0.00  0.00    -0.250 OA
BRANCH  26  28
ATOM     28  C   UNL     1     -12.241  12.726  64.815  0.00  0.00    +0.110 C 
BRANCH  28  30
ATOM     29  C   UNL     1     -10.936  11.234  63.850  0.00  0.00    +0.001 C 
ATOM     30  C   UNL     1     -11.519  12.102  63.624  0.00  0.00    +0.012 C 
ENDBRANCH  28  30
ENDBRANCH  26  28
ENDBRANCH  25  26
ENDBRANCH  24  25
ENDBRANCH  23  24
ENDBRANCH  21  23
ENDBRANCH   1  21
TORSDOF 10
ENDMDL
MODEL 9
REMARK VINA RESULT:      -6.0      3.031      7.180
REMARK  Name = 
REMARK  10 active torsions:
REMARK  status: ('A' for Active; 'I' for Inactive)
REMARK    1  A    between atoms: C_2  and  C_3
REMARK    2  A    between atoms: C_3  and  C_4
REMARK    3  A    between atoms: C_4  and  O_6
REMARK    4  A    between atoms: O_6  and  C_7
REMARK    5  A    between atoms: C_7  and  O_8
REMARK    6  A    between atoms: O_8  and  C_9
REMARK    7  A    between atoms: C_9  and  C_11
REMARK    8  A    between atoms: C_17  and  C_18
REMARK    9  A    between atoms: C_18  and  O_20
REMARK   10  A    between atoms: C_22  and  C_23
REMARK                            x       y       z     vdW  Elec       q    Type
REMARK                         _______ _______ _______ _____ _____    ______ ____
ROOT
ATOM      1  C   UNL     1     -11.040  10.738  68.952  0.00  0.00    +0.073 C 
ATOM      2  C   UNL     1     -10.198   9.979  70.144  0.00  0.00    +0.082 C 
ATOM      3  C   UNL     1     -11.507   9.111  70.620  0.00  0.00    +0.073 C 
ATOM      4  C   UNL     1     -12.260   9.966  71.327  0.00  0.00    +0.051 C 
ATOM      5  C   UNL     1     -13.364   9.379  72.151  0.00  0.00    +0.049 C 
ATOM      6  N   UNL     1     -12.405  11.317  70.866  0.00  0.00    -0.221 NA
ATOM      7  C   UNL     1     -11.827  11.616  69.586  0.00  0.00    +0.051 C 
ATOM      8  C   UNL     1     -11.932  13.052  69.176  0.00  0.00    +0.049 C 
ENDROOT
BRANCH   2   9
ATOM      9  C   UNL     1      -9.652   8.805  69.150  0.00  0.00    -0.002 A 
ATOM     10  C   UNL     1      -8.324   8.722  68.954  0.00  0.00    +0.065 A 
ATOM     11 CL   UNL     1      -7.189   9.919  69.480  0.00  0.00    -0.082 Cl
ATOM     12  C   UNL     1      -7.900   7.807  67.996  0.00  0.00    +0.068 A 
ATOM     13 CL   UNL     1      -6.254   7.195  68.114  0.00  0.00    -0.081 Cl
ATOM     14  C   UNL     1      -8.822   7.261  67.109  0.00  0.00    +0.012 A 
ATOM     15  C   UNL     1     -10.155   7.657  67.141  0.00  0.00    +0.001 A 
ATOM     16  C   UNL     1     -10.610   8.355  68.255  0.00  0.00    -0.003 A 
ENDBRANCH   2   9
BRANCH   3  17
ATOM     17  C   UNL     1     -11.001   7.984  71.427  0.00  0.00    +0.339 C 
ATOM     18  O   UNL     1     -10.436   8.208  72.542  0.00  0.00    -0.245 OA
BRANCH  17  19
ATOM     19  O   UNL     1     -11.734   6.794  71.361  0.00  0.00    -0.442 OA
ATOM     20  C   UNL     1     -11.546   5.757  72.323  0.00  0.00    +0.256 C 
ENDBRANCH  17  19
ENDBRANCH   3  17
BRANCH   1  21
ATOM     21  C   UNL     1     -10.144  11.275  67.913  0.00  0.00    +0.341 C 
ATOM     22  O   UNL     1     -10.466  11.305  66.684  0.00  0.00    -0.245 OA
BRANCH  21  23
ATOM     23  O   UNL     1      -9.256  12.303  68.256  0.00  0.00    -0.405 OA
BRANCH  23  24
ATOM     24  C   UNL     1      -8.618  13.102  67.263  0.00  0.00    +0.433 C 
BRANCH  24  25
ATOM     25  O   UNL     1      -9.194  14.366  67.121  0.00  0.00    -0.408 OA
BRANCH  25  26
ATOM     26  C   UNL     1      -9.539  14.974  65.939  0.00  0.00    +0.320 C 
ATOM     27  O   UNL     1      -9.089  16.131  65.729  0.00  0.00    -0.250 OA
BRANCH  26  28
ATOM     28  C   UNL     1     -10.562  14.439  64.991  0.00  0.00    +0.110 C 
BRANCH  28  30
ATOM     29  C   UNL     1     -12.652  13.837  65.348  0.00  0.00    +0.001 C 
ATOM     30  C   UNL     1     -11.842  14.356  65.817  0.00  0.00    +0.012 C 
ENDBRANCH  28  30
ENDBRANCH  26  28
ENDBRANCH  25  26
ENDBRANCH  24  25
ENDBRANCH  23  24
ENDBRANCH  21  23
ENDBRANCH   1  21
TORSDOF 10
ENDMDL
