MODEL 1
REMARK VINA RESULT:      -6.8      0.000      0.000
REMARK  Name = 
REMARK  10 active torsions:
REMARK  status: ('A' for Active; 'I' for Inactive)
REMARK    1  A    between atoms: S_2  and  O_5
REMARK    2  A    between atoms: O_5  and  C_6
REMARK    3  A    between atoms: C_11  and  O_12
REMARK    4  A    between atoms: O_12  and  C_13
REMARK    5  A    between atoms: C_18  and  O_19
REMARK    6  A    between atoms: O_19  and  S_20
REMARK    7  A    between atoms: C_24  and  O_25
REMARK    8  A    between atoms: O_25  and  S_26
REMARK    9  A    between atoms: C_30  and  O_31
REMARK   10  A    between atoms: O_31  and  S_32
REMARK                            x       y       z     vdW  Elec       q    Type
REMARK                         _______ _______ _______ _____ _____    ______ ____
ROOT
ATOM      1  O   UNL     1     -10.278  10.966  68.055  0.00  0.00    -0.326 OA
ENDROOT
BRANCH   1   2
ATOM      2  C   UNL     1      -9.936  10.705  69.535  0.00  0.00    +0.269 C 
ATOM      3  C   UNL     1     -11.126   9.436  69.664  0.00  0.00    +0.231 C 
ATOM      4  C   UNL     1     -10.025   8.170  69.993  0.00  0.00    +0.210 C 
ATOM      5  C   UNL     1      -9.853   7.812  68.309  0.00  0.00    +0.213 C 
ATOM      6  O   UNL     1      -8.585   7.013  68.559  0.00  0.00    -0.218 OA
ATOM      7  C   UNL     1      -8.982   9.180  68.023  0.00  0.00    +0.180 C 
ATOM      8  O   UNL     1      -8.756   9.784  69.184  0.00  0.00    -0.326 OA
BRANCH   3   9
ATOM      9  O   UNL     1     -11.272   9.681  71.136  0.00  0.00    -0.236 OA
BRANCH   9  10
ATOM     10  S   UNL     1     -12.835   9.919  71.555  0.00  0.00    +0.000 S 
ATOM     11  O   UNL     1     -13.110  11.508  72.056  0.00  0.00    -0.268 OA
ATOM     12  O   UNL     1     -13.373   9.038  72.617  0.00  0.00    -0.345 OA
ATOM     13  O   UNL     1     -13.646   9.749  70.287  0.00  0.00    -0.345 OA
ENDBRANCH   9  10
ENDBRANCH   3   9
BRANCH   4  14
ATOM     14  O   UNL     1     -11.177   7.219  70.104  0.00  0.00    -0.238 OA
BRANCH  14  15
ATOM     15  S   UNL     1     -10.896   6.119  71.297  0.00  0.00    -0.000 S 
ATOM     16  O   UNL     1      -9.626   6.804  72.187  0.00  0.00    -0.268 OA
ATOM     17  O   UNL     1     -10.341   4.809  70.812  0.00  0.00    -0.345 OA
ATOM     18  O   UNL     1     -12.025   5.930  72.253  0.00  0.00    -0.345 OA
ENDBRANCH  14  15
ENDBRANCH   4  14
ENDBRANCH   1   2
BRANCH   1  21
ATOM     19  C   UNL     1     -10.838  14.294  66.499  0.00  0.00    +0.234 C 
ATOM     20  C   UNL     1     -11.038  12.604  66.648  0.00  0.00    +0.207 C 
ATOM     21  C   UNL     1      -9.963  12.451  67.993  0.00  0.00    +0.179 C 
ATOM     22  C   UNL     1     -11.146  12.774  69.098  0.00  0.00    +0.177 C 
ATOM     23  O   UNL     1     -12.100  13.323  68.354  0.00  0.00    -0.324 OA
ATOM     24  C   UNL     1     -11.695  14.747  67.948  0.00  0.00    +0.301 C 
ATOM     25  O   UNL     1     -10.381  14.780  68.764  0.00  0.00    -0.187 OA
BRANCH  19  26
ATOM     26  O   UNL     1     -12.119  14.389  65.724  0.00  0.00    -0.236 OA
BRANCH  26  28
ATOM     27  O   UNL     1     -12.156  15.039  64.243  0.00  0.00    -0.345 OA
ATOM     28  S   UNL     1     -11.920  14.967  64.255  0.00  0.00    +0.000 S 
ATOM     29  O   UNL     1     -11.708  16.533  63.964  0.00  0.00    -0.268 OA
ATOM     30  O   UNL     1     -12.632  14.168  63.231  0.00  0.00    -0.345 OA
ENDBRANCH  26  28
ENDBRANCH  19  26
BRANCH  20  31
ATOM     31  O   UNL     1      -9.898  12.368  65.700  0.00  0.00    -0.238 OA
BRANCH  31  32
ATOM     32  S   UNL     1     -10.400  11.367  64.485  0.00  0.00    -0.000 S 
ATOM     33  O   UNL     1      -9.851  11.798  62.973  0.00  0.00    -0.268 OA
ATOM     34  O   UNL     1     -10.046   9.944  64.850  0.00  0.00    -0.345 OA
ATOM     35  O   UNL     1     -11.916  11.374  64.501  0.00  0.00    -0.345 OA
ENDBRANCH  31  32
ENDBRANCH  20  31
ENDBRANCH   1  21
TORSDOF 10
ENDMDL
MODEL 2
REMARK VINA RESULT:      -6.6      4.350      6.792
REMARK  Name = 
REMARK  10 active torsions:
REMARK  status: ('A' for Active; 'I' for Inactive)
REMARK    1  A    between atoms: S_2  and  O_5
REMARK    2  A    between atoms: O_5  and  C_6
REMARK    3  A    between atoms: C_11  and  O_12
REMARK    4  A    between atoms: O_12  and  C_13
REMARK    5  A    between atoms: C_18  and  O_19
REMARK    6  A    between atoms: O_19  and  S_20
REMARK    7  A    between atoms: C_24  and  O_25
REMARK    8  A    between atoms: O_25  and  S_26
REMARK    9  A    between atoms: C_30  and  O_31
REMARK   10  A    between atoms: O_31  and  S_32
REMARK                            x       y       z     vdW  Elec       q    Type
REMARK                         _______ _______ _______ _____ _____    ______ ____
ROOT
ATOM      1  O   UNL     1      -8.953  15.791  66.960  0.00  0.00    -0.326 OA
ENDROOT
BRANCH   1   2
ATOM      2  C   UNL     1     -10.189  15.016  67.458  0.00  0.00    +0.269 C 
ATOM      3  C   UNL     1      -9.916  13.710  66.333  0.00  0.00    +0.231 C 
ATOM      4  C   UNL     1      -9.649  12.496  67.506  0.00  0.00    +0.210 C 
ATOM      5  C   UNL     1      -7.948  12.813  67.521  0.00  0.00    +0.213 C 
ATOM      6  O   UNL     1      -7.773  12.071  68.837  0.00  0.00    -0.218 OA
ATOM      7  C   UNL     1      -8.139  14.246  68.309  0.00  0.00    +0.180 C 
ATOM      8  O   UNL     1      -9.420  14.382  68.629  0.00  0.00    -0.326 OA
BRANCH   3   9
ATOM      9  O   UNL     1     -11.377  13.371  66.327  0.00  0.00    -0.236 OA
BRANCH   9  10
ATOM     10  S   UNL     1     -11.970  13.289  64.804  0.00  0.00    +0.000 S 
ATOM     11  O   UNL     1     -12.485  14.801  64.254  0.00  0.00    -0.268 OA
ATOM     12  O   UNL     1     -13.093  12.349  64.585  0.00  0.00    -0.345 OA
ATOM     13  O   UNL     1     -10.804  12.912  63.913  0.00  0.00    -0.345 OA
ENDBRANCH   9  10
ENDBRANCH   3   9
BRANCH   4  14
ATOM     14  O   UNL     1      -9.479  11.493  66.406  0.00  0.00    -0.238 OA
BRANCH  14  15
ATOM     15  S   UNL     1     -10.044  10.022  66.883  0.00  0.00    -0.000 S 
ATOM     16  O   UNL     1     -11.592  10.360  67.488  0.00  0.00    -0.268 OA
ATOM     17  O   UNL     1      -9.313   9.428  68.054  0.00  0.00    -0.345 OA
ATOM     18  O   UNL     1     -10.230   9.036  65.780  0.00  0.00    -0.345 OA
ENDBRANCH  14  15
ENDBRANCH   4  14
ENDBRANCH   1   2
BRANCH   1  21
ATOM     19  C   UNL     1      -8.306  19.446  67.123  0.00  0.00    +0.234 C 
ATOM     20  C   UNL     1      -8.035  17.852  66.573  0.00  0.00    +0.207 C 
ATOM     21  C   UNL     1      -9.252  17.146  67.578  0.00  0.00    +0.179 C 
ATOM     22  C   UNL     1     -10.452  17.412  66.476  0.00  0.00    +0.177 C 
ATOM     23  O   UNL     1      -9.910  18.315  65.666  0.00  0.00    -0.324 OA
ATOM     24  C   UNL     1      -9.858  19.681  66.363  0.00  0.00    +0.301 C 
ATOM     25  O   UNL     1     -10.600  19.237  67.646  0.00  0.00    -0.187 OA
BRANCH  19  26
ATOM     26  O   UNL     1      -7.635  19.996  65.898  0.00  0.00    -0.236 OA
BRANCH  26  28
ATOM     27  O   UNL     1      -6.332  20.939  66.072  0.00  0.00    -0.345 OA
ATOM     28  S   UNL     1      -6.271  20.748  66.218  0.00  0.00    +0.000 S 
ATOM     29  O   UNL     1      -6.174  21.947  67.285  0.00  0.00    -0.268 OA
ATOM     30  O   UNL     1      -5.362  20.794  65.049  0.00  0.00    -0.345 OA
ENDBRANCH  26  28
ENDBRANCH  19  26
BRANCH  20  31
ATOM     31  O   UNL     1      -7.010  17.637  67.650  0.00  0.00    -0.238 OA
BRANCH  31  32
ATOM     32  S   UNL     1      -5.611  17.087  66.965  0.00  0.00    -0.000 S 
ATOM     33  O   UNL     1      -5.290  15.480  67.260  0.00  0.00    -0.268 OA
ATOM     34  O   UNL     1      -5.630  17.417  65.490  0.00  0.00    -0.345 OA
ATOM     35  O   UNL     1      -4.484  17.943  67.508  0.00  0.00    -0.345 OA
ENDBRANCH  31  32
ENDBRANCH  20  31
ENDBRANCH   1  21
TORSDOF 10
ENDMDL
MODEL 3
REMARK VINA RESULT:      -6.6      1.972      4.285
REMARK  Name = 
REMARK  10 active torsions:
REMARK  status: ('A' for Active; 'I' for Inactive)
REMARK    1  A    between atoms: S_2  and  O_5
REMARK    2  A    between atoms: O_5  and  C_6
REMARK    3  A    between atoms: C_11  and  O_12
REMARK    4  A    between atoms: O_12  and  C_13
REMARK    5  A    between atoms: C_18  and  O_19
REMARK    6  A    between atoms: O_19  and  S_20
REMARK    7  A    between atoms: C_24  and  O_25
REMARK    8  A    between atoms: O_25  and  S_26
REMARK    9  A    between atoms: C_30  and  O_31
REMARK   10  A    between atoms: O_31  and  S_32
REMARK                            x       y       z     vdW  Elec       q    Type
REMARK                         _______ _______ _______ _____ _____    ______ ____
ROOT
ATOM      1  O   UNL     1     -10.981  11.688  68.632  0.00  0.00    -0.326 OA
ENDROOT
BRANCH   1   2
ATOM      2  C   UNL     1     -11.052  10.160  68.441  0.00  0.00    +0.269 C 
ATOM      3  C   UNL     1     -10.169   9.860  69.916  0.00  0.00    +0.231 C 
ATOM      4  C   UNL     1     -11.426   9.035  70.730  0.00  0.00    +0.210 C 
ATOM      5  C   UNL     1     -12.024  10.510  71.410  0.00  0.00    +0.213 C 
ATOM      6  O   UNL     1     -13.354   9.864  71.761  0.00  0.00    -0.218 OA
ATOM      7  C   UNL     1     -12.614  11.033  69.965  0.00  0.00    +0.180 C 
ATOM      8  O   UNL     1     -12.452  10.065  69.070  0.00  0.00    -0.326 OA
BRANCH   3   9
ATOM      9  O   UNL     1      -9.666   8.552  69.383  0.00  0.00    -0.236 OA
BRANCH   9  10
ATOM     10  S   UNL     1      -8.033   8.530  69.284  0.00  0.00    +0.000 S 
ATOM     11  O   UNL     1      -7.483   9.323  67.898  0.00  0.00    -0.268 OA
ATOM     12  O   UNL     1      -7.391   7.196  69.296  0.00  0.00    -0.345 OA
ATOM     13  O   UNL     1      -7.525   9.354  70.449  0.00  0.00    -0.345 OA
ENDBRANCH   9  10
ENDBRANCH   3   9
BRANCH   4  14
ATOM     14  O   UNL     1     -10.513   8.834  71.901  0.00  0.00    -0.238 OA
BRANCH  14  15
ATOM     15  S   UNL     1     -10.725   7.330  72.538  0.00  0.00    -0.000 S 
ATOM     16  O   UNL     1      -9.419   6.442  71.919  0.00  0.00    -0.268 OA
ATOM     17  O   UNL     1     -11.939   6.607  72.025  0.00  0.00    -0.345 OA
ATOM     18  O   UNL     1     -10.616   7.259  74.023  0.00  0.00    -0.345 OA
ENDBRANCH  14  15
ENDBRANCH   4  14
ENDBRANCH   1   2
BRANCH   1  21
ATOM     19  C   UNL     1     -11.199  14.166  65.872  0.00  0.00    +0.234 C 
ATOM     20  C   UNL     1     -10.654  13.575  67.379  0.00  0.00    +0.207 C 
ATOM     21  C   UNL     1     -11.592  12.125  67.311  0.00  0.00    +0.179 C 
ATOM     22  C   UNL     1     -10.432  11.301  66.474  0.00  0.00    +0.177 C 
ATOM     23  O   UNL     1      -9.655  12.275  66.013  0.00  0.00    -0.324 OA
ATOM     24  C   UNL     1     -10.363  13.012  64.867  0.00  0.00    +0.301 C 
ATOM     25  O   UNL     1     -11.603  12.089  64.822  0.00  0.00    -0.187 OA
BRANCH  19  26
ATOM     26  O   UNL     1     -10.013  15.082  65.788  0.00  0.00    -0.236 OA
BRANCH  26  28
ATOM     27  O   UNL     1     -10.235  16.618  65.331  0.00  0.00    -0.345 OA
ATOM     28  S   UNL     1     -10.411  16.596  65.503  0.00  0.00    +0.000 S 
ATOM     29  O   UNL     1     -11.318  17.030  64.249  0.00  0.00    -0.268 OA
ATOM     30  O   UNL     1      -9.377  17.550  65.966  0.00  0.00    -0.345 OA
ENDBRANCH  26  28
ENDBRANCH  19  26
BRANCH  20  31
ATOM     31  O   UNL     1     -11.780  14.279  68.081  0.00  0.00    -0.238 OA
BRANCH  31  32
ATOM     32  S   UNL     1     -11.160  15.238  69.276  0.00  0.00    -0.000 S 
ATOM     33  O   UNL     1     -11.638  14.810  70.812  0.00  0.00    -0.268 OA
ATOM     34  O   UNL     1      -9.657  15.289  69.126  0.00  0.00    -0.345 OA
ATOM     35  O   UNL     1     -11.597  16.658  68.979  0.00  0.00    -0.345 OA
ENDBRANCH  31  32
ENDBRANCH  20  31
ENDBRANCH   1  21
TORSDOF 10
ENDMDL
MODEL 4
REMARK VINA RESULT:      -6.5      1.582      8.265
REMARK  Name = 
REMARK  10 active torsions:
REMARK  status: ('A' for Active; 'I' for Inactive)
REMARK    1  A    between atoms: S_2  and  O_5
REMARK    2  A    between atoms: O_5  and  C_6
REMARK    3  A    between atoms: C_11  and  O_12
REMARK    4  A    between atoms: O_12  and  C_13
REMARK    5  A    between atoms: C_18  and  O_19
REMARK    6  A    between atoms: O_19  and  S_20
REMARK    7  A    between atoms: C_24  and  O_25
REMARK    8  A    between atoms: O_25  and  S_26
REMARK    9  A    between atoms: C_30  and  O_31
REMARK   10  A    between atoms: O_31  and  S_32
REMARK                            x       y       z     vdW  Elec       q    Type
REMARK                         _______ _______ _______ _____ _____    ______ ____
ROOT
ATOM      1  O   UNL     1     -10.618  11.605  68.105  0.00  0.00    -0.326 OA
ENDROOT
BRANCH   1   2
ATOM      2  C   UNL     1      -9.830  12.181  66.911  0.00  0.00    +0.269 C 
ATOM      3  C   UNL     1     -11.015  13.434  66.640  0.00  0.00    +0.231 C 
ATOM      4  C   UNL     1      -9.977  14.754  66.960  0.00  0.00    +0.210 C 
ATOM      5  C   UNL     1     -10.400  14.746  68.638  0.00  0.00    +0.213 C 
ATOM      6  O   UNL     1      -9.192  15.596  68.996  0.00  0.00    -0.218 OA
ATOM      7  C   UNL     1      -9.560  13.359  68.927  0.00  0.00    +0.180 C 
ATOM      8  O   UNL     1      -8.914  13.021  67.817  0.00  0.00    -0.326 OA
BRANCH   3   9
ATOM      9  O   UNL     1     -10.646  13.507  65.188  0.00  0.00    -0.236 OA
BRANCH   9  10
ATOM     10  S   UNL     1     -11.924  13.168  64.224  0.00  0.00    +0.000 S 
ATOM     11  O   UNL     1     -12.564  14.565  63.523  0.00  0.00    -0.268 OA
ATOM     12  O   UNL     1     -13.054  12.453  64.858  0.00  0.00    -0.345 OA
ATOM     13  O   UNL     1     -11.381  12.350  63.070  0.00  0.00    -0.345 OA
ENDBRANCH   9  10
ENDBRANCH   3   9
BRANCH   4  14
ATOM     14  O   UNL     1     -11.104  15.693  66.654  0.00  0.00    -0.238 OA
BRANCH  14  15
ATOM     15  S   UNL     1     -10.532  17.052  65.922  0.00  0.00    -0.000 S 
ATOM     16  O   UNL     1      -8.886  16.720  65.683  0.00  0.00    -0.268 OA
ATOM     17  O   UNL     1     -10.537  18.275  66.797  0.00  0.00    -0.345 OA
ATOM     18  O   UNL     1     -11.106  17.326  64.574  0.00  0.00    -0.345 OA
ENDBRANCH  14  15
ENDBRANCH   4  14
ENDBRANCH   1   2
BRANCH   1  21
ATOM     19  C   UNL     1      -9.985   8.246  69.562  0.00  0.00    +0.234 C 
ATOM     20  C   UNL     1     -10.961   9.563  69.079  0.00  0.00    +0.207 C 
ATOM     21  C   UNL     1      -9.634  10.536  68.550  0.00  0.00    +0.179 C 
ATOM     22  C   UNL     1      -9.629   9.875  67.037  0.00  0.00    +0.177 C 
ATOM     23  O   UNL     1     -10.340   8.765  67.200  0.00  0.00    -0.324 OA
ATOM     24  C   UNL     1      -9.515   7.722  67.967  0.00  0.00    +0.301 C 
ATOM     25  O   UNL     1      -8.215   8.558  68.030  0.00  0.00    -0.187 OA
BRANCH  19  26
ATOM     26  O   UNL     1     -11.172   7.329  69.502  0.00  0.00    -0.236 OA
BRANCH  26  28
ATOM     27  O   UNL     1     -11.649   6.479  70.793  0.00  0.00    -0.345 OA
ATOM     28  S   UNL     1     -11.510   6.652  70.901  0.00  0.00    +0.000 S 
ATOM     29  O   UNL     1     -10.760   5.330  71.425  0.00  0.00    -0.268 OA
ATOM     30  O   UNL     1     -12.925   6.840  71.295  0.00  0.00    -0.345 OA
ENDBRANCH  26  28
ENDBRANCH  19  26
BRANCH  20  31
ATOM     31  O   UNL     1     -10.862  10.162  70.453  0.00  0.00    -0.238 OA
BRANCH  31  32
ATOM     32  S   UNL     1     -12.364  10.640  70.946  0.00  0.00    -0.000 S 
ATOM     33  O   UNL     1     -12.882   9.923  72.356  0.00  0.00    -0.268 OA
ATOM     34  O   UNL     1     -12.395  12.150  71.014  0.00  0.00    -0.345 OA
ATOM     35  O   UNL     1     -13.327  10.314  69.822  0.00  0.00    -0.345 OA
ENDBRANCH  31  32
ENDBRANCH  20  31
ENDBRANCH   1  21
TORSDOF 10
ENDMDL
MODEL 5
REMARK VINA RESULT:      -6.4      4.296      6.881
REMARK  Name = 
REMARK  10 active torsions:
REMARK  status: ('A' for Active; 'I' for Inactive)
REMARK    1  A    between atoms: S_2  and  O_5
REMARK    2  A    between atoms: O_5  and  C_6
REMARK    3  A    between atoms: C_11  and  O_12
REMARK    4  A    between atoms: O_12  and  C_13
REMARK    5  A    between atoms: C_18  and  O_19
REMARK    6  A    between atoms: O_19  and  S_20
REMARK    7  A    between atoms: C_24  and  O_25
REMARK    8  A    between atoms: O_25  and  S_26
REMARK    9  A    between atoms: C_30  and  O_31
REMARK   10  A    between atoms: O_31  and  S_32
REMARK                            x       y       z     vdW  Elec       q    Type
REMARK                         _______ _______ _______ _____ _____    ______ ____
ROOT
ATOM      1  O   UNL     1      -9.132  15.768  67.158  0.00  0.00    -0.326 OA
ENDROOT
BRANCH   1   2
ATOM      2  C   UNL     1     -10.339  14.903  67.571  0.00  0.00    +0.269 C 
ATOM      3  C   UNL     1      -9.985  13.699  66.360  0.00  0.00    +0.231 C 
ATOM      4  C   UNL     1      -9.684  12.414  67.446  0.00  0.00    +0.210 C 
ATOM      5  C   UNL     1      -7.999  12.805  67.522  0.00  0.00    +0.213 C 
ATOM      6  O   UNL     1      -7.814  11.976  68.782  0.00  0.00    -0.218 OA
ATOM      7  C   UNL     1      -8.271  14.166  68.408  0.00  0.00    +0.180 C 
ATOM      8  O   UNL     1      -9.564  14.219  68.709  0.00  0.00    -0.326 OA
BRANCH   3   9
ATOM      9  O   UNL     1     -11.428  13.296  66.297  0.00  0.00    -0.236 OA
BRANCH   9  10
ATOM     10  S   UNL     1     -11.980  13.269  64.757  0.00  0.00    +0.000 S 
ATOM     11  O   UNL     1     -12.462  14.805  64.242  0.00  0.00    -0.268 OA
ATOM     12  O   UNL     1     -13.109  12.352  64.478  0.00  0.00    -0.345 OA
ATOM     13  O   UNL     1     -10.795  12.905  63.886  0.00  0.00    -0.345 OA
ENDBRANCH   9  10
ENDBRANCH   3   9
BRANCH   4  14
ATOM     14  O   UNL     1      -9.447  11.504  66.279  0.00  0.00    -0.238 OA
BRANCH  14  15
ATOM     15  S   UNL     1      -9.961   9.980  66.630  0.00  0.00    -0.000 S 
ATOM     16  O   UNL     1      -8.662   9.302  67.484  0.00  0.00    -0.268 OA
ATOM     17  O   UNL     1     -10.118   9.089  65.429  0.00  0.00    -0.345 OA
ATOM     18  O   UNL     1     -11.142   9.911  67.537  0.00  0.00    -0.345 OA
ENDBRANCH  14  15
ENDBRANCH   4  14
ENDBRANCH   1   2
BRANCH   1  21
ATOM     19  C   UNL     1      -8.458  19.365  67.802  0.00  0.00    +0.234 C 
ATOM     20  C   UNL     1      -8.079  17.799  67.236  0.00  0.00    +0.207 C 
ATOM     21  C   UNL     1      -9.566  17.093  67.762  0.00  0.00    +0.179 C 
ATOM     22  C   UNL     1     -10.359  17.495  66.371  0.00  0.00    +0.177 C 
ATOM     23  O   UNL     1      -9.568  18.420  65.840  0.00  0.00    -0.324 OA
ATOM     24  C   UNL     1      -9.692  19.732  66.626  0.00  0.00    +0.301 C 
ATOM     25  O   UNL     1     -10.806  19.244  67.582  0.00  0.00    -0.187 OA
BRANCH  19  26
ATOM     26  O   UNL     1      -7.426  19.959  66.888  0.00  0.00    -0.236 OA
BRANCH  26  28
ATOM     27  O   UNL     1      -6.479  20.975  67.717  0.00  0.00    -0.345 OA
ATOM     28  S   UNL     1      -6.317  20.798  67.659  0.00  0.00    +0.000 S 
ATOM     29  O   UNL     1      -6.178  20.781  69.261  0.00  0.00    -0.268 OA
ATOM     30  O   UNL     1      -5.960  22.050  66.952  0.00  0.00    -0.345 OA
ENDBRANCH  26  28
ENDBRANCH  19  26
BRANCH  20  31
ATOM     31  O   UNL     1      -7.442  17.458  68.553  0.00  0.00    -0.238 OA
BRANCH  31  32
ATOM     32  S   UNL     1      -5.929  16.853  68.284  0.00  0.00    -0.000 S 
ATOM     33  O   UNL     1      -5.756  16.063  66.829  0.00  0.00    -0.268 OA
ATOM     34  O   UNL     1      -4.922  17.966  68.467  0.00  0.00    -0.345 OA
ATOM     35  O   UNL     1      -5.621  15.903  69.424  0.00  0.00    -0.345 OA
ENDBRANCH  31  32
ENDBRANCH  20  31
ENDBRANCH   1  21
TORSDOF 10
ENDMDL
MODEL 6
REMARK VINA RESULT:      -6.4      2.676      5.554
REMARK  Name = 
REMARK  10 active torsions:
REMARK  status: ('A' for Active; 'I' for Inactive)
REMARK    1  A    between atoms: S_2  and  O_5
REMARK    2  A    between atoms: O_5  and  C_6
REMARK    3  A    between atoms: C_11  and  O_12
REMARK    4  A    between atoms: O_12  and  C_13
REMARK    5  A    between atoms: C_18  and  O_19
REMARK    6  A    between atoms: O_19  and  S_20
REMARK    7  A    between atoms: C_24  and  O_25
REMARK    8  A    between atoms: O_25  and  S_26
REMARK    9  A    between atoms: C_30  and  O_31
REMARK   10  A    between atoms: O_31  and  S_32
REMARK                            x       y       z     vdW  Elec       q    Type
REMARK                         _______ _______ _______ _____ _____    ______ ____
ROOT
ATOM      1  O   UNL     1     -10.750  12.905  67.254  0.00  0.00    -0.326 OA
ENDROOT
BRANCH   1   2
ATOM      2  C   UNL     1     -11.423  11.757  66.475  0.00  0.00    +0.269 C 
ATOM      3  C   UNL     1      -9.996  10.757  66.570  0.00  0.00    +0.231 C 
ATOM      4  C   UNL     1     -10.701   9.501  67.492  0.00  0.00    +0.210 C 
ATOM      5  C   UNL     1     -10.241  10.264  68.976  0.00  0.00    +0.213 C 
ATOM      6  O   UNL     1     -11.217   9.412  69.771  0.00  0.00    -0.218 OA
ATOM      7  C   UNL     1     -11.363  11.458  68.805  0.00  0.00    +0.180 C 
ATOM      8  O   UNL     1     -12.101  11.190  67.733  0.00  0.00    -0.326 OA
BRANCH   3   9
ATOM      9  O   UNL     1     -10.382  10.037  65.312  0.00  0.00    -0.236 OA
BRANCH   9  10
ATOM     10  S   UNL     1      -9.231  10.184  64.158  0.00  0.00    +0.000 S 
ATOM     11  O   UNL     1      -9.549  11.482  63.123  0.00  0.00    -0.268 OA
ATOM     12  O   UNL     1      -9.006   9.000  63.298  0.00  0.00    -0.345 OA
ATOM     13  O   UNL     1      -7.949  10.548  64.878  0.00  0.00    -0.345 OA
ENDBRANCH   9  10
ENDBRANCH   3   9
BRANCH   4  14
ATOM     14  O   UNL     1      -9.401   8.757  67.442  0.00  0.00    -0.238 OA
BRANCH  14  15
ATOM     15  S   UNL     1      -9.674   7.147  67.229  0.00  0.00    -0.000 S 
ATOM     16  O   UNL     1      -8.864   6.787  65.784  0.00  0.00    -0.268 OA
ATOM     17  O   UNL     1     -11.107   6.795  66.945  0.00  0.00    -0.345 OA
ATOM     18  O   UNL     1      -9.077   6.269  68.275  0.00  0.00    -0.345 OA
ENDBRANCH  14  15
ENDBRANCH   4  14
ENDBRANCH   1   2
BRANCH   1  21
ATOM     19  C   UNL     1     -11.033  16.579  66.784  0.00  0.00    +0.234 C 
ATOM     20  C   UNL     1     -10.507  15.158  67.572  0.00  0.00    +0.207 C 
ATOM     21  C   UNL     1     -11.338  14.085  66.500  0.00  0.00    +0.179 C 
ATOM     22  C   UNL     1     -10.091  14.048  65.419  0.00  0.00    +0.177 C 
ATOM     23  O   UNL     1      -9.368  15.105  65.768  0.00  0.00    -0.324 OA
ATOM     24  C   UNL     1     -10.080  16.394  65.335  0.00  0.00    +0.301 C 
ATOM     25  O   UNL     1     -11.250  15.695  64.604  0.00  0.00    -0.187 OA
BRANCH  19  26
ATOM     26  O   UNL     1      -9.912  17.356  67.410  0.00  0.00    -0.236 OA
BRANCH  26  28
ATOM     27  O   UNL     1     -10.073  18.934  67.728  0.00  0.00    -0.345 OA
ATOM     28  S   UNL     1     -10.307  18.858  67.752  0.00  0.00    +0.000 S 
ATOM     29  O   UNL     1     -10.500  19.981  66.617  0.00  0.00    -0.268 OA
ATOM     30  O   UNL     1      -9.788  19.295  69.068  0.00  0.00    -0.345 OA
ENDBRANCH  26  28
ENDBRANCH  19  26
BRANCH  20  31
ATOM     31  O   UNL     1     -11.706  15.196  68.476  0.00  0.00    -0.238 OA
BRANCH  31  32
ATOM     32  S   UNL     1     -11.200  15.292  70.045  0.00  0.00    -0.000 S 
ATOM     33  O   UNL     1     -11.867  14.145  71.051  0.00  0.00    -0.268 OA
ATOM     34  O   UNL     1      -9.689  15.281  70.069  0.00  0.00    -0.345 OA
ATOM     35  O   UNL     1     -11.555  16.679  70.543  0.00  0.00    -0.345 OA
ENDBRANCH  31  32
ENDBRANCH  20  31
ENDBRANCH   1  21
TORSDOF 10
ENDMDL
MODEL 7
REMARK VINA RESULT:      -6.4      5.382      8.984
REMARK  Name = 
REMARK  10 active torsions:
REMARK  status: ('A' for Active; 'I' for Inactive)
REMARK    1  A    between atoms: S_2  and  O_5
REMARK    2  A    between atoms: O_5  and  C_6
REMARK    3  A    between atoms: C_11  and  O_12
REMARK    4  A    between atoms: O_12  and  C_13
REMARK    5  A    between atoms: C_18  and  O_19
REMARK    6  A    between atoms: O_19  and  S_20
REMARK    7  A    between atoms: C_24  and  O_25
REMARK    8  A    between atoms: O_25  and  S_26
REMARK    9  A    between atoms: C_30  and  O_31
REMARK   10  A    between atoms: O_31  and  S_32
REMARK                            x       y       z     vdW  Elec       q    Type
REMARK                         _______ _______ _______ _____ _____    ______ ____
ROOT
ATOM      1  O   UNL     1      -7.378  15.890  67.925  0.00  0.00    -0.326 OA
ENDROOT
BRANCH   1   2
ATOM      2  C   UNL     1      -6.190  16.743  67.437  0.00  0.00    +0.269 C 
ATOM      3  C   UNL     1      -6.453  17.949  68.671  0.00  0.00    +0.231 C 
ATOM      4  C   UNL     1      -4.960  17.732  69.476  0.00  0.00    +0.210 C 
ATOM      5  C   UNL     1      -5.642  16.536  70.526  0.00  0.00    +0.213 C 
ATOM      6  O   UNL     1      -4.264  16.038  70.931  0.00  0.00    -0.218 OA
ATOM      7  C   UNL     1      -5.737  15.416  69.323  0.00  0.00    +0.180 C 
ATOM      8  O   UNL     1      -5.165  15.919  68.234  0.00  0.00    -0.326 OA
BRANCH   3   9
ATOM      9  O   UNL     1      -5.826  19.007  67.813  0.00  0.00    -0.236 OA
BRANCH   9  10
ATOM     10  S   UNL     1      -6.917  20.140  67.361  0.00  0.00    +0.000 S 
ATOM     11  O   UNL     1      -7.531  19.833  65.818  0.00  0.00    -0.268 OA
ATOM     12  O   UNL     1      -6.445  21.544  67.361  0.00  0.00    -0.345 OA
ATOM     13  O   UNL     1      -8.096  19.995  68.301  0.00  0.00    -0.345 OA
ENDBRANCH   9  10
ENDBRANCH   3   9
BRANCH   4  14
ATOM     14  O   UNL     1      -5.336  18.822  70.432  0.00  0.00    -0.238 OA
BRANCH  14  15
ATOM     15  S   UNL     1      -4.000  19.675  70.879  0.00  0.00    -0.000 S 
ATOM     16  O   UNL     1      -4.104  21.099  69.965  0.00  0.00    -0.268 OA
ATOM     17  O   UNL     1      -2.699  19.055  70.448  0.00  0.00    -0.345 OA
ATOM     18  O   UNL     1      -3.974  20.094  72.309  0.00  0.00    -0.345 OA
ENDBRANCH  14  15
ENDBRANCH   4  14
ENDBRANCH   1   2
BRANCH   1  21
ATOM     19  C   UNL     1     -10.117  14.354  65.939  0.00  0.00    +0.234 C 
ATOM     20  C   UNL     1      -9.109  14.527  67.308  0.00  0.00    +0.207 C 
ATOM     21  C   UNL     1      -8.158  15.798  66.625  0.00  0.00    +0.179 C 
ATOM     22  C   UNL     1      -9.196  16.977  67.134  0.00  0.00    +0.177 C 
ATOM     23  O   UNL     1     -10.300  16.295  67.414  0.00  0.00    -0.324 OA
ATOM     24  C   UNL     1     -10.988  15.854  66.115  0.00  0.00    +0.301 C 
ATOM     25  O   UNL     1     -10.012  16.581  65.160  0.00  0.00    -0.187 OA
BRANCH  19  26
ATOM     26  O   UNL     1     -11.155  13.665  66.775  0.00  0.00    -0.236 OA
BRANCH  26  28
ATOM     27  O   UNL     1     -11.996  12.406  66.206  0.00  0.00    -0.345 OA
ATOM     28  S   UNL     1     -11.799  12.401  66.056  0.00  0.00    +0.000 S 
ATOM     29  O   UNL     1     -12.970  12.532  64.962  0.00  0.00    -0.268 OA
ATOM     30  O   UNL     1     -11.797  11.196  66.918  0.00  0.00    -0.345 OA
ENDBRANCH  26  28
ENDBRANCH  19  26
BRANCH  20  31
ATOM     31  O   UNL     1      -8.155  13.506  66.756  0.00  0.00    -0.238 OA
BRANCH  31  32
ATOM     32  S   UNL     1      -8.066  12.227  67.797  0.00  0.00    -0.000 S 
ATOM     33  O   UNL     1      -6.603  12.082  68.578  0.00  0.00    -0.268 OA
ATOM     34  O   UNL     1      -9.234  12.299  68.755  0.00  0.00    -0.345 OA
ATOM     35  O   UNL     1      -8.343  10.975  66.989  0.00  0.00    -0.345 OA
ENDBRANCH  31  32
ENDBRANCH  20  31
ENDBRANCH   1  21
TORSDOF 10
ENDMDL
MODEL 8
REMARK VINA RESULT:      -6.4      2.271      7.999
REMARK  Name = 
REMARK  10 active torsions:
REMARK  status: ('A' for Active; 'I' for Inactive)
REMARK    1  A    between atoms: S_2  and  O_5
REMARK    2  A    between atoms: O_5  and  C_6
REMARK    3  A    between atoms: C_11  and  O_12
REMARK    4  A    between atoms: O_12  and  C_13
REMARK    5  A    between atoms: C_18  and  O_19
REMARK    6  A    between atoms: O_19  and  S_20
REMARK    7  A    between atoms: C_24  and  O_25
REMARK    8  A    between atoms: O_25  and  S_26
REMARK    9  A    between atoms: C_30  and  O_31
REMARK   10  A    between atoms: O_31  and  S_32
REMARK                            x       y       z     vdW  Elec       q    Type
REMARK                         _______ _______ _______ _____ _____    ______ ____
ROOT
ATOM      1  O   UNL     1     -11.119  11.129  69.570  0.00  0.00    -0.326 OA
ENDROOT
BRANCH   1   2
ATOM      2  C   UNL     1     -12.123  12.092  68.903  0.00  0.00    +0.269 C 
ATOM      3  C   UNL     1     -11.001  13.427  68.972  0.00  0.00    +0.231 C 
ATOM      4  C   UNL     1     -10.860  13.648  67.283  0.00  0.00    +0.210 C 
ATOM      5  C   UNL     1      -9.522  12.553  67.200  0.00  0.00    +0.213 C 
ATOM      6  O   UNL     1      -9.671  12.408  65.694  0.00  0.00    -0.218 OA
ATOM      7  C   UNL     1     -10.477  11.237  67.461  0.00  0.00    +0.180 C 
ATOM      8  O   UNL     1     -11.744  11.635  67.485  0.00  0.00    -0.326 OA
BRANCH   3   9
ATOM      9  O   UNL     1     -12.131  14.412  68.997  0.00  0.00    -0.236 OA
BRANCH   9  10
ATOM     10  S   UNL     1     -12.033  15.407  70.293  0.00  0.00    +0.000 S 
ATOM     11  O   UNL     1     -13.556  15.725  70.950  0.00  0.00    -0.268 OA
ATOM     12  O   UNL     1     -11.383  16.718  70.068  0.00  0.00    -0.345 OA
ATOM     13  O   UNL     1     -11.284  14.640  71.363  0.00  0.00    -0.345 OA
ENDBRANCH   9  10
ENDBRANCH   3   9
BRANCH   4  14
ATOM     14  O   UNL     1      -9.935  14.800  67.527  0.00  0.00    -0.238 OA
BRANCH  14  15
ATOM     15  S   UNL     1     -10.159  15.965  66.385  0.00  0.00    -0.000 S 
ATOM     16  O   UNL     1      -8.595  16.269  65.804  0.00  0.00    -0.268 OA
ATOM     17  O   UNL     1     -10.612  17.290  66.933  0.00  0.00    -0.345 OA
ATOM     18  O   UNL     1     -10.969  15.539  65.208  0.00  0.00    -0.345 OA
ENDBRANCH  14  15
ENDBRANCH   4  14
ENDBRANCH   1   2
BRANCH   1  21
ATOM     19  C   UNL     1     -11.920   8.071  71.522  0.00  0.00    +0.234 C 
ATOM     20  C   UNL     1     -10.944   9.390  71.047  0.00  0.00    +0.207 C 
ATOM     21  C   UNL     1     -12.053   9.965  69.852  0.00  0.00    +0.179 C 
ATOM     22  C   UNL     1     -12.900  10.874  70.938  0.00  0.00    +0.177 C 
ATOM     23  O   UNL     1     -12.517  10.369  72.105  0.00  0.00    -0.324 OA
ATOM     24  C   UNL     1     -13.166   8.994  72.320  0.00  0.00    +0.301 C 
ATOM     25  O   UNL     1     -14.028   9.019  71.036  0.00  0.00    -0.187 OA
BRANCH  19  26
ATOM     26  O   UNL     1     -11.176   7.972  72.821  0.00  0.00    -0.236 OA
BRANCH  26  28
ATOM     27  O   UNL     1     -10.519   6.572  73.295  0.00  0.00    -0.345 OA
ATOM     28  S   UNL     1     -10.502   6.550  73.049  0.00  0.00    +0.000 S 
ATOM     29  O   UNL     1     -11.358   5.231  73.384  0.00  0.00    -0.268 OA
ATOM     30  O   UNL     1      -9.144   6.653  73.632  0.00  0.00    -0.345 OA
ENDBRANCH  26  28
ENDBRANCH  19  26
BRANCH  20  31
ATOM     31  O   UNL     1     -10.263   8.536  70.015  0.00  0.00    -0.238 OA
BRANCH  31  32
ATOM     32  S   UNL     1      -8.628   8.628  70.229  0.00  0.00    -0.000 S 
ATOM     33  O   UNL     1      -7.827   9.458  69.028  0.00  0.00    -0.268 OA
ATOM     34  O   UNL     1      -8.348   9.181  71.607  0.00  0.00    -0.345 OA
ATOM     35  O   UNL     1      -8.108   7.206  70.303  0.00  0.00    -0.345 OA
ENDBRANCH  31  32
ENDBRANCH  20  31
ENDBRANCH   1  21
TORSDOF 10
ENDMDL
MODEL 9
REMARK VINA RESULT:      -6.4      4.177      8.861
REMARK  Name = 
REMARK  10 active torsions:
REMARK  status: ('A' for Active; 'I' for Inactive)
REMARK    1  A    between atoms: S_2  and  O_5
REMARK    2  A    between atoms: O_5  and  C_6
REMARK    3  A    between atoms: C_11  and  O_12
REMARK    4  A    between atoms: O_12  and  C_13
REMARK    5  A    between atoms: C_18  and  O_19
REMARK    6  A    between atoms: O_19  and  S_20
REMARK    7  A    between atoms: C_24  and  O_25
REMARK    8  A    between atoms: O_25  and  S_26
REMARK    9  A    between atoms: C_30  and  O_31
REMARK   10  A    between atoms: O_31  and  S_32
REMARK                            x       y       z     vdW  Elec       q    Type
REMARK                         _______ _______ _______ _____ _____    ______ ____
ROOT
ATOM      1  O   UNL     1      -8.599  14.913  67.714  0.00  0.00    -0.326 OA
ENDROOT
BRANCH   1   2
ATOM      2  C   UNL     1      -8.128  15.843  66.578  0.00  0.00    +0.269 C 
ATOM      3  C   UNL     1      -8.468  17.278  67.510  0.00  0.00    +0.231 C 
ATOM      4  C   UNL     1      -6.857  17.845  67.588  0.00  0.00    +0.210 C 
ATOM      5  C   UNL     1      -6.571  16.980  69.060  0.00  0.00    +0.213 C 
ATOM      6  O   UNL     1      -5.065  17.116  68.904  0.00  0.00    -0.218 OA
ATOM      7  C   UNL     1      -6.559  15.521  68.297  0.00  0.00    +0.180 C 
ATOM      8  O   UNL     1      -6.650  15.731  66.989  0.00  0.00    -0.326 OA
BRANCH   3   9
ATOM      9  O   UNL     1      -8.678  18.076  66.258  0.00  0.00    -0.236 OA
BRANCH   9  10
ATOM     10  S   UNL     1     -10.227  18.586  66.122  0.00  0.00    +0.000 S 
ATOM     11  O   UNL     1     -11.053  17.751  64.907  0.00  0.00    -0.268 OA
ATOM     12  O   UNL     1     -10.424  20.030  65.857  0.00  0.00    -0.345 OA
ATOM     13  O   UNL     1     -10.917  18.203  67.415  0.00  0.00    -0.345 OA
ENDBRANCH   9  10
ENDBRANCH   3   9
BRANCH   4  14
ATOM     14  O   UNL     1      -7.333  19.042  68.354  0.00  0.00    -0.238 OA
BRANCH  14  15
ATOM     15  S   UNL     1      -6.419  20.359  67.978  0.00  0.00    -0.000 S 
ATOM     16  O   UNL     1      -5.245  19.748  66.917  0.00  0.00    -0.268 OA
ATOM     17  O   UNL     1      -5.624  20.909  69.129  0.00  0.00    -0.345 OA
ATOM     18  O   UNL     1      -7.141  21.430  67.233  0.00  0.00    -0.345 OA
ENDBRANCH  14  15
ENDBRANCH   4  14
ENDBRANCH   1   2
BRANCH   1  21
ATOM     19  C   UNL     1     -10.263  11.649  67.098  0.00  0.00    +0.234 C 
ATOM     20  C   UNL     1      -9.120  12.688  67.829  0.00  0.00    +0.207 C 
ATOM     21  C   UNL     1      -9.616  14.089  66.945  0.00  0.00    +0.179 C 
ATOM     22  C   UNL     1     -10.793  14.477  68.036  0.00  0.00    +0.177 C 
ATOM     23  O   UNL     1     -10.944  13.348  68.719  0.00  0.00    -0.324 OA
ATOM     24  C   UNL     1     -11.684  12.311  67.861  0.00  0.00    +0.301 C 
ATOM     25  O   UNL     1     -11.943  13.250  66.659  0.00  0.00    -0.187 OA
BRANCH  19  26
ATOM     26  O   UNL     1     -10.120  10.676  68.232  0.00  0.00    -0.236 OA
BRANCH  26  28
ATOM     27  O   UNL     1      -9.866   9.105  67.941  0.00  0.00    -0.345 OA
ATOM     28  S   UNL     1      -9.745   9.207  67.751  0.00  0.00    +0.000 S 
ATOM     29  O   UNL     1     -10.776   8.270  66.949  0.00  0.00    -0.268 OA
ATOM     30  O   UNL     1      -8.777   8.544  68.655  0.00  0.00    -0.345 OA
ENDBRANCH  26  28
ENDBRANCH  19  26
BRANCH  20  31
ATOM     31  O   UNL     1      -8.116  12.361  66.761  0.00  0.00    -0.238 OA
BRANCH  31  32
ATOM     32  S   UNL     1      -6.735  11.794  67.470  0.00  0.00    -0.000 S 
ATOM     33  O   UNL     1      -6.711  11.934  69.129  0.00  0.00    -0.268 OA
ATOM     34  O   UNL     1      -6.496  10.377  67.001  0.00  0.00    -0.345 OA
ATOM     35  O   UNL     1      -5.577  12.569  66.873  0.00  0.00    -0.345 OA
ENDBRANCH  31  32
ENDBRANCH  20  31
ENDBRANCH   1  21
TORSDOF 10
ENDMDL
