MODEL 1
REMARK VINA RESULT:      -7.1      0.000      0.000
REMARK  Name = 
REMARK  1 active torsions:
REMARK  status: ('A' for Active; 'I' for Inactive)
REMARK    1  A    between atoms: C_10  and  C_11
REMARK                            x       y       z     vdW  Elec       q    Type
REMARK                         _______ _______ _______ _____ _____    ______ ____
ROOT
ATOM      1  C   UNL     1     -13.147  14.488  73.051  0.00  0.00    +0.120 C 
ATOM      2  N   UNL     1     -12.507  14.473  71.761  0.00  0.00    -0.253 N 
ATOM      3  C   UNL     1     -11.493  15.422  71.517  0.00  0.00    +0.284 C 
ATOM      4  O   UNL     1     -11.620  16.440  72.263  0.00  0.00    -0.270 OA
ATOM      5  C   UNL     1     -11.226  16.134  70.062  0.00  0.00    +0.331 C 
ATOM      6  O   UNL     1     -12.658  15.937  69.520  0.00  0.00    -0.186 OA
ATOM      7  N   UNL     1     -10.581  14.859  69.341  0.00  0.00    -0.233 NA
ATOM      8  C   UNL     1     -11.179  13.847  68.938  0.00  0.00    +0.080 C 
ATOM      9  C   UNL     1     -11.838  12.953  69.873  0.00  0.00    +0.032 A 
ATOM     10  C   UNL     1     -11.498  11.613  69.672  0.00  0.00    +0.014 A 
ATOM     11  C   UNL     1     -11.768  10.659  70.652  0.00  0.00    +0.058 A 
ATOM     12 CL   UNL     1     -10.664   9.384  71.055  0.00  0.00    -0.082 Cl
ATOM     13  C   UNL     1     -12.927  10.938  71.357  0.00  0.00    +0.013 A 
ATOM     14  C   UNL     1     -13.188  12.265  71.691  0.00  0.00    +0.016 A 
ATOM     15  C   UNL     1     -12.686  13.313  70.925  0.00  0.00    +0.055 A 
ENDROOT
BRANCH   8  16
ATOM     16  C   UNL     1     -11.116  13.248  67.603  0.00  0.00    +0.017 A 
ATOM     17  C   UNL     1     -12.224  13.555  66.803  0.00  0.00    +0.001 A 
ATOM     18  C   UNL     1     -12.062  14.056  65.512  0.00  0.00    +0.000 A 
ATOM     19  C   UNL     1     -10.913  13.702  64.834  0.00  0.00    +0.000 A 
ATOM     20  C   UNL     1      -9.953  12.947  65.492  0.00  0.00    +0.000 A 
ATOM     21  C   UNL     1      -9.985  13.028  66.878  0.00  0.00    +0.001 A 
ENDBRANCH   8  16
TORSDOF 1
ENDMDL
MODEL 2
REMARK VINA RESULT:      -6.6      1.680      2.105
REMARK  Name = 
REMARK  1 active torsions:
REMARK  status: ('A' for Active; 'I' for Inactive)
REMARK    1  A    between atoms: C_10  and  C_11
REMARK                            x       y       z     vdW  Elec       q    Type
REMARK                         _______ _______ _______ _____ _____    ______ ____
ROOT
ATOM      1  C   UNL     1     -11.608  15.509  71.110  0.00  0.00    +0.120 C 
ATOM      2  N   UNL     1     -11.257  14.899  69.853  0.00  0.00    -0.253 N 
ATOM      3  C   UNL     1     -10.131  15.398  69.169  0.00  0.00    +0.284 C 
ATOM      4  O   UNL     1      -9.880  16.597  69.500  0.00  0.00    -0.270 OA
ATOM      5  C   UNL     1     -10.010  15.494  67.535  0.00  0.00    +0.331 C 
ATOM      6  O   UNL     1     -11.530  15.533  67.263  0.00  0.00    -0.186 OA
ATOM      7  N   UNL     1      -9.817  13.929  67.265  0.00  0.00    -0.233 NA
ATOM      8  C   UNL     1     -10.690  13.046  67.329  0.00  0.00    +0.080 C 
ATOM      9  C   UNL     1     -11.328  12.724  68.593  0.00  0.00    +0.032 A 
ATOM     10  C   UNL     1     -11.336  11.352  68.861  0.00  0.00    +0.014 A 
ATOM     11  C   UNL     1     -11.606  10.884  70.146  0.00  0.00    +0.058 A 
ATOM     12 CL   UNL     1     -10.750   9.559  70.866  0.00  0.00    -0.082 Cl
ATOM     13  C   UNL     1     -12.511  11.685  70.822  0.00  0.00    +0.013 A 
ATOM     14  C   UNL     1     -12.404  13.066  70.672  0.00  0.00    +0.016 A 
ATOM     15  C   UNL     1     -11.849  13.626  69.526  0.00  0.00    +0.055 A 
ENDROOT
BRANCH   8  16
ATOM     16  C   UNL     1     -11.027  12.052  66.309  0.00  0.00    +0.017 A 
ATOM     17  C   UNL     1     -12.057  12.461  65.452  0.00  0.00    +0.001 A 
ATOM     18  C   UNL     1     -11.911  12.392  64.068  0.00  0.00    +0.000 A 
ATOM     19  C   UNL     1     -11.065  11.422  63.567  0.00  0.00    +0.000 A 
ATOM     20  C   UNL     1     -10.350  10.635  64.456  0.00  0.00    +0.000 A 
ATOM     21  C   UNL     1     -10.157  11.189  65.715  0.00  0.00    +0.001 A 
ENDBRANCH   8  16
TORSDOF 1
ENDMDL
MODEL 3
REMARK VINA RESULT:      -6.5      3.232      6.303
REMARK  Name = 
REMARK  1 active torsions:
REMARK  status: ('A' for Active; 'I' for Inactive)
REMARK    1  A    between atoms: C_10  and  C_11
REMARK                            x       y       z     vdW  Elec       q    Type
REMARK                         _______ _______ _______ _____ _____    ______ ____
ROOT
ATOM      1  C   UNL     1     -10.133  14.622  64.968  0.00  0.00    +0.120 C 
ATOM      2  N   UNL     1     -10.462  14.513  66.367  0.00  0.00    -0.253 N 
ATOM      3  C   UNL     1     -10.045  13.355  67.053  0.00  0.00    +0.284 C 
ATOM      4  O   UNL     1      -9.875  12.380  66.260  0.00  0.00    -0.270 OA
ATOM      5  C   UNL     1     -10.903  12.633  68.253  0.00  0.00    +0.331 C 
ATOM      6  O   UNL     1     -12.280  13.182  67.819  0.00  0.00    -0.186 OA
ATOM      7  N   UNL     1     -10.616  13.732  69.381  0.00  0.00    -0.233 NA
ATOM      8  C   UNL     1     -11.116  14.868  69.461  0.00  0.00    +0.080 C 
ATOM      9  C   UNL     1     -10.842  15.872  68.448  0.00  0.00    +0.032 A 
ATOM     10  C   UNL     1     -10.444  17.096  68.993  0.00  0.00    +0.014 A 
ATOM     11  C   UNL     1      -9.838  18.063  68.192  0.00  0.00    +0.058 A 
ATOM     12 CL   UNL     1      -8.499  19.026  68.729  0.00  0.00    -0.082 Cl
ATOM     13  C   UNL     1     -10.320  18.054  66.895  0.00  0.00    +0.013 A 
ATOM     14  C   UNL     1     -10.573  16.821  66.297  0.00  0.00    +0.016 A 
ATOM     15  C   UNL     1     -10.889  15.702  67.061  0.00  0.00    +0.055 A 
ENDROOT
BRANCH   8  16
ATOM     16  C   UNL     1     -11.787  15.465  70.616  0.00  0.00    +0.017 A 
ATOM     17  C   UNL     1     -13.185  15.452  70.516  0.00  0.00    +0.001 A 
ATOM     18  C   UNL     1     -13.975  14.957  71.551  0.00  0.00    +0.000 A 
ATOM     19  C   UNL     1     -13.468  15.041  72.833  0.00  0.00    +0.000 A 
ATOM     20  C   UNL     1     -12.182  15.528  73.013  0.00  0.00    +0.000 A 
ATOM     21  C   UNL     1     -11.350  15.425  71.905  0.00  0.00    +0.001 A 
ENDBRANCH   8  16
TORSDOF 1
ENDMDL
MODEL 4
REMARK VINA RESULT:      -6.4      2.821      5.643
REMARK  Name = 
REMARK  1 active torsions:
REMARK  status: ('A' for Active; 'I' for Inactive)
REMARK    1  A    between atoms: C_10  and  C_11
REMARK                            x       y       z     vdW  Elec       q    Type
REMARK                         _______ _______ _______ _____ _____    ______ ____
ROOT
ATOM      1  C   UNL     1     -10.299  11.627  63.319  0.00  0.00    +0.120 C 
ATOM      2  N   UNL     1     -10.772  12.321  64.490  0.00  0.00    -0.253 N 
ATOM      3  C   UNL     1     -12.058  12.895  64.440  0.00  0.00    +0.284 C 
ATOM      4  O   UNL     1     -12.413  13.140  63.247  0.00  0.00    -0.270 OA
ATOM      5  C   UNL     1     -12.471  14.301  65.181  0.00  0.00    +0.331 C 
ATOM      6  O   UNL     1     -11.042  14.884  65.231  0.00  0.00    -0.186 OA
ATOM      7  N   UNL     1     -12.488  13.732  66.676  0.00  0.00    -0.233 NA
ATOM      8  C   UNL     1     -11.503  13.443  67.377  0.00  0.00    +0.080 C 
ATOM      9  C   UNL     1     -10.618  12.355  66.999  0.00  0.00    +0.032 A 
ATOM     10  C   UNL     1     -10.373  11.467  68.050  0.00  0.00    +0.014 A 
ATOM     11  C   UNL     1      -9.822  10.211  67.801  0.00  0.00    +0.058 A 
ATOM     12 CL   UNL     1     -10.349   8.773  68.616  0.00  0.00    -0.082 Cl
ATOM     13  C   UNL     1      -8.935  10.223  66.738  0.00  0.00    +0.013 A 
ATOM     14  C   UNL     1      -9.257  10.993  65.623  0.00  0.00    +0.016 A 
ATOM     15  C   UNL     1     -10.075  12.113  65.734  0.00  0.00    +0.055 A 
ENDROOT
BRANCH   8  16
ATOM     16  C   UNL     1     -11.211  13.902  68.736  0.00  0.00    +0.017 A 
ATOM     17  C   UNL     1     -10.356  15.010  68.778  0.00  0.00    +0.001 A 
ATOM     18  C   UNL     1     -10.684  16.144  69.519  0.00  0.00    +0.000 A 
ATOM     19  C   UNL     1     -11.489  15.967  70.627  0.00  0.00    +0.000 A 
ATOM     20  C   UNL     1     -11.992  14.702  70.893  0.00  0.00    +0.000 A 
ATOM     21  C   UNL     1     -12.063  13.851  69.797  0.00  0.00    +0.001 A 
ENDBRANCH   8  16
TORSDOF 1
ENDMDL
MODEL 5
REMARK VINA RESULT:      -6.4      2.153      5.015
REMARK  Name = 
REMARK  1 active torsions:
REMARK  status: ('A' for Active; 'I' for Inactive)
REMARK    1  A    between atoms: C_10  and  C_11
REMARK                            x       y       z     vdW  Elec       q    Type
REMARK                         _______ _______ _______ _____ _____    ______ ____
ROOT
ATOM      1  C   UNL     1     -10.127  10.277  66.824  0.00  0.00    +0.120 C 
ATOM      2  N   UNL     1     -10.679  11.341  67.625  0.00  0.00    -0.253 N 
ATOM      3  C   UNL     1     -11.352  12.385  66.960  0.00  0.00    +0.284 C 
ATOM      4  O   UNL     1     -10.967  12.495  65.756  0.00  0.00    -0.270 OA
ATOM      5  C   UNL     1     -11.325  13.954  67.440  0.00  0.00    +0.331 C 
ATOM      6  O   UNL     1      -9.990  13.864  68.212  0.00  0.00    -0.186 OA
ATOM      7  N   UNL     1     -12.283  13.783  68.711  0.00  0.00    -0.233 NA
ATOM      8  C   UNL     1     -11.992  13.257  69.799  0.00  0.00    +0.080 C 
ATOM      9  C   UNL     1     -11.674  11.842  69.879  0.00  0.00    +0.032 A 
ATOM     10  C   UNL     1     -12.386  11.183  70.885  0.00  0.00    +0.014 A 
ATOM     11  C   UNL     1     -12.459   9.791  70.904  0.00  0.00    +0.058 A 
ATOM     12 CL   UNL     1     -13.910   8.930  71.305  0.00  0.00    -0.082 Cl
ATOM     13  C   UNL     1     -11.306   9.194  70.424  0.00  0.00    +0.013 A 
ATOM     14  C   UNL     1     -10.680   9.769  69.320  0.00  0.00    +0.016 A 
ATOM     15  C   UNL     1     -10.811  11.126  69.044  0.00  0.00    +0.055 A 
ENDROOT
BRANCH   8  16
ATOM     16  C   UNL     1     -12.164  13.827  71.137  0.00  0.00    +0.017 A 
ATOM     17  C   UNL     1     -11.405  14.985  71.350  0.00  0.00    +0.001 A 
ATOM     18  C   UNL     1     -11.992  16.146  71.851  0.00  0.00    +0.000 A 
ATOM     19  C   UNL     1     -13.100  15.999  72.661  0.00  0.00    +0.000 A 
ATOM     20  C   UNL     1     -13.617  14.728  72.863  0.00  0.00    +0.000 A 
ATOM     21  C   UNL     1     -13.306  13.799  71.877  0.00  0.00    +0.001 A 
ENDBRANCH   8  16
TORSDOF 1
ENDMDL
MODEL 6
REMARK VINA RESULT:      -6.3      3.331      6.087
REMARK  Name = 
REMARK  1 active torsions:
REMARK  status: ('A' for Active; 'I' for Inactive)
REMARK    1  A    between atoms: C_10  and  C_11
REMARK                            x       y       z     vdW  Elec       q    Type
REMARK                         _______ _______ _______ _____ _____    ______ ____
ROOT
ATOM      1  C   UNL     1      -9.869  11.210  63.021  0.00  0.00    +0.120 C 
ATOM      2  N   UNL     1     -10.477  11.585  64.272  0.00  0.00    -0.253 N 
ATOM      3  C   UNL     1     -11.701  12.284  64.226  0.00  0.00    +0.284 C 
ATOM      4  O   UNL     1     -11.846  12.897  63.125  0.00  0.00    -0.270 OA
ATOM      5  C   UNL     1     -12.136  13.454  65.293  0.00  0.00    +0.331 C 
ATOM      6  O   UNL     1     -10.699  13.840  65.705  0.00  0.00    -0.186 OA
ATOM      7  N   UNL     1     -12.426  12.484  66.533  0.00  0.00    -0.233 NA
ATOM      8  C   UNL     1     -11.584  11.902  67.238  0.00  0.00    +0.080 C 
ATOM      9  C   UNL     1     -10.721  10.880  66.673  0.00  0.00    +0.032 A 
ATOM     10  C   UNL     1     -10.702   9.707  67.432  0.00  0.00    +0.014 A 
ATOM     11  C   UNL     1     -10.198   8.524  66.893  0.00  0.00    +0.058 A 
ATOM     12 CL   UNL     1     -10.937   6.978  67.162  0.00  0.00    -0.082 Cl
ATOM     13  C   UNL     1      -9.155   8.746  66.011  0.00  0.00    +0.013 A 
ATOM     14  C   UNL     1      -9.248   9.833  65.145  0.00  0.00    +0.016 A 
ATOM     15  C   UNL     1     -10.000  10.956  65.477  0.00  0.00    +0.055 A 
ENDROOT
BRANCH   8  16
ATOM     16  C   UNL     1     -11.484  11.917  68.699  0.00  0.00    +0.017 A 
ATOM     17  C   UNL     1     -11.290  13.199  69.230  0.00  0.00    +0.001 A 
ATOM     18  C   UNL     1     -12.096  13.679  70.261  0.00  0.00    +0.000 A 
ATOM     19  C   UNL     1     -12.644  12.750  71.123  0.00  0.00    +0.000 A 
ATOM     20  C   UNL     1     -12.437  11.402  70.873  0.00  0.00    +0.000 A 
ATOM     21  C   UNL     1     -12.138  11.084  69.554  0.00  0.00    +0.001 A 
ENDBRANCH   8  16
TORSDOF 1
ENDMDL
MODEL 7
REMARK VINA RESULT:      -6.2      2.986      4.475
REMARK  Name = 
REMARK  1 active torsions:
REMARK  status: ('A' for Active; 'I' for Inactive)
REMARK    1  A    between atoms: C_10  and  C_11
REMARK                            x       y       z     vdW  Elec       q    Type
REMARK                         _______ _______ _______ _____ _____    ______ ____
ROOT
ATOM      1  C   UNL     1     -12.390  10.180  70.033  0.00  0.00    +0.120 C 
ATOM      2  N   UNL     1     -11.906  11.417  69.476  0.00  0.00    -0.253 N 
ATOM      3  C   UNL     1     -11.768  11.500  68.076  0.00  0.00    +0.284 C 
ATOM      4  O   UNL     1     -11.622  10.353  67.554  0.00  0.00    -0.270 OA
ATOM      5  C   UNL     1     -10.581  12.341  67.314  0.00  0.00    +0.331 C 
ATOM      6  O   UNL     1      -9.578  12.304  68.487  0.00  0.00    -0.186 OA
ATOM      7  N   UNL     1     -11.159  13.803  67.614  0.00  0.00    -0.233 NA
ATOM      8  C   UNL     1     -11.136  14.406  68.701  0.00  0.00    +0.080 C 
ATOM      9  C   UNL     1     -11.880  13.905  69.843  0.00  0.00    +0.032 A 
ATOM     10  C   UNL     1     -12.667  14.887  70.450  0.00  0.00    +0.014 A 
ATOM     11  C   UNL     1     -13.679  14.532  71.341  0.00  0.00    +0.058 A 
ATOM     12 CL   UNL     1     -15.226  15.315  71.369  0.00  0.00    -0.082 Cl
ATOM     13  C   UNL     1     -13.364  13.403  72.078  0.00  0.00    +0.013 A 
ATOM     14  C   UNL     1     -12.711  12.357  71.429  0.00  0.00    +0.016 A 
ATOM     15  C   UNL     1     -11.910  12.589  70.316  0.00  0.00    +0.055 A 
ENDROOT
BRANCH   8  16
ATOM     16  C   UNL     1     -10.638  15.758  68.958  0.00  0.00    +0.017 A 
ATOM     17  C   UNL     1      -9.308  15.788  69.396  0.00  0.00    +0.001 A 
ATOM     18  C   UNL     1      -8.368  16.616  68.786  0.00  0.00    +0.000 A 
ATOM     19  C   UNL     1      -8.832  17.778  68.201  0.00  0.00    +0.000 A 
ATOM     20  C   UNL     1     -10.198  18.016  68.176  0.00  0.00    +0.000 A 
ATOM     21  C   UNL     1     -10.997  16.885  68.282  0.00  0.00    +0.001 A 
ENDBRANCH   8  16
TORSDOF 1
ENDMDL
MODEL 8
REMARK VINA RESULT:      -6.2      3.953      5.634
REMARK  Name = 
REMARK  1 active torsions:
REMARK  status: ('A' for Active; 'I' for Inactive)
REMARK    1  A    between atoms: C_10  and  C_11
REMARK                            x       y       z     vdW  Elec       q    Type
REMARK                         _______ _______ _______ _____ _____    ______ ____
ROOT
ATOM      1  C   UNL     1      -7.940  11.958  68.435  0.00  0.00    +0.120 C 
ATOM      2  N   UNL     1      -8.119  13.339  68.065  0.00  0.00    -0.253 N 
ATOM      3  C   UNL     1      -7.088  13.965  67.336  0.00  0.00    +0.284 C 
ATOM      4  O   UNL     1      -5.971  13.393  67.525  0.00  0.00    -0.270 OA
ATOM      5  C   UNL     1      -6.662  15.541  67.506  0.00  0.00    +0.331 C 
ATOM      6  O   UNL     1      -7.204  15.701  68.943  0.00  0.00    -0.186 OA
ATOM      7  N   UNL     1      -7.934  16.164  66.761  0.00  0.00    -0.233 NA
ATOM      8  C   UNL     1      -9.093  16.243  67.203  0.00  0.00    +0.080 C 
ATOM      9  C   UNL     1      -9.868  15.045  67.471  0.00  0.00    +0.032 A 
ATOM     10  C   UNL     1     -11.146  15.088  66.905  0.00  0.00    +0.014 A 
ATOM     11  C   UNL     1     -11.904  13.925  66.779  0.00  0.00    +0.058 A 
ATOM     12 CL   UNL     1     -12.865  13.575  65.378  0.00  0.00    -0.082 Cl
ATOM     13  C   UNL     1     -11.680  13.032  67.813  0.00  0.00    +0.013 A 
ATOM     14  C   UNL     1     -10.374  12.877  68.274  0.00  0.00    +0.016 A 
ATOM     15  C   UNL     1      -9.442  13.903  68.157  0.00  0.00    +0.055 A 
ENDROOT
BRANCH   8  16
ATOM     16  C   UNL     1      -9.940  17.436  67.275  0.00  0.00    +0.017 A 
ATOM     17  C   UNL     1      -9.931  18.049  68.534  0.00  0.00    +0.001 A 
ATOM     18  C   UNL     1      -9.688  19.415  68.666  0.00  0.00    +0.000 A 
ATOM     19  C   UNL     1     -10.038  20.228  67.607  0.00  0.00    +0.000 A 
ATOM     20  C   UNL     1     -10.528  19.643  66.449  0.00  0.00    +0.000 A 
ATOM     21  C   UNL     1     -10.171  18.314  66.260  0.00  0.00    +0.001 A 
ENDBRANCH   8  16
TORSDOF 1
ENDMDL
MODEL 9
REMARK VINA RESULT:      -6.0      2.852      3.862
REMARK  Name = 
REMARK  1 active torsions:
REMARK  status: ('A' for Active; 'I' for Inactive)
REMARK    1  A    between atoms: C_10  and  C_11
REMARK                            x       y       z     vdW  Elec       q    Type
REMARK                         _______ _______ _______ _____ _____    ______ ____
ROOT
ATOM      1  C   UNL     1      -9.939  17.992  69.122  0.00  0.00    +0.120 C 
ATOM      2  N   UNL     1      -9.873  16.859  68.235  0.00  0.00    -0.253 N 
ATOM      3  C   UNL     1      -8.611  16.494  67.725  0.00  0.00    +0.284 C 
ATOM      4  O   UNL     1      -7.808  17.476  67.724  0.00  0.00    -0.270 OA
ATOM      5  C   UNL     1      -8.364  15.889  66.219  0.00  0.00    +0.331 C 
ATOM      6  O   UNL     1      -9.636  16.497  65.589  0.00  0.00    -0.186 OA
ATOM      7  N   UNL     1      -8.973  14.435  66.494  0.00  0.00    -0.233 NA
ATOM      8  C   UNL     1     -10.175  14.139  66.611  0.00  0.00    +0.080 C 
ATOM      9  C   UNL     1     -10.960  14.651  67.720  0.00  0.00    +0.032 A 
ATOM     10  C   UNL     1     -11.677  13.651  68.383  0.00  0.00    +0.014 A 
ATOM     11  C   UNL     1     -12.221  13.888  69.644  0.00  0.00    +0.058 A 
ATOM     12 CL   UNL     1     -12.196  12.711  70.917  0.00  0.00    -0.082 Cl
ATOM     13  C   UNL     1     -12.634  15.200  69.804  0.00  0.00    +0.013 A 
ATOM     14  C   UNL     1     -11.835  16.209  69.271  0.00  0.00    +0.016 A 
ATOM     15  C   UNL     1     -11.007  15.971  68.179  0.00  0.00    +0.055 A 
ENDROOT
BRANCH   8  16
ATOM     16  C   UNL     1     -10.909  13.096  65.892  0.00  0.00    +0.017 A 
ATOM     17  C   UNL     1     -11.912  13.598  65.053  0.00  0.00    +0.001 A 
ATOM     18  C   UNL     1     -11.997  13.204  63.719  0.00  0.00    +0.000 A 
ATOM     19  C   UNL     1     -11.519  11.950  63.396  0.00  0.00    +0.000 A 
ATOM     20  C   UNL     1     -10.910  11.191  64.384  0.00  0.00    +0.000 A 
ATOM     21  C   UNL     1     -10.394  11.915  65.452  0.00  0.00    +0.001 A 
ENDBRANCH   8  16
TORSDOF 1
ENDMDL
