MODEL 1
REMARK VINA RESULT:      -5.3      0.000      0.000
REMARK  Name = 
REMARK  0 active torsions:
REMARK  status: ('A' for Active; 'I' for Inactive)
REMARK                            x       y       z     vdW  Elec       q    Type
REMARK                         _______ _______ _______ _____ _____    ______ ____
ROOT
ATOM      1  C   UNL     1     -13.759  15.539  72.448  0.00  0.00    +0.132 C 
ATOM      2  N   UNL     1     -12.601  15.236  71.618  0.00  0.00    -0.302 N 
ATOM      3  C   UNL     1     -12.288  14.053  71.032  0.00  0.00    +0.153 A 
ATOM      4  C   UNL     1     -12.740  12.773  71.288  0.00  0.00    +0.283 A 
ATOM      5  N   UNL     1     -12.420  11.793  70.420  0.00  0.00    -0.245 N 
ATOM      6  C   UNL     1     -11.861  12.081  69.218  0.00  0.00    +0.335 A 
ATOM      7  N   UNL     1     -11.620  13.357  68.829  0.00  0.00    -0.263 N 
ATOM      8  C   UNL     1     -11.913  13.746  67.450  0.00  0.00    +0.137 C 
ATOM      9  O   UNL     1     -11.957  11.141  68.371  0.00  0.00    -0.246 OA
ATOM     10  C   UNL     1     -12.322  10.439  70.958  0.00  0.00    +0.138 C 
ATOM     11  O   UNL     1     -13.515  12.555  72.245  0.00  0.00    -0.265 OA
ATOM     12  C   UNL     1     -11.685  14.296  69.805  0.00  0.00    +0.170 A 
ATOM     13  N   UNL     1     -11.443  15.624  69.789  0.00  0.00    -0.206 NA
ATOM     14  C   UNL     1     -11.775  16.117  71.007  0.00  0.00    +0.180 A 
ENDROOT
TORSDOF 0
ENDMDL
MODEL 2
REMARK VINA RESULT:      -5.2      3.762      6.248
REMARK  Name = 
REMARK  0 active torsions:
REMARK  status: ('A' for Active; 'I' for Inactive)
REMARK                            x       y       z     vdW  Elec       q    Type
REMARK                         _______ _______ _______ _____ _____    ______ ____
ROOT
ATOM      1  C   UNL     1     -12.233  14.068  64.219  0.00  0.00    +0.132 C 
ATOM      2  N   UNL     1     -11.500  14.011  65.477  0.00  0.00    -0.302 N 
ATOM      3  C   UNL     1     -10.963  15.045  66.172  0.00  0.00    +0.153 A 
ATOM      4  C   UNL     1     -10.662  16.335  65.778  0.00  0.00    +0.283 A 
ATOM      5  N   UNL     1     -10.321  17.232  66.724  0.00  0.00    -0.245 N 
ATOM      6  C   UNL     1     -10.478  16.950  68.042  0.00  0.00    +0.335 A 
ATOM      7  N   UNL     1     -11.001  15.772  68.463  0.00  0.00    -0.263 N 
ATOM      8  C   UNL     1     -11.959  15.776  69.569  0.00  0.00    +0.137 C 
ATOM      9  O   UNL     1     -10.481  17.976  68.788  0.00  0.00    -0.246 OA
ATOM     10  C   UNL     1      -9.432  18.317  66.317  0.00  0.00    +0.138 C 
ATOM     11  O   UNL     1     -10.807  16.683  64.585  0.00  0.00    -0.265 OA
ATOM     12  C   UNL     1     -11.075  14.790  67.532  0.00  0.00    +0.170 A 
ATOM     13  N   UNL     1     -11.471  13.502  67.616  0.00  0.00    -0.206 NA
ATOM     14  C   UNL     1     -11.467  12.988  66.363  0.00  0.00    +0.180 A 
ENDROOT
TORSDOF 0
ENDMDL
MODEL 3
REMARK VINA RESULT:      -5.1      3.390      4.943
REMARK  Name = 
REMARK  0 active torsions:
REMARK  status: ('A' for Active; 'I' for Inactive)
REMARK                            x       y       z     vdW  Elec       q    Type
REMARK                         _______ _______ _______ _____ _____    ______ ____
ROOT
ATOM      1  C   UNL     1     -11.691  14.136  69.825  0.00  0.00    +0.132 C 
ATOM      2  N   UNL     1     -10.665  14.721  68.973  0.00  0.00    -0.302 N 
ATOM      3  C   UNL     1     -10.725  14.944  67.636  0.00  0.00    +0.153 A 
ATOM      4  C   UNL     1     -11.566  14.420  66.672  0.00  0.00    +0.283 A 
ATOM      5  N   UNL     1     -11.546  14.964  65.440  0.00  0.00    -0.245 N 
ATOM      6  C   UNL     1     -10.891  16.127  65.200  0.00  0.00    +0.335 A 
ATOM      7  N   UNL     1     -10.248  16.801  66.185  0.00  0.00    -0.263 N 
ATOM      8  C   UNL     1     -10.363  18.259  66.240  0.00  0.00    +0.137 C 
ATOM      9  O   UNL     1     -11.254  16.710  64.133  0.00  0.00    -0.246 OA
ATOM     10  C   UNL     1     -11.897  14.088  64.325  0.00  0.00    +0.138 C 
ATOM     11  O   UNL     1     -12.397  13.535  66.971  0.00  0.00    -0.265 OA
ATOM     12  C   UNL     1     -10.041  16.114  67.335  0.00  0.00    +0.170 A 
ATOM     13  N   UNL     1      -9.391  16.443  68.472  0.00  0.00    -0.206 NA
ATOM     14  C   UNL     1      -9.585  15.440  69.362  0.00  0.00    +0.180 A 
ENDROOT
TORSDOF 0
ENDMDL
MODEL 4
REMARK VINA RESULT:      -5.0      4.429      5.893
REMARK  Name = 
REMARK  0 active torsions:
REMARK  status: ('A' for Active; 'I' for Inactive)
REMARK                            x       y       z     vdW  Elec       q    Type
REMARK                         _______ _______ _______ _____ _____    ______ ____
ROOT
ATOM      1  C   UNL     1      -9.012  12.364  68.004  0.00  0.00    +0.132 C 
ATOM      2  N   UNL     1     -10.339  12.715  67.516  0.00  0.00    -0.302 N 
ATOM      3  C   UNL     1     -10.704  13.827  66.831  0.00  0.00    +0.153 A 
ATOM      4  C   UNL     1     -10.065  15.044  66.684  0.00  0.00    +0.283 A 
ATOM      5  N   UNL     1     -10.548  15.917  65.778  0.00  0.00    -0.245 N 
ATOM      6  C   UNL     1     -11.491  15.540  64.879  0.00  0.00    +0.335 A 
ATOM      7  N   UNL     1     -11.972  14.272  64.837  0.00  0.00    -0.263 N 
ATOM      8  C   UNL     1     -12.180  13.635  63.537  0.00  0.00    +0.137 C 
ATOM      9  O   UNL     1     -11.579  16.311  63.875  0.00  0.00    -0.246 OA
ATOM     10  C   UNL     1     -10.330  17.336  66.045  0.00  0.00    +0.138 C 
ATOM     11  O   UNL     1      -9.006  15.282  67.304  0.00  0.00    -0.265 OA
ATOM     12  C   UNL     1     -11.691  13.497  65.912  0.00  0.00    +0.170 A 
ATOM     13  N   UNL     1     -12.058  12.236  66.230  0.00  0.00    -0.206 NA
ATOM     14  C   UNL     1     -11.403  11.891  67.364  0.00  0.00    +0.180 A 
ENDROOT
TORSDOF 0
ENDMDL
MODEL 5
REMARK VINA RESULT:      -5.0      1.851      3.858
REMARK  Name = 
REMARK  0 active torsions:
REMARK  status: ('A' for Active; 'I' for Inactive)
REMARK                            x       y       z     vdW  Elec       q    Type
REMARK                         _______ _______ _______ _____ _____    ______ ____
ROOT
ATOM      1  C   UNL     1     -11.107  11.310  67.840  0.00  0.00    +0.132 C 
ATOM      2  N   UNL     1     -11.690  12.642  67.759  0.00  0.00    -0.302 N 
ATOM      3  C   UNL     1     -12.022  13.467  68.784  0.00  0.00    +0.153 A 
ATOM      4  C   UNL     1     -12.217  13.201  70.127  0.00  0.00    +0.283 A 
ATOM      5  N   UNL     1     -12.341  14.241  70.975  0.00  0.00    -0.245 N 
ATOM      6  C   UNL     1     -12.066  15.507  70.573  0.00  0.00    +0.335 A 
ATOM      7  N   UNL     1     -11.635  15.779  69.316  0.00  0.00    -0.263 N 
ATOM      8  C   UNL     1     -10.561  16.755  69.130  0.00  0.00    +0.137 C 
ATOM      9  O   UNL     1     -11.859  16.314  71.530  0.00  0.00    -0.246 OA
ATOM     10  C   UNL     1     -13.142  14.021  72.177  0.00  0.00    +0.138 C 
ATOM     11  O   UNL     1     -12.173  12.026  70.553  0.00  0.00    -0.265 OA
ATOM     12  C   UNL     1     -11.782  14.782  68.411  0.00  0.00    +0.170 A 
ATOM     13  N   UNL     1     -11.529  14.729  67.085  0.00  0.00    -0.206 NA
ATOM     14  C   UNL     1     -11.737  13.454  66.677  0.00  0.00    +0.180 A 
ENDROOT
TORSDOF 0
ENDMDL
MODEL 6
REMARK VINA RESULT:      -5.0      2.903      4.730
REMARK  Name = 
REMARK  0 active torsions:
REMARK  status: ('A' for Active; 'I' for Inactive)
REMARK                            x       y       z     vdW  Elec       q    Type
REMARK                         _______ _______ _______ _____ _____    ______ ____
ROOT
ATOM      1  C   UNL     1      -9.116  17.514  67.478  0.00  0.00    +0.132 C 
ATOM      2  N   UNL     1     -10.278  16.783  67.965  0.00  0.00    -0.302 N 
ATOM      3  C   UNL     1     -10.952  15.786  67.340  0.00  0.00    +0.153 A 
ATOM      4  C   UNL     1     -10.968  15.404  66.012  0.00  0.00    +0.283 A 
ATOM      5  N   UNL     1     -11.570  14.244  65.685  0.00  0.00    -0.245 N 
ATOM      6  C   UNL     1     -11.957  13.363  66.642  0.00  0.00    +0.335 A 
ATOM      7  N   UNL     1     -11.738  13.599  67.960  0.00  0.00    -0.263 N 
ATOM      8  C   UNL     1     -11.282  12.500  68.811  0.00  0.00    +0.137 C 
ATOM      9  O   UNL     1     -12.154  12.188  66.207  0.00  0.00    -0.246 OA
ATOM     10  C   UNL     1     -12.139  14.149  64.343  0.00  0.00    +0.138 C 
ATOM     11  O   UNL     1     -10.347  16.069  65.154  0.00  0.00    -0.265 OA
ATOM     12  C   UNL     1     -11.394  14.869  68.285  0.00  0.00    +0.170 A 
ATOM     13  N   UNL     1     -11.171  15.461  69.478  0.00  0.00    -0.206 NA
ATOM     14  C   UNL     1     -10.736  16.721  69.238  0.00  0.00    +0.180 A 
ENDROOT
TORSDOF 0
ENDMDL
MODEL 7
REMARK VINA RESULT:      -4.9      3.624      4.672
REMARK  Name = 
REMARK  0 active torsions:
REMARK  status: ('A' for Active; 'I' for Inactive)
REMARK                            x       y       z     vdW  Elec       q    Type
REMARK                         _______ _______ _______ _____ _____    ______ ____
ROOT
ATOM      1  C   UNL     1      -9.813  19.076  68.550  0.00  0.00    +0.132 C 
ATOM      2  N   UNL     1      -9.441  17.923  67.741  0.00  0.00    -0.302 N 
ATOM      3  C   UNL     1     -10.072  16.725  67.663  0.00  0.00    +0.153 A 
ATOM      4  C   UNL     1     -10.994  16.136  68.507  0.00  0.00    +0.283 A 
ATOM      5  N   UNL     1     -11.622  15.019  68.092  0.00  0.00    -0.245 N 
ATOM      6  C   UNL     1     -11.527  14.602  66.805  0.00  0.00    +0.335 A 
ATOM      7  N   UNL     1     -10.818  15.295  65.880  0.00  0.00    -0.263 N 
ATOM      8  C   UNL     1     -11.375  15.461  64.537  0.00  0.00    +0.137 C 
ATOM      9  O   UNL     1     -12.437  13.787  66.462  0.00  0.00    -0.246 OA
ATOM     10  C   UNL     1     -12.061  14.084  69.125  0.00  0.00    +0.138 C 
ATOM     11  O   UNL     1     -11.309  16.688  69.584  0.00  0.00    -0.265 OA
ATOM     12  C   UNL     1      -9.978  16.241  66.365  0.00  0.00    +0.170 A 
ATOM     13  N   UNL     1      -9.093  17.055  65.750  0.00  0.00    -0.206 NA
ATOM     14  C   UNL     1      -8.594  17.901  66.684  0.00  0.00    +0.180 A 
ENDROOT
TORSDOF 0
ENDMDL
MODEL 8
REMARK VINA RESULT:      -4.9      4.811      5.715
REMARK  Name = 
REMARK  0 active torsions:
REMARK  status: ('A' for Active; 'I' for Inactive)
REMARK                            x       y       z     vdW  Elec       q    Type
REMARK                         _______ _______ _______ _____ _____    ______ ____
ROOT
ATOM      1  C   UNL     1     -10.134  19.246  66.027  0.00  0.00    +0.132 C 
ATOM      2  N   UNL     1     -10.271  18.106  66.922  0.00  0.00    -0.302 N 
ATOM      3  C   UNL     1     -10.445  16.803  66.587  0.00  0.00    +0.153 A 
ATOM      4  C   UNL     1     -10.858  16.226  65.400  0.00  0.00    +0.283 A 
ATOM      5  N   UNL     1     -10.751  14.889  65.266  0.00  0.00    -0.245 N 
ATOM      6  C   UNL     1     -10.060  14.149  66.169  0.00  0.00    +0.335 A 
ATOM      7  N   UNL     1      -9.433  14.718  67.228  0.00  0.00    -0.263 N 
ATOM      8  C   UNL     1      -8.099  14.246  67.600  0.00  0.00    +0.137 C 
ATOM      9  O   UNL     1      -9.723  13.004  65.741  0.00  0.00    -0.246 OA
ATOM     10  C   UNL     1     -11.707  14.237  64.374  0.00  0.00    +0.138 C 
ATOM     11  O   UNL     1     -11.221  16.941  64.441  0.00  0.00    -0.265 OA
ATOM     12  C   UNL     1      -9.777  16.000  67.502  0.00  0.00    +0.170 A 
ATOM     13  N   UNL     1      -9.409  16.835  68.497  0.00  0.00    -0.206 NA
ATOM     14  C   UNL     1      -9.950  18.049  68.237  0.00  0.00    +0.180 A 
ENDROOT
TORSDOF 0
ENDMDL
MODEL 9
REMARK VINA RESULT:      -4.8      2.842      5.194
REMARK  Name = 
REMARK  0 active torsions:
REMARK  status: ('A' for Active; 'I' for Inactive)
REMARK                            x       y       z     vdW  Elec       q    Type
REMARK                         _______ _______ _______ _____ _____    ______ ____
ROOT
ATOM      1  C   UNL     1     -10.698  11.211  63.963  0.00  0.00    +0.132 C 
ATOM      2  N   UNL     1     -11.554  12.217  64.579  0.00  0.00    -0.302 N 
ATOM      3  C   UNL     1     -11.728  12.460  65.902  0.00  0.00    +0.153 A 
ATOM      4  C   UNL     1     -11.443  11.679  67.007  0.00  0.00    +0.283 A 
ATOM      5  N   UNL     1     -11.526  12.242  68.228  0.00  0.00    -0.245 N 
ATOM      6  C   UNL     1     -11.668  13.583  68.372  0.00  0.00    +0.335 A 
ATOM      7  N   UNL     1     -11.710  14.415  67.302  0.00  0.00    -0.263 N 
ATOM      8  C   UNL     1     -10.983  15.683  67.359  0.00  0.00    +0.137 C 
ATOM      9  O   UNL     1     -11.360  14.010  69.526  0.00  0.00    -0.246 OA
ATOM     10  C   UNL     1     -11.855  11.356  69.343  0.00  0.00    +0.138 C 
ATOM     11  O   UNL     1     -11.017  10.512  66.864  0.00  0.00    -0.265 OA
ATOM     12  C   UNL     1     -11.906  13.823  66.099  0.00  0.00    +0.170 A 
ATOM     13  N   UNL     1     -12.063  14.338  64.860  0.00  0.00    -0.206 NA
ATOM     14  C   UNL     1     -12.103  13.303  63.986  0.00  0.00    +0.180 A 
ENDROOT
TORSDOF 0
ENDMDL
