MODEL 1
REMARK VINA RESULT:      -4.1      0.000      0.000
REMARK  Name = 
REMARK  0 active torsions:
REMARK  status: ('A' for Active; 'I' for Inactive)
REMARK                            x       y       z     vdW  Elec       q    Type
REMARK                         _______ _______ _______ _____ _____    ______ ____
ROOT
ATOM      1  O   UNL     1     -12.713  15.969  74.678  0.00  0.00    -0.287 OA
ATOM      2  C   UNL     1     -12.866  15.949  73.292  0.00  0.00    +0.196 A 
ATOM      3  C   UNL     1     -14.037  15.567  72.670  0.00  0.00    +0.045 A 
ATOM      4  C   UNL     1     -13.936  15.124  71.356  0.00  0.00    +0.045 A 
ATOM      5  C   UNL     1     -12.700  15.029  70.726  0.00  0.00    +0.196 A 
ATOM      6  O   UNL     1     -12.481  14.147  69.666  0.00  0.00    -0.287 OA
ATOM      7  C   UNL     1     -11.725  15.906  71.168  0.00  0.00    +0.045 A 
ATOM      8  C   UNL     1     -11.838  16.388  72.466  0.00  0.00    +0.045 A 
ENDROOT
TORSDOF 0
ENDMDL
MODEL 2
REMARK VINA RESULT:      -4.1      0.876      3.210
REMARK  Name = 
REMARK  0 active torsions:
REMARK  status: ('A' for Active; 'I' for Inactive)
REMARK                            x       y       z     vdW  Elec       q    Type
REMARK                         _______ _______ _______ _____ _____    ______ ____
ROOT
ATOM      1  O   UNL     1     -12.413  15.972  69.382  0.00  0.00    -0.287 OA
ATOM      2  C   UNL     1     -12.604  15.555  70.700  0.00  0.00    +0.196 A 
ATOM      3  C   UNL     1     -13.850  15.430  71.276  0.00  0.00    +0.045 A 
ATOM      4  C   UNL     1     -13.912  15.490  72.663  0.00  0.00    +0.045 A 
ATOM      5  C   UNL     1     -12.768  15.715  73.421  0.00  0.00    +0.196 A 
ATOM      6  O   UNL     1     -12.829  16.284  74.695  0.00  0.00    -0.287 OA
ATOM      7  C   UNL     1     -11.576  15.282  72.864  0.00  0.00    +0.045 A 
ATOM      8  C   UNL     1     -11.517  15.179  71.480  0.00  0.00    +0.045 A 
ENDROOT
TORSDOF 0
ENDMDL
MODEL 3
REMARK VINA RESULT:      -4.0      0.902      1.794
REMARK  Name = 
REMARK  0 active torsions:
REMARK  status: ('A' for Active; 'I' for Inactive)
REMARK                            x       y       z     vdW  Elec       q    Type
REMARK                         _______ _______ _______ _____ _____    ______ ____
ROOT
ATOM      1  O   UNL     1     -12.807  16.280  74.704  0.00  0.00    -0.287 OA
ATOM      2  C   UNL     1     -12.741  15.711  73.431  0.00  0.00    +0.196 A 
ATOM      3  C   UNL     1     -11.572  15.230  72.881  0.00  0.00    +0.045 A 
ATOM      4  C   UNL     1     -11.515  15.147  71.495  0.00  0.00    +0.045 A 
ATOM      5  C   UNL     1     -12.578  15.578  70.708  0.00  0.00    +0.196 A 
ATOM      6  O   UNL     1     -12.395  15.996  69.389  0.00  0.00    -0.287 OA
ATOM      7  C   UNL     1     -13.832  15.505  71.291  0.00  0.00    +0.045 A 
ATOM      8  C   UNL     1     -13.897  15.545  72.677  0.00  0.00    +0.045 A 
ENDROOT
TORSDOF 0
ENDMDL
MODEL 4
REMARK VINA RESULT:      -4.0      6.481      7.300
REMARK  Name = 
REMARK  0 active torsions:
REMARK  status: ('A' for Active; 'I' for Inactive)
REMARK                            x       y       z     vdW  Elec       q    Type
REMARK                         _______ _______ _______ _____ _____    ______ ____
ROOT
ATOM      1  O   UNL     1     -12.035  12.300  67.250  0.00  0.00    -0.287 OA
ATOM      2  C   UNL     1     -11.601  13.109  66.200  0.00  0.00    +0.196 A 
ATOM      3  C   UNL     1     -10.331  13.645  66.138  0.00  0.00    +0.045 A 
ATOM      4  C   UNL     1     -10.164  14.781  65.354  0.00  0.00    +0.045 A 
ATOM      5  C   UNL     1     -11.246  15.368  64.706  0.00  0.00    +0.196 A 
ATOM      6  O   UNL     1     -11.251  16.721  64.363  0.00  0.00    -0.287 OA
ATOM      7  C   UNL     1     -12.283  14.517  64.365  0.00  0.00    +0.045 A 
ATOM      8  C   UNL     1     -12.434  13.358  65.116  0.00  0.00    +0.045 A 
ENDROOT
TORSDOF 0
ENDMDL
MODEL 5
REMARK VINA RESULT:      -4.0      6.421      7.296
REMARK  Name = 
REMARK  0 active torsions:
REMARK  status: ('A' for Active; 'I' for Inactive)
REMARK                            x       y       z     vdW  Elec       q    Type
REMARK                         _______ _______ _______ _____ _____    ______ ____
ROOT
ATOM      1  O   UNL     1     -11.326  16.693  64.307  0.00  0.00    -0.287 OA
ATOM      2  C   UNL     1     -11.311  15.347  64.674  0.00  0.00    +0.196 A 
ATOM      3  C   UNL     1     -12.317  14.465  64.338  0.00  0.00    +0.045 A 
ATOM      4  C   UNL     1     -12.451  13.331  65.132  0.00  0.00    +0.045 A 
ATOM      5  C   UNL     1     -11.632  13.132  66.239  0.00  0.00    +0.196 A 
ATOM      6  O   UNL     1     -12.034  12.343  67.318  0.00  0.00    -0.287 OA
ATOM      7  C   UNL     1     -10.375  13.709  66.176  0.00  0.00    +0.045 A 
ATOM      8  C   UNL     1     -10.220  14.818  65.354  0.00  0.00    +0.045 A 
ENDROOT
TORSDOF 0
ENDMDL
MODEL 6
REMARK VINA RESULT:      -4.0      1.882      2.483
REMARK  Name = 
REMARK  0 active torsions:
REMARK  status: ('A' for Active; 'I' for Inactive)
REMARK                            x       y       z     vdW  Elec       q    Type
REMARK                         _______ _______ _______ _____ _____    ______ ____
ROOT
ATOM      1  O   UNL     1     -14.203  13.338  72.623  0.00  0.00    -0.287 OA
ATOM      2  C   UNL     1     -13.166  14.003  71.968  0.00  0.00    +0.196 A 
ATOM      3  C   UNL     1     -12.684  15.230  72.375  0.00  0.00    +0.045 A 
ATOM      4  C   UNL     1     -12.031  15.999  71.418  0.00  0.00    +0.045 A 
ATOM      5  C   UNL     1     -11.919  15.560  70.103  0.00  0.00    +0.196 A 
ATOM      6  O   UNL     1     -11.761  16.453  69.041  0.00  0.00    -0.287 OA
ATOM      7  C   UNL     1     -11.907  14.188  69.920  0.00  0.00    +0.045 A 
ATOM      8  C   UNL     1     -12.521  13.407  70.891  0.00  0.00    +0.045 A 
ENDROOT
TORSDOF 0
ENDMDL
MODEL 7
REMARK VINA RESULT:      -3.9      1.887      3.235
REMARK  Name = 
REMARK  0 active torsions:
REMARK  status: ('A' for Active; 'I' for Inactive)
REMARK                            x       y       z     vdW  Elec       q    Type
REMARK                         _______ _______ _______ _____ _____    ______ ____
ROOT
ATOM      1  O   UNL     1     -11.746  16.509  68.973  0.00  0.00    -0.287 OA
ATOM      2  C   UNL     1     -11.868  15.593  70.018  0.00  0.00    +0.196 A 
ATOM      3  C   UNL     1     -11.867  14.227  69.824  0.00  0.00    +0.045 A 
ATOM      4  C   UNL     1     -12.465  13.451  70.811  0.00  0.00    +0.045 A 
ATOM      5  C   UNL     1     -13.074  14.041  71.914  0.00  0.00    +0.196 A 
ATOM      6  O   UNL     1     -14.092  13.399  72.622  0.00  0.00    -0.287 OA
ATOM      7  C   UNL     1     -12.567  15.269  72.302  0.00  0.00    +0.045 A 
ATOM      8  C   UNL     1     -11.931  16.035  71.334  0.00  0.00    +0.045 A 
ENDROOT
TORSDOF 0
ENDMDL
MODEL 8
REMARK VINA RESULT:      -3.9      0.931      3.602
REMARK  Name = 
REMARK  0 active torsions:
REMARK  status: ('A' for Active; 'I' for Inactive)
REMARK                            x       y       z     vdW  Elec       q    Type
REMARK                         _______ _______ _______ _____ _____    ______ ____
ROOT
ATOM      1  O   UNL     1     -11.448  13.924  69.700  0.00  0.00    -0.287 OA
ATOM      2  C   UNL     1     -12.062  14.575  70.771  0.00  0.00    +0.196 A 
ATOM      3  C   UNL     1     -11.745  15.863  71.149  0.00  0.00    +0.045 A 
ATOM      4  C   UNL     1     -12.033  16.223  72.461  0.00  0.00    +0.045 A 
ATOM      5  C   UNL     1     -12.571  15.302  73.354  0.00  0.00    +0.196 A 
ATOM      6  O   UNL     1     -12.399  15.427  74.733  0.00  0.00    -0.287 OA
ATOM      7  C   UNL     1     -13.340  14.294  72.796  0.00  0.00    +0.045 A 
ATOM      8  C   UNL     1     -13.088  13.954  71.473  0.00  0.00    +0.045 A 
ENDROOT
TORSDOF 0
ENDMDL
MODEL 9
REMARK VINA RESULT:      -3.8      2.090      3.484
REMARK  Name = 
REMARK  0 active torsions:
REMARK  status: ('A' for Active; 'I' for Inactive)
REMARK                            x       y       z     vdW  Elec       q    Type
REMARK                         _______ _______ _______ _____ _____    ______ ____
ROOT
ATOM      1  O   UNL     1     -11.918  11.855  69.851  0.00  0.00    -0.287 OA
ATOM      2  C   UNL     1     -12.378  12.884  70.672  0.00  0.00    +0.196 A 
ATOM      3  C   UNL     1     -13.106  12.660  71.822  0.00  0.00    +0.045 A 
ATOM      4  C   UNL     1     -13.903  13.705  72.276  0.00  0.00    +0.045 A 
ATOM      5  C   UNL     1     -13.992  14.898  71.567  0.00  0.00    +0.196 A 
ATOM      6  O   UNL     1     -15.107  15.732  71.666  0.00  0.00    -0.287 OA
ATOM      7  C   UNL     1     -12.882  15.238  70.812  0.00  0.00    +0.045 A 
ATOM      8  C   UNL     1     -12.055  14.206  70.388  0.00  0.00    +0.045 A 
ENDROOT
TORSDOF 0
ENDMDL
