MODEL 1
REMARK VINA RESULT:      -6.5      0.000      0.000
REMARK  Name = 
REMARK  2 active torsions:
REMARK  status: ('A' for Active; 'I' for Inactive)
REMARK    1  A    between atoms: C_2  and  C_3
REMARK    2  A    between atoms: C_22  and  C_23
REMARK                            x       y       z     vdW  Elec       q    Type
REMARK                         _______ _______ _______ _____ _____    ______ ____
ROOT
ATOM      1  C   UNL     1      -8.015  19.373  67.019  0.00  0.00    +0.180 C 
ATOM      2  C   UNL     1      -8.305  17.896  67.309  0.00  0.00    +0.037 C 
ATOM      3  C   UNL     1      -9.828  18.051  66.812  0.00  0.00    +0.003 C 
ATOM      4  C   UNL     1     -10.545  16.636  67.420  0.00  0.00    +0.001 C 
ATOM      5  C   UNL     1      -9.171  15.683  67.522  0.00  0.00    +0.004 C 
ATOM      6  C   UNL     1      -8.785  15.922  65.979  0.00  0.00    +0.000 C 
ATOM      7  C   UNL     1     -10.080  14.286  67.279  0.00  0.00    +0.019 C 
ATOM      8  C   UNL     1     -10.995  14.536  68.563  0.00  0.00    -0.043 C 
ATOM      9  C   UNL     1     -11.655  13.452  68.871  0.00  0.00    +0.010 C 
ATOM     10  C   UNL     1     -11.141  12.135  68.472  0.00  0.00    +0.101 C 
ATOM     11  C   UNL     1      -9.702  12.040  68.162  0.00  0.00    +0.050 C 
ATOM     12  N   UNL     1     -11.975  11.185  68.352  0.00  0.00    -0.034 NA
ATOM     13  O   UNL     1     -12.677  10.659  69.415  0.00  0.00    -0.143 OA
ATOM     14  C   UNL     1     -10.528  15.522  69.562  0.00  0.00    +0.022 C 
ATOM     15  C   UNL     1      -9.031  13.380  68.128  0.00  0.00    +0.010 C 
ATOM     16  C   UNL     1     -10.512  16.937  69.004  0.00  0.00    +0.004 C 
ATOM     17  C   UNL     1     -10.188  19.044  68.053  0.00  0.00    +0.004 C 
ATOM     18  C   UNL     1      -7.733  16.997  66.285  0.00  0.00    +0.003 C 
ATOM     19  C   UNL     1      -9.103  20.038  67.838  0.00  0.00    +0.043 C 
ATOM     20  O   UNL     1      -8.143  19.574  65.670  0.00  0.00    -0.212 OA
ENDROOT
BRANCH   1  22
ATOM     21  C   UNL     1      -5.947  20.121  67.829  0.00  0.00    -0.012 C 
ATOM     22  C   UNL     1      -6.711  19.787  67.562  0.00  0.00    -0.049 C 
ENDBRANCH   1  22
BRANCH   2  23
ATOM     23  C   UNL     1      -8.098  17.765  68.690  0.00  0.00    +0.003 C 
ATOM     24  C   UNL     1      -6.923  16.928  69.030  0.00  0.00    +0.000 C 
ENDBRANCH   2  23
TORSDOF 2
ENDMDL
MODEL 2
REMARK VINA RESULT:      -6.2      3.908      7.756
REMARK  Name = 
REMARK  2 active torsions:
REMARK  status: ('A' for Active; 'I' for Inactive)
REMARK    1  A    between atoms: C_2  and  C_3
REMARK    2  A    between atoms: C_22  and  C_23
REMARK                            x       y       z     vdW  Elec       q    Type
REMARK                         _______ _______ _______ _____ _____    ______ ____
ROOT
ATOM      1  C   UNL     1      -8.640   8.465  68.323  0.00  0.00    +0.180 C 
ATOM      2  C   UNL     1      -9.425   9.643  67.735  0.00  0.00    +0.037 C 
ATOM      3  C   UNL     1      -8.114  10.205  66.991  0.00  0.00    +0.003 C 
ATOM      4  C   UNL     1      -8.589  11.783  66.579  0.00  0.00    +0.001 C 
ATOM      5  C   UNL     1     -10.248  11.548  66.556  0.00  0.00    +0.004 C 
ATOM      6  C   UNL     1     -10.148  10.322  65.519  0.00  0.00    +0.000 C 
ATOM      7  C   UNL     1     -10.440  12.760  65.404  0.00  0.00    +0.019 C 
ATOM      8  C   UNL     1      -9.788  13.885  66.332  0.00  0.00    -0.043 C 
ATOM      9  C   UNL     1     -10.046  15.074  65.857  0.00  0.00    +0.010 C 
ATOM     10  C   UNL     1     -11.224  15.291  65.006  0.00  0.00    +0.101 C 
ATOM     11  C   UNL     1     -12.312  14.300  65.097  0.00  0.00    +0.050 C 
ATOM     12  N   UNL     1     -11.200  16.272  64.200  0.00  0.00    -0.034 NA
ATOM     13  O   UNL     1     -11.178  17.587  64.613  0.00  0.00    -0.143 OA
ATOM     14  C   UNL     1      -9.648  13.593  67.775  0.00  0.00    +0.022 C 
ATOM     15  C   UNL     1     -11.938  13.110  65.929  0.00  0.00    +0.010 C 
ATOM     16  C   UNL     1      -8.657  12.469  68.036  0.00  0.00    +0.004 C 
ATOM     17  C   UNL     1      -7.388  10.546  68.410  0.00  0.00    +0.004 C 
ATOM     18  C   UNL     1     -10.281   9.241  66.600  0.00  0.00    +0.003 C 
ATOM     19  C   UNL     1      -7.520   9.201  69.032  0.00  0.00    +0.043 C 
ATOM     20  O   UNL     1      -8.210   7.682  67.284  0.00  0.00    -0.212 OA
ENDROOT
BRANCH   1  22
ATOM     21  C   UNL     1      -9.828   7.224  69.917  0.00  0.00    -0.012 C 
ATOM     22  C   UNL     1      -9.426   7.738  69.333  0.00  0.00    -0.049 C 
ENDBRANCH   1  22
BRANCH   2  23
ATOM     23  C   UNL     1      -9.874  10.357  68.857  0.00  0.00    +0.003 C 
ATOM     24  C   UNL     1     -11.345  10.321  69.025  0.00  0.00    +0.000 C 
ENDBRANCH   2  23
TORSDOF 2
ENDMDL
MODEL 3
REMARK VINA RESULT:      -6.1      1.547      2.631
REMARK  Name = 
REMARK  2 active torsions:
REMARK  status: ('A' for Active; 'I' for Inactive)
REMARK    1  A    between atoms: C_2  and  C_3
REMARK    2  A    between atoms: C_22  and  C_23
REMARK                            x       y       z     vdW  Elec       q    Type
REMARK                         _______ _______ _______ _____ _____    ______ ____
ROOT
ATOM      1  C   UNL     1      -6.467  20.485  67.488  0.00  0.00    +0.180 C 
ATOM      2  C   UNL     1      -7.258  19.238  67.073  0.00  0.00    +0.037 C 
ATOM      3  C   UNL     1      -8.169  19.319  68.397  0.00  0.00    +0.003 C 
ATOM      4  C   UNL     1      -8.890  17.782  68.426  0.00  0.00    +0.001 C 
ATOM      5  C   UNL     1      -8.781  17.422  66.794  0.00  0.00    +0.004 C 
ATOM      6  C   UNL     1      -9.531  18.777  66.356  0.00  0.00    +0.000 C 
ATOM      7  C   UNL     1     -10.158  16.457  66.878  0.00  0.00    +0.019 C 
ATOM      8  C   UNL     1      -9.528  15.479  67.972  0.00  0.00    -0.043 C 
ATOM      9  C   UNL     1     -10.237  14.385  68.068  0.00  0.00    +0.010 C 
ATOM     10  C   UNL     1     -11.056  13.934  66.935  0.00  0.00    +0.101 C 
ATOM     11  C   UNL     1     -10.700  14.447  65.599  0.00  0.00    +0.050 C 
ATOM     12  N   UNL     1     -12.056  13.192  67.186  0.00  0.00    -0.034 NA
ATOM     13  O   UNL     1     -11.939  11.915  67.692  0.00  0.00    -0.143 OA
ATOM     14  C   UNL     1      -8.065  15.526  68.179  0.00  0.00    +0.022 C 
ATOM     15  C   UNL     1      -9.649  15.515  65.654  0.00  0.00    +0.010 C 
ATOM     16  C   UNL     1      -7.614  16.856  68.765  0.00  0.00    +0.004 C 
ATOM     17  C   UNL     1      -6.895  18.995  69.359  0.00  0.00    +0.004 C 
ATOM     18  C   UNL     1      -8.237  19.521  66.002  0.00  0.00    +0.003 C 
ATOM     19  C   UNL     1      -5.990  20.068  68.865  0.00  0.00    +0.043 C 
ATOM     20  O   UNL     1      -7.331  21.548  67.505  0.00  0.00    -0.212 OA
ENDROOT
BRANCH   1  22
ATOM     21  C   UNL     1      -4.596  20.913  66.144  0.00  0.00    -0.012 C 
ATOM     22  C   UNL     1      -5.287  20.688  66.632  0.00  0.00    -0.049 C 
ENDBRANCH   1  22
BRANCH   2  23
ATOM     23  C   UNL     1      -6.297  18.217  67.025  0.00  0.00    +0.003 C 
ATOM     24  C   UNL     1      -6.010  17.746  65.650  0.00  0.00    +0.000 C 
ENDBRANCH   2  23
TORSDOF 2
ENDMDL
MODEL 4
REMARK VINA RESULT:      -6.1      2.594      6.833
REMARK  Name = 
REMARK  2 active torsions:
REMARK  status: ('A' for Active; 'I' for Inactive)
REMARK    1  A    between atoms: C_2  and  C_3
REMARK    2  A    between atoms: C_22  and  C_23
REMARK                            x       y       z     vdW  Elec       q    Type
REMARK                         _______ _______ _______ _____ _____    ______ ____
ROOT
ATOM      1  C   UNL     1     -10.462  10.563  66.959  0.00  0.00    +0.180 C 
ATOM      2  C   UNL     1     -10.226  12.024  67.359  0.00  0.00    +0.037 C 
ATOM      3  C   UNL     1     -11.490  12.513  66.490  0.00  0.00    +0.003 C 
ATOM      4  C   UNL     1     -11.230  14.189  66.400  0.00  0.00    +0.001 C 
ATOM      5  C   UNL     1     -10.292  14.372  67.776  0.00  0.00    +0.004 C 
ATOM      6  C   UNL     1     -11.385  13.665  68.721  0.00  0.00    +0.000 C 
ATOM      7  C   UNL     1     -10.845  15.949  67.987  0.00  0.00    +0.019 C 
ATOM      8  C   UNL     1     -10.309  16.435  66.564  0.00  0.00    -0.043 C 
ATOM      9  C   UNL     1     -10.301  17.740  66.500  0.00  0.00    +0.010 C 
ATOM     10  C   UNL     1     -10.212  18.539  67.730  0.00  0.00    +0.101 C 
ATOM     11  C   UNL     1      -9.670  17.872  68.928  0.00  0.00    +0.050 C 
ATOM     12  N   UNL     1     -10.670  19.723  67.701  0.00  0.00    -0.034 NA
ATOM     13  O   UNL     1     -10.117  20.726  66.934  0.00  0.00    -0.143 OA
ATOM     14  C   UNL     1      -9.327  15.576  65.866  0.00  0.00    +0.022 C 
ATOM     15  C   UNL     1      -9.470  16.400  68.727  0.00  0.00    +0.010 C 
ATOM     16  C   UNL     1      -9.930  14.243  65.448  0.00  0.00    +0.004 C 
ATOM     17  C   UNL     1     -10.762  12.092  65.094  0.00  0.00    +0.004 C 
ATOM     18  C   UNL     1     -10.667  12.309  68.740  0.00  0.00    +0.003 C 
ATOM     19  C   UNL     1     -10.449  10.681  65.448  0.00  0.00    +0.043 C 
ATOM     20  O   UNL     1     -11.673  10.174  67.469  0.00  0.00    -0.212 OA
ENDROOT
BRANCH   1  22
ATOM     21  C   UNL     1      -8.727   9.108  67.564  0.00  0.00    -0.012 C 
ATOM     22  C   UNL     1      -9.340   9.701  67.364  0.00  0.00    -0.049 C 
ENDBRANCH   1  22
BRANCH   2  23
ATOM     23  C   UNL     1      -8.952  12.322  66.851  0.00  0.00    +0.003 C 
ATOM     24  C   UNL     1      -7.935  12.534  67.907  0.00  0.00    +0.000 C 
ENDBRANCH   2  23
TORSDOF 2
ENDMDL
MODEL 5
REMARK VINA RESULT:      -6.1      2.846      6.609
REMARK  Name = 
REMARK  2 active torsions:
REMARK  status: ('A' for Active; 'I' for Inactive)
REMARK    1  A    between atoms: C_2  and  C_3
REMARK    2  A    between atoms: C_22  and  C_23
REMARK                            x       y       z     vdW  Elec       q    Type
REMARK                         _______ _______ _______ _____ _____    ______ ____
ROOT
ATOM      1  C   UNL     1     -11.031  13.260  67.687  0.00  0.00    +0.180 C 
ATOM      2  C   UNL     1     -10.073  14.381  67.267  0.00  0.00    +0.037 C 
ATOM      3  C   UNL     1      -9.876  14.847  68.795  0.00  0.00    +0.003 C 
ATOM      4  C   UNL     1      -9.169  16.380  68.609  0.00  0.00    +0.001 C 
ATOM      5  C   UNL     1      -8.497  16.164  67.090  0.00  0.00    +0.004 C 
ATOM      6  C   UNL     1      -7.703  14.837  67.533  0.00  0.00    +0.000 C 
ATOM      7  C   UNL     1      -7.263  17.254  67.441  0.00  0.00    +0.019 C 
ATOM      8  C   UNL     1      -8.271  18.460  67.723  0.00  0.00    -0.043 C 
ATOM      9  C   UNL     1      -7.628  19.597  67.741  0.00  0.00    +0.010 C 
ATOM     10  C   UNL     1      -6.358  19.740  67.017  0.00  0.00    +0.101 C 
ATOM     11  C   UNL     1      -6.088  18.776  65.934  0.00  0.00    +0.050 C 
ATOM     12  N   UNL     1      -5.547  20.632  67.415  0.00  0.00    -0.034 NA
ATOM     13  O   UNL     1      -5.814  21.983  67.338  0.00  0.00    -0.143 OA
ATOM     14  C   UNL     1      -9.667  18.316  67.256  0.00  0.00    +0.022 C 
ATOM     15  C   UNL     1      -7.103  17.674  65.879  0.00  0.00    +0.010 C 
ATOM     16  C   UNL     1     -10.406  17.212  67.997  0.00  0.00    +0.004 C 
ATOM     17  C   UNL     1     -11.431  15.323  68.906  0.00  0.00    +0.004 C 
ATOM     18  C   UNL     1      -8.728  13.874  66.920  0.00  0.00    +0.003 C 
ATOM     19  C   UNL     1     -12.064  14.051  68.464  0.00  0.00    +0.043 C 
ATOM     20  O   UNL     1     -10.329  12.369  68.456  0.00  0.00    -0.212 OA
ENDROOT
BRANCH   1  22
ATOM     21  C   UNL     1     -12.038  12.199  65.856  0.00  0.00    -0.012 C 
ATOM     22  C   UNL     1     -11.696  12.650  66.524  0.00  0.00    -0.049 C 
ENDBRANCH   1  22
BRANCH   2  23
ATOM     23  C   UNL     1     -10.848  15.211  66.444  0.00  0.00    +0.003 C 
ATOM     24  C   UNL     1     -10.420  15.197  65.026  0.00  0.00    +0.000 C 
ENDBRANCH   2  23
TORSDOF 2
ENDMDL
MODEL 6
REMARK VINA RESULT:      -6.0      2.038      3.036
REMARK  Name = 
REMARK  2 active torsions:
REMARK  status: ('A' for Active; 'I' for Inactive)
REMARK    1  A    between atoms: C_2  and  C_3
REMARK    2  A    between atoms: C_22  and  C_23
REMARK                            x       y       z     vdW  Elec       q    Type
REMARK                         _______ _______ _______ _____ _____    ______ ____
ROOT
ATOM      1  C   UNL     1      -5.980  18.557  68.342  0.00  0.00    +0.180 C 
ATOM      2  C   UNL     1      -7.202  17.638  68.232  0.00  0.00    +0.037 C 
ATOM      3  C   UNL     1      -6.574  16.879  66.959  0.00  0.00    +0.003 C 
ATOM      4  C   UNL     1      -7.922  16.054  66.338  0.00  0.00    +0.001 C 
ATOM      5  C   UNL     1      -8.831  15.964  67.742  0.00  0.00    +0.004 C 
ATOM      6  C   UNL     1      -7.639  15.274  68.574  0.00  0.00    +0.000 C 
ATOM      7  C   UNL     1      -9.556  14.536  67.224  0.00  0.00    +0.019 C 
ATOM      8  C   UNL     1     -10.159  15.202  65.904  0.00  0.00    -0.043 C 
ATOM      9  C   UNL     1     -11.070  14.428  65.377  0.00  0.00    +0.010 C 
ATOM     10  C   UNL     1     -11.795  13.464  66.215  0.00  0.00    +0.101 C 
ATOM     11  C   UNL     1     -11.814  13.715  67.668  0.00  0.00    +0.050 C 
ATOM     12  N   UNL     1     -12.294  12.444  65.647  0.00  0.00    -0.034 NA
ATOM     13  O   UNL     1     -13.324  12.518  64.733  0.00  0.00    -0.143 OA
ATOM     14  C   UNL     1     -10.198  16.679  65.832  0.00  0.00    +0.022 C 
ATOM     15  C   UNL     1     -10.911  14.842  68.069  0.00  0.00    +0.010 C 
ATOM     16  C   UNL     1      -8.804  17.285  65.788  0.00  0.00    +0.004 C 
ATOM     17  C   UNL     1      -6.680  18.220  66.040  0.00  0.00    +0.004 C 
ATOM     18  C   UNL     1      -7.204  16.576  69.260  0.00  0.00    +0.003 C 
ATOM     19  C   UNL     1      -5.946  19.145  66.945  0.00  0.00    +0.043 C 
ATOM     20  O   UNL     1      -4.891  17.781  68.638  0.00  0.00    -0.212 OA
ENDROOT
BRANCH   1  22
ATOM     21  C   UNL     1      -6.244  20.296  69.891  0.00  0.00    -0.012 C 
ATOM     22  C   UNL     1      -6.210  19.653  69.297  0.00  0.00    -0.049 C 
ENDBRANCH   1  22
BRANCH   2  23
ATOM     23  C   UNL     1      -8.274  18.510  67.986  0.00  0.00    +0.003 C 
ATOM     24  C   UNL     1      -9.278  18.526  69.075  0.00  0.00    +0.000 C 
ENDBRANCH   2  23
TORSDOF 2
ENDMDL
MODEL 7
REMARK VINA RESULT:      -5.9      2.555      6.777
REMARK  Name = 
REMARK  2 active torsions:
REMARK  status: ('A' for Active; 'I' for Inactive)
REMARK    1  A    between atoms: C_2  and  C_3
REMARK    2  A    between atoms: C_22  and  C_23
REMARK                            x       y       z     vdW  Elec       q    Type
REMARK                         _______ _______ _______ _____ _____    ______ ____
ROOT
ATOM      1  C   UNL     1     -11.001  11.809  67.773  0.00  0.00    +0.180 C 
ATOM      2  C   UNL     1     -10.836  13.333  67.802  0.00  0.00    +0.037 C 
ATOM      3  C   UNL     1      -9.648  13.271  66.718  0.00  0.00    +0.003 C 
ATOM      4  C   UNL     1      -8.960  14.817  66.857  0.00  0.00    +0.001 C 
ATOM      5  C   UNL     1     -10.293  15.632  67.463  0.00  0.00    +0.004 C 
ATOM      6  C   UNL     1     -11.242  15.158  66.253  0.00  0.00    +0.000 C 
ATOM      7  C   UNL     1      -9.780  17.071  66.755  0.00  0.00    +0.019 C 
ATOM      8  C   UNL     1      -8.391  17.081  67.542  0.00  0.00    -0.043 C 
ATOM      9  C   UNL     1      -7.829  18.258  67.460  0.00  0.00    +0.010 C 
ATOM     10  C   UNL     1      -8.649  19.453  67.222  0.00  0.00    +0.101 C 
ATOM     11  C   UNL     1     -10.084  19.361  67.547  0.00  0.00    +0.050 C 
ATOM     12  N   UNL     1      -8.087  20.460  66.689  0.00  0.00    -0.034 NA
ATOM     13  O   UNL     1      -7.094  21.187  67.311  0.00  0.00    -0.143 OA
ATOM     14  C   UNL     1      -8.256  16.190  68.715  0.00  0.00    +0.022 C 
ATOM     15  C   UNL     1     -10.506  17.967  67.901  0.00  0.00    +0.010 C 
ATOM     16  C   UNL     1      -8.293  14.721  68.322  0.00  0.00    +0.004 C 
ATOM     17  C   UNL     1      -8.668  12.487  67.757  0.00  0.00    +0.004 C 
ATOM     18  C   UNL     1     -11.904  14.031  67.055  0.00  0.00    +0.003 C 
ATOM     19  C   UNL     1      -9.587  11.368  68.098  0.00  0.00    +0.043 C 
ATOM     20  O   UNL     1     -11.412  11.451  66.515  0.00  0.00    -0.212 OA
ENDROOT
BRANCH   1  22
ATOM     21  C   UNL     1     -12.341  10.989  69.512  0.00  0.00    -0.012 C 
ATOM     22  C   UNL     1     -11.889  11.338  68.848  0.00  0.00    -0.049 C 
ENDBRANCH   1  22
BRANCH   2  23
ATOM     23  C   UNL     1     -10.473  13.618  69.127  0.00  0.00    +0.003 C 
ATOM     24  C   UNL     1     -11.510  14.372  69.870  0.00  0.00    +0.000 C 
ENDBRANCH   2  23
TORSDOF 2
ENDMDL
MODEL 8
REMARK VINA RESULT:      -5.9      4.718      8.489
REMARK  Name = 
REMARK  2 active torsions:
REMARK  status: ('A' for Active; 'I' for Inactive)
REMARK    1  A    between atoms: C_2  and  C_3
REMARK    2  A    between atoms: C_22  and  C_23
REMARK                            x       y       z     vdW  Elec       q    Type
REMARK                         _______ _______ _______ _____ _____    ______ ____
ROOT
ATOM      1  C   UNL     1      -8.812   7.466  70.109  0.00  0.00    +0.180 C 
ATOM      2  C   UNL     1      -9.301   8.800  69.534  0.00  0.00    +0.037 C 
ATOM      3  C   UNL     1     -10.399   8.056  68.622  0.00  0.00    +0.003 C 
ATOM      4  C   UNL     1     -10.835   9.277  67.525  0.00  0.00    +0.001 C 
ATOM      5  C   UNL     1     -10.423  10.609  68.455  0.00  0.00    +0.004 C 
ATOM      6  C   UNL     1     -11.326  10.129  69.698  0.00  0.00    +0.000 C 
ATOM      7  C   UNL     1     -11.607  11.543  67.706  0.00  0.00    +0.019 C 
ATOM      8  C   UNL     1     -10.986  11.342  66.249  0.00  0.00    -0.043 C 
ATOM      9  C   UNL     1     -11.499  12.205  65.412  0.00  0.00    +0.010 C 
ATOM     10  C   UNL     1     -12.048  13.475  65.904  0.00  0.00    +0.101 C 
ATOM     11  C   UNL     1     -11.593  13.938  67.228  0.00  0.00    +0.050 C 
ATOM     12  N   UNL     1     -12.929  14.054  65.194  0.00  0.00    -0.034 NA
ATOM     13  O   UNL     1     -12.666  14.578  63.947  0.00  0.00    -0.143 OA
ATOM     14  C   UNL     1      -9.601  10.833  66.153  0.00  0.00    +0.022 C 
ATOM     15  C   UNL     1     -10.765  12.913  67.943  0.00  0.00    +0.010 C 
ATOM     16  C   UNL     1      -9.482   9.403  66.659  0.00  0.00    +0.004 C 
ATOM     17  C   UNL     1      -9.245   7.339  67.722  0.00  0.00    +0.004 C 
ATOM     18  C   UNL     1     -10.144   9.551  70.487  0.00  0.00    +0.003 C 
ATOM     19  C   UNL     1      -8.479   6.716  68.835  0.00  0.00    +0.043 C 
ATOM     20  O   UNL     1      -9.842   6.908  70.821  0.00  0.00    -0.212 OA
ENDROOT
BRANCH   1  22
ATOM     21  C   UNL     1      -6.861   7.641  71.396  0.00  0.00    -0.012 C 
ATOM     22  C   UNL     1      -7.572   7.631  70.885  0.00  0.00    -0.049 C 
ENDBRANCH   1  22
BRANCH   2  23
ATOM     23  C   UNL     1      -8.180   9.327  68.875  0.00  0.00    +0.003 C 
ATOM     24  C   UNL     1      -7.625  10.532  69.534  0.00  0.00    +0.000 C 
ENDBRANCH   2  23
TORSDOF 2
ENDMDL
MODEL 9
REMARK VINA RESULT:      -5.8      3.088      5.532
REMARK  Name = 
REMARK  2 active torsions:
REMARK  status: ('A' for Active; 'I' for Inactive)
REMARK    1  A    between atoms: C_2  and  C_3
REMARK    2  A    between atoms: C_22  and  C_23
REMARK                            x       y       z     vdW  Elec       q    Type
REMARK                         _______ _______ _______ _____ _____    ______ ____
ROOT
ATOM      1  C   UNL     1      -3.300  20.862  65.990  0.00  0.00    +0.180 C 
ATOM      2  C   UNL     1      -4.771  20.487  66.208  0.00  0.00    +0.037 C 
ATOM      3  C   UNL     1      -4.391  19.525  67.440  0.00  0.00    +0.003 C 
ATOM      4  C   UNL     1      -5.814  18.617  67.634  0.00  0.00    +0.001 C 
ATOM      5  C   UNL     1      -6.897  19.701  66.955  0.00  0.00    +0.004 C 
ATOM      6  C   UNL     1      -6.437  20.901  67.924  0.00  0.00    +0.000 C 
ATOM      7  C   UNL     1      -8.140  19.127  67.935  0.00  0.00    +0.019 C 
ATOM      8  C   UNL     1      -8.025  17.635  67.379  0.00  0.00    -0.043 C 
ATOM      9  C   UNL     1      -9.078  16.939  67.716  0.00  0.00    +0.010 C 
ATOM     10  C   UNL     1     -10.351  17.616  67.997  0.00  0.00    +0.101 C 
ATOM     11  C   UNL     1     -10.529  18.973  67.446  0.00  0.00    +0.050 C 
ATOM     12  N   UNL     1     -11.184  17.022  68.750  0.00  0.00    -0.034 NA
ATOM     13  O   UNL     1     -11.814  15.847  68.399  0.00  0.00    -0.143 OA
ATOM     14  C   UNL     1      -7.271  17.422  66.125  0.00  0.00    +0.022 C 
ATOM     15  C   UNL     1      -9.272  19.514  66.834  0.00  0.00    +0.010 C 
ATOM     16  C   UNL     1      -5.790  17.727  66.290  0.00  0.00    +0.004 C 
ATOM     17  C   UNL     1      -3.593  18.496  66.461  0.00  0.00    +0.004 C 
ATOM     18  C   UNL     1      -5.535  21.563  66.875  0.00  0.00    +0.003 C 
ATOM     19  C   UNL     1      -2.684  19.487  65.825  0.00  0.00    +0.043 C 
ATOM     20  O   UNL     1      -2.864  21.529  67.104  0.00  0.00    -0.212 OA
ENDROOT
BRANCH   1  22
ATOM     21  C   UNL     1      -2.925  22.108  64.041  0.00  0.00    -0.012 C 
ATOM     22  C   UNL     1      -3.110  21.606  64.735  0.00  0.00    -0.049 C 
ENDBRANCH   1  22
BRANCH   2  23
ATOM     23  C   UNL     1      -5.153  19.864  65.010  0.00  0.00    +0.003 C 
ATOM     24  C   UNL     1      -6.148  20.642  64.236  0.00  0.00    +0.000 C 
ENDBRANCH   2  23
TORSDOF 2
ENDMDL
