MODEL 1
REMARK VINA RESULT:      -4.4      0.000      0.000
REMARK  Name = 
REMARK  5 active torsions:
REMARK  status: ('A' for Active; 'I' for Inactive)
REMARK    1  A    between atoms: P_2  and  N_3
REMARK    2  A    between atoms: N_3  and  C_4
REMARK    3  A    between atoms: C_4  and  C_5
REMARK    4  A    between atoms: N_11  and  C_12
REMARK    5  A    between atoms: C_12  and  C_13
REMARK                            x       y       z     vdW  Elec       q    Type
REMARK                         _______ _______ _______ _____ _____    ______ ____
ROOT
ATOM      1  O   UNL     1      -9.462  15.947  69.442  0.00  0.00    -0.253 OA
ATOM      2  P   UNL     1     -10.579  16.480  68.631  0.00  0.00    +0.365 P 
ATOM      3  N   UNL     1     -10.560  15.821  67.027  0.00  0.00    -0.196 NA
ATOM      4  C   UNL     1     -10.326  16.789  65.996  0.00  0.00    +0.084 C 
ATOM      5  C   UNL     1      -9.538  17.986  66.468  0.00  0.00    +0.050 C 
ATOM      6  C   UNL     1     -10.436  18.745  67.425  0.00  0.00    +0.153 C 
ATOM      7  O   UNL     1     -10.476  18.155  68.672  0.00  0.00    -0.291 OA
ENDROOT
BRANCH   3   8
ATOM      8  C   UNL     1      -9.685  14.685  66.896  0.00  0.00    +0.099 C 
BRANCH   8   9
ATOM      9  C   UNL     1     -10.495  13.432  67.089  0.00  0.00    +0.113 C 
ATOM     10 CL   UNL     1     -12.151  13.660  66.516  0.00  0.00    -0.112 Cl
ENDBRANCH   8   9
ENDBRANCH   3   8
BRANCH   2  11
ATOM     11  N   UNL     1     -12.125  16.022  69.339  0.00  0.00    -0.132 NA
BRANCH  11  12
ATOM     12  C   UNL     1     -12.023  15.925  70.770  0.00  0.00    +0.117 C 
BRANCH  12  13
ATOM     13  C   UNL     1     -13.323  15.421  71.350  0.00  0.00    +0.114 C 
ATOM     14 CL   UNL     1     -13.452  15.856  73.062  0.00  0.00    -0.112 Cl
ENDBRANCH  12  13
ENDBRANCH  11  12
ENDBRANCH   2  11
TORSDOF 5
ENDMDL
MODEL 2
REMARK VINA RESULT:      -4.4      2.339      4.440
REMARK  Name = 
REMARK  5 active torsions:
REMARK  status: ('A' for Active; 'I' for Inactive)
REMARK    1  A    between atoms: P_2  and  N_3
REMARK    2  A    between atoms: N_3  and  C_4
REMARK    3  A    between atoms: C_4  and  C_5
REMARK    4  A    between atoms: N_11  and  C_12
REMARK    5  A    between atoms: C_12  and  C_13
REMARK                            x       y       z     vdW  Elec       q    Type
REMARK                         _______ _______ _______ _____ _____    ______ ____
ROOT
ATOM      1  O   UNL     1      -9.163  16.374  68.939  0.00  0.00    -0.253 OA
ATOM      2  P   UNL     1     -10.217  16.521  67.912  0.00  0.00    +0.365 P 
ATOM      3  N   UNL     1     -11.552  15.460  68.226  0.00  0.00    -0.196 NA
ATOM      4  C   UNL     1     -11.753  14.454  67.224  0.00  0.00    +0.084 C 
ATOM      5  C   UNL     1     -10.490  14.089  66.483  0.00  0.00    +0.050 C 
ATOM      6  C   UNL     1     -10.111  15.301  65.653  0.00  0.00    +0.153 C 
ATOM      7  O   UNL     1      -9.500  16.277  66.414  0.00  0.00    -0.291 OA
ENDROOT
BRANCH   3   8
ATOM      8  C   UNL     1     -11.520  14.891  69.548  0.00  0.00    +0.099 C 
BRANCH   8   9
ATOM      9  C   UNL     1     -12.521  15.616  70.406  0.00  0.00    +0.113 C 
ATOM     10 CL   UNL     1     -11.803  16.083  71.952  0.00  0.00    -0.112 Cl
ENDBRANCH   8   9
ENDBRANCH   3   8
BRANCH   2  11
ATOM     11  N   UNL     1     -10.869  18.158  67.932  0.00  0.00    -0.132 NA
BRANCH  11  12
ATOM     12  C   UNL     1      -9.868  19.100  68.354  0.00  0.00    +0.117 C 
BRANCH  12  13
ATOM     13  C   UNL     1      -9.814  20.264  67.394  0.00  0.00    +0.114 C 
ATOM     14 CL   UNL     1     -10.531  19.820  65.835  0.00  0.00    -0.112 Cl
ENDBRANCH  12  13
ENDBRANCH  11  12
ENDBRANCH   2  11
TORSDOF 5
ENDMDL
MODEL 3
REMARK VINA RESULT:      -4.3      3.963      5.313
REMARK  Name = 
REMARK  5 active torsions:
REMARK  status: ('A' for Active; 'I' for Inactive)
REMARK    1  A    between atoms: P_2  and  N_3
REMARK    2  A    between atoms: N_3  and  C_4
REMARK    3  A    between atoms: C_4  and  C_5
REMARK    4  A    between atoms: N_11  and  C_12
REMARK    5  A    between atoms: C_12  and  C_13
REMARK                            x       y       z     vdW  Elec       q    Type
REMARK                         _______ _______ _______ _____ _____    ______ ____
ROOT
ATOM      1  O   UNL     1     -12.792  14.520  64.392  0.00  0.00    -0.253 OA
ATOM      2  P   UNL     1     -11.567  14.490  65.221  0.00  0.00    +0.365 P 
ATOM      3  N   UNL     1     -10.563  13.138  64.809  0.00  0.00    -0.196 NA
ATOM      4  C   UNL     1     -10.408  12.178  65.863  0.00  0.00    +0.084 C 
ATOM      5  C   UNL     1     -11.569  12.155  66.826  0.00  0.00    +0.050 C 
ATOM      6  C   UNL     1     -11.533  13.470  67.579  0.00  0.00    +0.153 C 
ATOM      7  O   UNL     1     -12.047  14.509  66.829  0.00  0.00    -0.291 OA
ENDROOT
BRANCH   3   8
ATOM      8  C   UNL     1     -10.946  12.508  63.572  0.00  0.00    +0.099 C 
BRANCH   8   9
ATOM      9  C   UNL     1     -10.346  11.129  63.531  0.00  0.00    +0.113 C 
ATOM     10 CL   UNL     1      -8.998  11.064  62.389  0.00  0.00    -0.112 Cl
ENDBRANCH   8   9
ENDBRANCH   3   8
BRANCH   2  11
ATOM     11  N   UNL     1     -10.599  15.933  64.935  0.00  0.00    -0.132 NA
BRANCH  11  12
ATOM     12  C   UNL     1      -9.654  16.134  66.000  0.00  0.00    +0.117 C 
BRANCH  12  13
ATOM     13  C   UNL     1     -10.117  17.256  66.898  0.00  0.00    +0.114 C 
ATOM     14 CL   UNL     1     -10.492  18.702  65.947  0.00  0.00    -0.112 Cl
ENDBRANCH  12  13
ENDBRANCH  11  12
ENDBRANCH   2  11
TORSDOF 5
ENDMDL
MODEL 4
REMARK VINA RESULT:      -4.3      2.542      5.331
REMARK  Name = 
REMARK  5 active torsions:
REMARK  status: ('A' for Active; 'I' for Inactive)
REMARK    1  A    between atoms: P_2  and  N_3
REMARK    2  A    between atoms: N_3  and  C_4
REMARK    3  A    between atoms: C_4  and  C_5
REMARK    4  A    between atoms: N_11  and  C_12
REMARK    5  A    between atoms: C_12  and  C_13
REMARK                            x       y       z     vdW  Elec       q    Type
REMARK                         _______ _______ _______ _____ _____    ______ ____
ROOT
ATOM      1  O   UNL     1      -9.605  15.798  69.849  0.00  0.00    -0.253 OA
ATOM      2  P   UNL     1     -10.941  15.647  69.234  0.00  0.00    +0.365 P 
ATOM      3  N   UNL     1     -12.181  15.539  70.442  0.00  0.00    -0.196 NA
ATOM      4  C   UNL     1     -12.867  14.280  70.469  0.00  0.00    +0.084 C 
ATOM      5  C   UNL     1     -12.033  13.133  69.955  0.00  0.00    +0.050 C 
ATOM      6  C   UNL     1     -11.847  13.366  68.468  0.00  0.00    +0.153 C 
ATOM      7  O   UNL     1     -10.878  14.316  68.213  0.00  0.00    -0.291 OA
ENDROOT
BRANCH   3   8
ATOM      8  C   UNL     1     -11.723  15.921  71.752  0.00  0.00    +0.099 C 
BRANCH   8   9
ATOM      9  C   UNL     1     -12.886  15.849  72.705  0.00  0.00    +0.113 C 
ATOM     10 CL   UNL     1     -12.351  15.345  74.312  0.00  0.00    -0.112 Cl
ENDBRANCH   8   9
ENDBRANCH   3   8
BRANCH   2  11
ATOM     11  N   UNL     1     -11.328  17.056  68.251  0.00  0.00    -0.132 NA
BRANCH  11  12
ATOM     12  C   UNL     1     -10.128  17.727  67.826  0.00  0.00    +0.117 C 
BRANCH  12  13
ATOM     13  C   UNL     1     -10.464  18.805  66.824  0.00  0.00    +0.114 C 
ATOM     14 CL   UNL     1      -9.857  20.377  67.372  0.00  0.00    -0.112 Cl
ENDBRANCH  12  13
ENDBRANCH  11  12
ENDBRANCH   2  11
TORSDOF 5
ENDMDL
MODEL 5
REMARK VINA RESULT:      -4.3      3.014      4.824
REMARK  Name = 
REMARK  5 active torsions:
REMARK  status: ('A' for Active; 'I' for Inactive)
REMARK    1  A    between atoms: P_2  and  N_3
REMARK    2  A    between atoms: N_3  and  C_4
REMARK    3  A    between atoms: C_4  and  C_5
REMARK    4  A    between atoms: N_11  and  C_12
REMARK    5  A    between atoms: C_12  and  C_13
REMARK                            x       y       z     vdW  Elec       q    Type
REMARK                         _______ _______ _______ _____ _____    ______ ____
ROOT
ATOM      1  O   UNL     1      -8.898  14.729  66.598  0.00  0.00    -0.253 OA
ATOM      2  P   UNL     1     -10.173  15.007  65.901  0.00  0.00    +0.365 P 
ATOM      3  N   UNL     1     -11.525  14.823  66.971  0.00  0.00    -0.196 NA
ATOM      4  C   UNL     1     -12.418  13.760  66.613  0.00  0.00    +0.084 C 
ATOM      5  C   UNL     1     -11.747  12.651  65.839  0.00  0.00    +0.050 C 
ATOM      6  C   UNL     1     -11.377  13.230  64.487  0.00  0.00    +0.153 C 
ATOM      7  O   UNL     1     -10.239  14.008  64.554  0.00  0.00    -0.291 OA
ENDROOT
BRANCH   3   8
ATOM      8  C   UNL     1     -11.141  14.749  68.356  0.00  0.00    +0.099 C 
BRANCH   8   9
ATOM      9  C   UNL     1     -11.559  16.023  69.038  0.00  0.00    +0.113 C 
ATOM     10 CL   UNL     1     -12.513  15.677  70.485  0.00  0.00    -0.112 Cl
ENDBRANCH   8   9
ENDBRANCH   3   8
BRANCH   2  11
ATOM     11  N   UNL     1     -10.211  16.674  65.333  0.00  0.00    -0.132 NA
BRANCH  11  12
ATOM     12  C   UNL     1      -9.714  17.569  66.343  0.00  0.00    +0.117 C 
BRANCH  12  13
ATOM     13  C   UNL     1     -10.438  18.891  66.266  0.00  0.00    +0.114 C 
ATOM     14 CL   UNL     1     -10.326  19.754  67.809  0.00  0.00    -0.112 Cl
ENDBRANCH  12  13
ENDBRANCH  11  12
ENDBRANCH   2  11
TORSDOF 5
ENDMDL
MODEL 6
REMARK VINA RESULT:      -4.3      3.315      4.537
REMARK  Name = 
REMARK  5 active torsions:
REMARK  status: ('A' for Active; 'I' for Inactive)
REMARK    1  A    between atoms: P_2  and  N_3
REMARK    2  A    between atoms: N_3  and  C_4
REMARK    3  A    between atoms: C_4  and  C_5
REMARK    4  A    between atoms: N_11  and  C_12
REMARK    5  A    between atoms: C_12  and  C_13
REMARK                            x       y       z     vdW  Elec       q    Type
REMARK                         _______ _______ _______ _____ _____    ______ ____
ROOT
ATOM      1  O   UNL     1     -10.917  16.913  64.960  0.00  0.00    -0.253 OA
ATOM      2  P   UNL     1     -10.099  16.359  66.061  0.00  0.00    +0.365 P 
ATOM      3  N   UNL     1     -10.008  14.629  65.966  0.00  0.00    -0.196 NA
ATOM      4  C   UNL     1     -10.620  13.947  67.068  0.00  0.00    +0.084 C 
ATOM      5  C   UNL     1     -11.727  14.738  67.721  0.00  0.00    +0.050 C 
ATOM      6  C   UNL     1     -11.069  15.922  68.401  0.00  0.00    +0.153 C 
ATOM      7  O   UNL     1     -10.750  16.920  67.503  0.00  0.00    -0.291 OA
ENDROOT
BRANCH   3   8
ATOM      8  C   UNL     1     -10.463  14.110  64.703  0.00  0.00    +0.099 C 
BRANCH   8   9
ATOM      9  C   UNL     1     -10.829  12.662  64.884  0.00  0.00    +0.113 C 
ATOM     10 CL   UNL     1     -11.864  12.106  63.564  0.00  0.00    -0.112 Cl
ENDBRANCH   8   9
ENDBRANCH   3   8
BRANCH   2  11
ATOM     11  N   UNL     1      -8.444  16.950  65.954  0.00  0.00    -0.132 NA
BRANCH  11  12
ATOM     12  C   UNL     1      -8.220  18.014  66.896  0.00  0.00    +0.117 C 
BRANCH  12  13
ATOM     13  C   UNL     1      -8.445  19.350  66.231  0.00  0.00    +0.114 C 
ATOM     14 CL   UNL     1      -9.865  20.158  66.917  0.00  0.00    -0.112 Cl
ENDBRANCH  12  13
ENDBRANCH  11  12
ENDBRANCH   2  11
TORSDOF 5
ENDMDL
MODEL 7
REMARK VINA RESULT:      -4.3      2.473      4.256
REMARK  Name = 
REMARK  5 active torsions:
REMARK  status: ('A' for Active; 'I' for Inactive)
REMARK    1  A    between atoms: P_2  and  N_3
REMARK    2  A    between atoms: N_3  and  C_4
REMARK    3  A    between atoms: C_4  and  C_5
REMARK    4  A    between atoms: N_11  and  C_12
REMARK    5  A    between atoms: C_12  and  C_13
REMARK                            x       y       z     vdW  Elec       q    Type
REMARK                         _______ _______ _______ _____ _____    ______ ____
ROOT
ATOM      1  O   UNL     1     -10.991  19.102  67.087  0.00  0.00    -0.253 OA
ATOM      2  P   UNL     1     -10.024  18.090  66.608  0.00  0.00    +0.365 P 
ATOM      3  N   UNL     1      -9.655  16.937  67.850  0.00  0.00    -0.196 NA
ATOM      4  C   UNL     1      -8.289  16.958  68.284  0.00  0.00    +0.084 C 
ATOM      5  C   UNL     1      -7.623  18.299  68.099  0.00  0.00    +0.050 C 
ATOM      6  C   UNL     1      -7.488  18.512  66.603  0.00  0.00    +0.153 C 
ATOM      7  O   UNL     1      -8.679  18.912  66.031  0.00  0.00    -0.291 OA
ENDROOT
BRANCH   3   8
ATOM      8  C   UNL     1     -10.566  16.998  68.963  0.00  0.00    +0.099 C 
BRANCH   8   9
ATOM      9  C   UNL     1     -11.419  15.759  68.951  0.00  0.00    +0.113 C 
ATOM     10 CL   UNL     1     -12.489  15.720  70.358  0.00  0.00    -0.112 Cl
ENDBRANCH   8   9
ENDBRANCH   3   8
BRANCH   2  11
ATOM     11  N   UNL     1     -10.707  17.175  65.267  0.00  0.00    -0.132 NA
BRANCH  11  12
ATOM     12  C   UNL     1     -10.430  15.771  65.413  0.00  0.00    +0.117 C 
BRANCH  12  13
ATOM     13  C   UNL     1     -11.566  14.957  64.845  0.00  0.00    +0.114 C 
ATOM     14 CL   UNL     1     -12.258  13.900  66.087  0.00  0.00    -0.112 Cl
ENDBRANCH  12  13
ENDBRANCH  11  12
ENDBRANCH   2  11
TORSDOF 5
ENDMDL
MODEL 8
REMARK VINA RESULT:      -4.2      3.653      4.952
REMARK  Name = 
REMARK  5 active torsions:
REMARK  status: ('A' for Active; 'I' for Inactive)
REMARK    1  A    between atoms: P_2  and  N_3
REMARK    2  A    between atoms: N_3  and  C_4
REMARK    3  A    between atoms: C_4  and  C_5
REMARK    4  A    between atoms: N_11  and  C_12
REMARK    5  A    between atoms: C_12  and  C_13
REMARK                            x       y       z     vdW  Elec       q    Type
REMARK                         _______ _______ _______ _____ _____    ______ ____
ROOT
ATOM      1  O   UNL     1      -9.300  16.195  67.404  0.00  0.00    -0.253 OA
ATOM      2  P   UNL     1      -9.781  17.292  66.537  0.00  0.00    +0.365 P 
ATOM      3  N   UNL     1      -8.459  18.228  65.917  0.00  0.00    -0.196 NA
ATOM      4  C   UNL     1      -8.439  19.589  66.368  0.00  0.00    +0.084 C 
ATOM      5  C   UNL     1      -9.108  19.784  67.707  0.00  0.00    +0.050 C 
ATOM      6  C   UNL     1     -10.589  19.539  67.490  0.00  0.00    +0.153 C 
ATOM      7  O   UNL     1     -10.884  18.192  67.428  0.00  0.00    -0.291 OA
ENDROOT
BRANCH   3   8
ATOM      8  C   UNL     1      -7.183  17.590  66.101  0.00  0.00    +0.099 C 
BRANCH   8   9
ATOM      9  C   UNL     1      -6.101  18.620  65.917  0.00  0.00    +0.113 C 
ATOM     10 CL   UNL     1      -5.740  18.852  64.203  0.00  0.00    -0.112 Cl
ENDBRANCH   8   9
ENDBRANCH   3   8
BRANCH   2  11
ATOM     11  N   UNL     1     -10.629  16.641  65.137  0.00  0.00    -0.132 NA
BRANCH  11  12
ATOM     12  C   UNL     1     -10.639  15.204  65.169  0.00  0.00    +0.117 C 
BRANCH  12  13
ATOM     13  C   UNL     1     -11.956  14.682  64.647  0.00  0.00    +0.114 C 
ATOM     14 CL   UNL     1     -12.420  13.198  65.496  0.00  0.00    -0.112 Cl
ENDBRANCH  12  13
ENDBRANCH  11  12
ENDBRANCH   2  11
TORSDOF 5
ENDMDL
MODEL 9
REMARK VINA RESULT:      -4.2      3.880      4.449
REMARK  Name = 
REMARK  5 active torsions:
REMARK  status: ('A' for Active; 'I' for Inactive)
REMARK    1  A    between atoms: P_2  and  N_3
REMARK    2  A    between atoms: N_3  and  C_4
REMARK    3  A    between atoms: C_4  and  C_5
REMARK    4  A    between atoms: N_11  and  C_12
REMARK    5  A    between atoms: C_12  and  C_13
REMARK                            x       y       z     vdW  Elec       q    Type
REMARK                         _______ _______ _______ _____ _____    ______ ____
ROOT
ATOM      1  O   UNL     1      -9.800  11.671  67.993  0.00  0.00    -0.253 OA
ATOM      2  P   UNL     1     -11.207  12.114  68.106  0.00  0.00    +0.365 P 
ATOM      3  N   UNL     1     -11.896  12.422  66.545  0.00  0.00    -0.196 NA
ATOM      4  C   UNL     1     -12.259  13.791  66.322  0.00  0.00    +0.084 C 
ATOM      5  C   UNL     1     -11.443  14.766  67.134  0.00  0.00    +0.050 C 
ATOM      6  C   UNL     1     -11.840  14.559  68.583  0.00  0.00    +0.153 C 
ATOM      7  O   UNL     1     -11.236  13.445  69.129  0.00  0.00    -0.291 OA
ENDROOT
BRANCH   3   8
ATOM      8  C   UNL     1     -11.097  11.903  65.465  0.00  0.00    +0.099 C 
BRANCH   8   9
ATOM      9  C   UNL     1     -11.416  12.680  64.217  0.00  0.00    +0.113 C 
ATOM     10 CL   UNL     1     -12.653  11.854  63.262  0.00  0.00    -0.112 Cl
ENDBRANCH   8   9
ENDBRANCH   3   8
BRANCH   2  11
ATOM     11  N   UNL     1     -12.190  10.852  68.843  0.00  0.00    -0.132 NA
BRANCH  11  12
ATOM     12  C   UNL     1     -11.717  10.543  70.165  0.00  0.00    +0.117 C 
BRANCH  12  13
ATOM     13  C   UNL     1     -12.731  10.982  71.194  0.00  0.00    +0.114 C 
ATOM     14 CL   UNL     1     -13.337   9.590  72.107  0.00  0.00    -0.112 Cl
ENDBRANCH  12  13
ENDBRANCH  11  12
ENDBRANCH   2  11
TORSDOF 5
ENDMDL
