MODEL 1
REMARK VINA RESULT:      -6.3      0.000      0.000
REMARK  Name = 
REMARK  2 active torsions:
REMARK  status: ('A' for Active; 'I' for Inactive)
REMARK    1  A    between atoms: C_5  and  S_6
REMARK    2  A    between atoms: S_6  and  C_9
REMARK                            x       y       z     vdW  Elec       q    Type
REMARK                         _______ _______ _______ _____ _____    ______ ____
ROOT
ATOM      1  S   UNL     1     -11.216  12.445  68.072  0.00  0.00    +0.027 S 
ATOM      2  O   UNL     1     -12.214  11.318  68.211  0.00  0.00    -0.164 OA
ATOM      3  O   UNL     1      -9.883  11.875  68.490  0.00  0.00    -0.164 OA
ENDROOT
BRANCH   1   8
ATOM      4  N   UNL     1     -11.343  16.652  64.440  0.00  0.00    -0.128 NA
ATOM      5  C   UNL     1     -11.259  15.263  64.691  0.00  0.00    +0.089 A 
ATOM      6  C   UNL     1     -10.046  14.666  65.013  0.00  0.00    +0.019 A 
ATOM      7  C   UNL     1      -9.996  13.649  65.960  0.00  0.00    +0.020 A 
ATOM      8  C   UNL     1     -11.157  13.055  66.440  0.00  0.00    +0.110 A 
ATOM      9  C   UNL     1     -12.298  13.336  65.696  0.00  0.00    +0.020 A 
ATOM     10  C   UNL     1     -12.372  14.451  64.868  0.00  0.00    +0.019 A 
ENDBRANCH   1   8
BRANCH   1  11
ATOM     11  C   UNL     1     -11.727  13.680  69.213  0.00  0.00    +0.110 A 
ATOM     12  C   UNL     1     -11.313  14.976  69.087  0.00  0.00    +0.020 A 
ATOM     13  C   UNL     1     -11.177  15.763  70.206  0.00  0.00    +0.019 A 
ATOM     14  C   UNL     1     -11.780  15.390  71.385  0.00  0.00    +0.089 A 
ATOM     15  N   UNL     1     -12.029  16.357  72.397  0.00  0.00    -0.128 NA
ATOM     16  C   UNL     1     -12.347  14.128  71.458  0.00  0.00    +0.019 A 
ATOM     17  C   UNL     1     -12.285  13.243  70.397  0.00  0.00    +0.020 A 
ENDBRANCH   1  11
TORSDOF 2
ENDMDL
MODEL 2
REMARK VINA RESULT:      -6.2      0.998      5.236
REMARK  Name = 
REMARK  2 active torsions:
REMARK  status: ('A' for Active; 'I' for Inactive)
REMARK    1  A    between atoms: C_5  and  S_6
REMARK    2  A    between atoms: S_6  and  C_9
REMARK                            x       y       z     vdW  Elec       q    Type
REMARK                         _______ _______ _______ _____ _____    ______ ____
ROOT
ATOM      1  S   UNL     1     -11.203  12.378  68.186  0.00  0.00    +0.027 S 
ATOM      2  O   UNL     1      -9.850  11.712  68.273  0.00  0.00    -0.164 OA
ATOM      3  O   UNL     1     -12.208  11.263  68.034  0.00  0.00    -0.164 OA
ENDROOT
BRANCH   1   8
ATOM      4  N   UNL     1     -14.684  15.365  71.328  0.00  0.00    -0.128 NA
ATOM      5  C   UNL     1     -13.386  14.854  71.099  0.00  0.00    +0.089 A 
ATOM      6  C   UNL     1     -13.048  13.561  71.482  0.00  0.00    +0.019 A 
ATOM      7  C   UNL     1     -12.221  12.787  70.676  0.00  0.00    +0.020 A 
ATOM      8  C   UNL     1     -11.539  13.342  69.600  0.00  0.00    +0.110 A 
ATOM      9  C   UNL     1     -11.511  14.732  69.591  0.00  0.00    +0.020 A 
ATOM     10  C   UNL     1     -12.450  15.485  70.289  0.00  0.00    +0.019 A 
ENDBRANCH   1   8
BRANCH   1  11
ATOM     11  C   UNL     1     -11.163  13.354  66.725  0.00  0.00    +0.110 A 
ATOM     12  C   UNL     1     -10.106  14.176  66.450  0.00  0.00    +0.020 A 
ATOM     13  C   UNL     1     -10.303  15.324  65.719  0.00  0.00    +0.019 A 
ATOM     14  C   UNL     1     -11.450  15.473  64.971  0.00  0.00    +0.089 A 
ATOM     15  N   UNL     1     -11.485  16.403  63.897  0.00  0.00    -0.128 NA
ATOM     16  C   UNL     1     -12.461  14.541  65.133  0.00  0.00    +0.019 A 
ATOM     17  C   UNL     1     -12.353  13.504  66.042  0.00  0.00    +0.020 A 
ENDBRANCH   1  11
TORSDOF 2
ENDMDL
MODEL 3
REMARK VINA RESULT:      -6.1      3.532      5.454
REMARK  Name = 
REMARK  2 active torsions:
REMARK  status: ('A' for Active; 'I' for Inactive)
REMARK    1  A    between atoms: C_5  and  S_6
REMARK    2  A    between atoms: S_6  and  C_9
REMARK                            x       y       z     vdW  Elec       q    Type
REMARK                         _______ _______ _______ _____ _____    ______ ____
ROOT
ATOM      1  S   UNL     1     -10.685  16.137  68.627  0.00  0.00    +0.027 S 
ATOM      2  O   UNL     1      -9.854  15.213  69.486  0.00  0.00    -0.164 OA
ATOM      3  O   UNL     1     -11.990  16.328  69.361  0.00  0.00    -0.164 OA
ENDROOT
BRANCH   1   8
ATOM      4  N   UNL     1      -7.757  19.598  65.408  0.00  0.00    -0.128 NA
ATOM      5  C   UNL     1      -8.380  19.322  66.647  0.00  0.00    +0.089 A 
ATOM      6  C   UNL     1      -9.742  19.533  66.827  0.00  0.00    +0.019 A 
ATOM      7  C   UNL     1     -10.493  18.643  67.586  0.00  0.00    +0.020 A 
ATOM      8  C   UNL     1      -9.884  17.662  68.358  0.00  0.00    +0.110 A 
ATOM      9  C   UNL     1      -8.517  17.840  68.541  0.00  0.00    +0.020 A 
ATOM     10  C   UNL     1      -7.760  18.618  67.672  0.00  0.00    +0.019 A 
ENDBRANCH   1   8
BRANCH   1  11
ATOM     11  C   UNL     1     -10.963  15.272  67.122  0.00  0.00    +0.110 A 
ATOM     12  C   UNL     1     -10.462  15.731  65.937  0.00  0.00    +0.020 A 
ATOM     13  C   UNL     1     -11.126  15.465  64.763  0.00  0.00    +0.019 A 
ATOM     14  C   UNL     1     -12.071  14.465  64.721  0.00  0.00    +0.089 A 
ATOM     15  N   UNL     1     -12.441  13.885  63.477  0.00  0.00    -0.128 NA
ATOM     16  C   UNL     1     -12.463  13.885  65.916  0.00  0.00    +0.019 A 
ATOM     17  C   UNL     1     -11.954  14.311  67.129  0.00  0.00    +0.020 A 
ENDBRANCH   1  11
TORSDOF 2
ENDMDL
MODEL 4
REMARK VINA RESULT:      -6.1      3.980      5.523
REMARK  Name = 
REMARK  2 active torsions:
REMARK  status: ('A' for Active; 'I' for Inactive)
REMARK    1  A    between atoms: C_5  and  S_6
REMARK    2  A    between atoms: S_6  and  C_9
REMARK                            x       y       z     vdW  Elec       q    Type
REMARK                         _______ _______ _______ _____ _____    ______ ____
ROOT
ATOM      1  S   UNL     1     -10.419  16.368  67.823  0.00  0.00    +0.027 S 
ATOM      2  O   UNL     1      -9.318  15.792  68.683  0.00  0.00    -0.164 OA
ATOM      3  O   UNL     1     -11.554  16.698  68.762  0.00  0.00    -0.164 OA
ENDROOT
BRANCH   1   8
ATOM      4  N   UNL     1      -7.345  20.987  67.466  0.00  0.00    -0.128 NA
ATOM      5  C   UNL     1      -8.302  20.115  66.897  0.00  0.00    +0.089 A 
ATOM      6  C   UNL     1      -7.910  18.971  66.212  0.00  0.00    +0.019 A 
ATOM      7  C   UNL     1      -8.642  17.796  66.338  0.00  0.00    +0.020 A 
ATOM      8  C   UNL     1      -9.886  17.784  66.956  0.00  0.00    +0.110 A 
ATOM      9  C   UNL     1     -10.444  19.043  67.149  0.00  0.00    +0.020 A 
ATOM     10  C   UNL     1      -9.662  20.193  67.170  0.00  0.00    +0.019 A 
ENDBRANCH   1   8
BRANCH   1  11
ATOM     11  C   UNL     1     -10.898  15.077  66.731  0.00  0.00    +0.110 A 
ATOM     12  C   UNL     1     -11.127  15.317  65.406  0.00  0.00    +0.020 A 
ATOM     13  C   UNL     1     -12.035  14.547  64.717  0.00  0.00    +0.019 A 
ATOM     14  C   UNL     1     -12.442  13.338  65.234  0.00  0.00    +0.089 A 
ATOM     15  N   UNL     1     -13.008  12.352  64.382  0.00  0.00    -0.128 NA
ATOM     16  C   UNL     1     -12.070  13.024  66.531  0.00  0.00    +0.019 A 
ATOM     17  C   UNL     1     -11.340  13.904  67.309  0.00  0.00    +0.020 A 
ENDBRANCH   1  11
TORSDOF 2
ENDMDL
MODEL 5
REMARK VINA RESULT:      -6.0      1.459      2.159
REMARK  Name = 
REMARK  2 active torsions:
REMARK  status: ('A' for Active; 'I' for Inactive)
REMARK    1  A    between atoms: C_5  and  S_6
REMARK    2  A    between atoms: S_6  and  C_9
REMARK                            x       y       z     vdW  Elec       q    Type
REMARK                         _______ _______ _______ _____ _____    ______ ____
ROOT
ATOM      1  S   UNL     1     -11.307  12.402  68.575  0.00  0.00    +0.027 S 
ATOM      2  O   UNL     1     -12.290  11.257  68.508  0.00  0.00    -0.164 OA
ATOM      3  O   UNL     1      -9.967  11.784  68.893  0.00  0.00    -0.164 OA
ENDROOT
BRANCH   1   8
ATOM      4  N   UNL     1     -12.380  12.857  63.139  0.00  0.00    -0.128 NA
ATOM      5  C   UNL     1     -11.824  13.402  64.320  0.00  0.00    +0.089 A 
ATOM      6  C   UNL     1     -12.618  14.078  65.238  0.00  0.00    +0.019 A 
ATOM      7  C   UNL     1     -12.391  13.929  66.602  0.00  0.00    +0.020 A 
ATOM      8  C   UNL     1     -11.251  13.293  67.077  0.00  0.00    +0.110 A 
ATOM      9  C   UNL     1     -10.256  13.107  66.124  0.00  0.00    +0.020 A 
ATOM     10  C   UNL     1     -10.540  13.111  64.763  0.00  0.00    +0.019 A 
ENDBRANCH   1   8
BRANCH   1  11
ATOM     11  C   UNL     1     -11.836  13.409  69.915  0.00  0.00    +0.110 A 
ATOM     12  C   UNL     1     -12.534  12.883  70.965  0.00  0.00    +0.020 A 
ATOM     13  C   UNL     1     -13.435  13.664  71.649  0.00  0.00    +0.019 A 
ATOM     14  C   UNL     1     -13.385  15.035  71.528  0.00  0.00    +0.089 A 
ATOM     15  N   UNL     1     -13.980  15.861  72.521  0.00  0.00    -0.128 NA
ATOM     16  C   UNL     1     -12.549  15.576  70.566  0.00  0.00    +0.019 A 
ATOM     17  C   UNL     1     -11.805  14.775  69.719  0.00  0.00    +0.020 A 
ENDBRANCH   1  11
TORSDOF 2
ENDMDL
MODEL 6
REMARK VINA RESULT:      -6.0      2.166      5.803
REMARK  Name = 
REMARK  2 active torsions:
REMARK  status: ('A' for Active; 'I' for Inactive)
REMARK    1  A    between atoms: C_5  and  S_6
REMARK    2  A    between atoms: S_6  and  C_9
REMARK                            x       y       z     vdW  Elec       q    Type
REMARK                         _______ _______ _______ _____ _____    ______ ____
ROOT
ATOM      1  S   UNL     1     -10.403  14.507  68.343  0.00  0.00    +0.027 S 
ATOM      2  O   UNL     1     -10.235  15.914  67.818  0.00  0.00    -0.164 OA
ATOM      3  O   UNL     1      -9.019  13.907  68.382  0.00  0.00    -0.164 OA
ENDROOT
BRANCH   1   8
ATOM      4  N   UNL     1     -14.676  15.594  71.730  0.00  0.00    -0.128 NA
ATOM      5  C   UNL     1     -13.360  15.111  71.548  0.00  0.00    +0.089 A 
ATOM      6  C   UNL     1     -13.128  13.807  71.127  0.00  0.00    +0.019 A 
ATOM      7  C   UNL     1     -12.095  13.532  70.237  0.00  0.00    +0.020 A 
ATOM      8  C   UNL     1     -11.141  14.492  69.923  0.00  0.00    +0.110 A 
ATOM      9  C   UNL     1     -11.131  15.593  70.772  0.00  0.00    +0.020 A 
ATOM     10  C   UNL     1     -12.240  15.933  71.540  0.00  0.00    +0.019 A 
ENDBRANCH   1   8
BRANCH   1  11
ATOM     11  C   UNL     1     -11.388  13.667  67.154  0.00  0.00    +0.110 A 
ATOM     12  C   UNL     1     -11.101  12.387  66.772  0.00  0.00    +0.020 A 
ATOM     13  C   UNL     1     -11.422  11.962  65.505  0.00  0.00    +0.019 A 
ATOM     14  C   UNL     1     -12.329  12.672  64.752  0.00  0.00    +0.089 A 
ATOM     15  N   UNL     1     -12.997  12.048  63.663  0.00  0.00    -0.128 NA
ATOM     16  C   UNL     1     -12.746  13.906  65.224  0.00  0.00    +0.019 A 
ATOM     17  C   UNL     1     -12.247  14.439  66.398  0.00  0.00    +0.020 A 
ENDBRANCH   1  11
TORSDOF 2
ENDMDL
MODEL 7
REMARK VINA RESULT:      -5.9      3.789      4.591
REMARK  Name = 
REMARK  2 active torsions:
REMARK  status: ('A' for Active; 'I' for Inactive)
REMARK    1  A    between atoms: C_5  and  S_6
REMARK    2  A    between atoms: S_6  and  C_9
REMARK                            x       y       z     vdW  Elec       q    Type
REMARK                         _______ _______ _______ _____ _____    ______ ____
ROOT
ATOM      1  S   UNL     1     -10.369  16.071  68.524  0.00  0.00    +0.027 S 
ATOM      2  O   UNL     1     -11.689  16.660  68.965  0.00  0.00    -0.164 OA
ATOM      3  O   UNL     1      -9.719  15.523  69.771  0.00  0.00    -0.164 OA
ENDROOT
BRANCH   1   8
ATOM      4  N   UNL     1     -12.545  14.235  63.748  0.00  0.00    -0.128 NA
ATOM      5  C   UNL     1     -11.765  13.993  64.903  0.00  0.00    +0.089 A 
ATOM      6  C   UNL     1     -10.427  14.364  64.954  0.00  0.00    +0.019 A 
ATOM      7  C   UNL     1      -9.887  14.875  66.129  0.00  0.00    +0.020 A 
ATOM      8  C   UNL     1     -10.589  14.823  67.327  0.00  0.00    +0.110 A 
ATOM      9  C   UNL     1     -11.692  13.976  67.311  0.00  0.00    +0.020 A 
ATOM     10  C   UNL     1     -12.307  13.602  66.121  0.00  0.00    +0.019 A 
ENDBRANCH   1   8
BRANCH   1  11
ATOM     11  C   UNL     1      -9.429  17.418  67.899  0.00  0.00    +0.110 A 
ATOM     12  C   UNL     1      -8.090  17.525  68.149  0.00  0.00    +0.020 A 
ATOM     13  C   UNL     1      -7.503  18.766  68.219  0.00  0.00    +0.019 A 
ATOM     14  C   UNL     1      -8.152  19.863  67.697  0.00  0.00    +0.089 A 
ATOM     15  N   UNL     1      -7.419  21.033  67.361  0.00  0.00    -0.128 NA
ATOM     16  C   UNL     1      -9.467  19.711  67.290  0.00  0.00    +0.019 A 
ATOM     17  C   UNL     1     -10.135  18.508  67.430  0.00  0.00    +0.020 A 
ENDBRANCH   1  11
TORSDOF 2
ENDMDL
MODEL 8
REMARK VINA RESULT:      -5.9      3.510      5.818
REMARK  Name = 
REMARK  2 active torsions:
REMARK  status: ('A' for Active; 'I' for Inactive)
REMARK    1  A    between atoms: C_5  and  S_6
REMARK    2  A    between atoms: S_6  and  C_9
REMARK                            x       y       z     vdW  Elec       q    Type
REMARK                         _______ _______ _______ _____ _____    ______ ____
ROOT
ATOM      1  S   UNL     1     -12.103  14.076  65.088  0.00  0.00    +0.027 S 
ATOM      2  O   UNL     1     -13.452  13.860  65.733  0.00  0.00    -0.164 OA
ATOM      3  O   UNL     1     -12.373  14.795  63.789  0.00  0.00    -0.164 OA
ENDROOT
BRANCH   1   8
ATOM      4  N   UNL     1     -10.799  18.761  67.782  0.00  0.00    -0.128 NA
ATOM      5  C   UNL     1     -10.470  17.436  67.416  0.00  0.00    +0.089 A 
ATOM      6  C   UNL     1     -10.975  16.351  68.123  0.00  0.00    +0.019 A 
ATOM      7  C   UNL     1     -11.354  15.194  67.452  0.00  0.00    +0.020 A 
ATOM      8  C   UNL     1     -11.039  15.002  66.112  0.00  0.00    +0.110 A 
ATOM      9  C   UNL     1     -10.088  15.885  65.613  0.00  0.00    +0.020 A 
ATOM     10  C   UNL     1      -9.836  17.109  66.223  0.00  0.00    +0.019 A 
ENDBRANCH   1   8
BRANCH   1  11
ATOM     11  C   UNL     1     -11.464  12.471  64.764  0.00  0.00    +0.110 A 
ATOM     12  C   UNL     1     -11.084  11.641  65.781  0.00  0.00    +0.020 A 
ATOM     13  C   UNL     1     -10.082  10.723  65.577  0.00  0.00    +0.019 A 
ATOM     14  C   UNL     1      -9.709  10.386  64.295  0.00  0.00    +0.089 A 
ATOM     15  N   UNL     1      -9.021   9.167  64.049  0.00  0.00    -0.128 NA
ATOM     16  C   UNL     1     -10.227  11.131  63.248  0.00  0.00    +0.019 A 
ATOM     17  C   UNL     1     -11.066  12.207  63.470  0.00  0.00    +0.020 A 
ENDBRANCH   1  11
TORSDOF 2
ENDMDL
MODEL 9
REMARK VINA RESULT:      -5.8      2.583      3.104
REMARK  Name = 
REMARK  2 active torsions:
REMARK  status: ('A' for Active; 'I' for Inactive)
REMARK    1  A    between atoms: C_5  and  S_6
REMARK    2  A    between atoms: S_6  and  C_9
REMARK                            x       y       z     vdW  Elec       q    Type
REMARK                         _______ _______ _______ _____ _____    ______ ____
ROOT
ATOM      1  S   UNL     1     -11.366  14.921  69.258  0.00  0.00    +0.027 S 
ATOM      2  O   UNL     1     -10.148  15.551  69.894  0.00  0.00    -0.164 OA
ATOM      3  O   UNL     1     -12.492  15.908  69.445  0.00  0.00    -0.164 OA
ENDROOT
BRANCH   1   8
ATOM      4  N   UNL     1     -11.582  16.378  63.897  0.00  0.00    -0.128 NA
ATOM      5  C   UNL     1     -11.283  15.411  64.885  0.00  0.00    +0.089 A 
ATOM      6  C   UNL     1     -10.066  15.424  65.554  0.00  0.00    +0.019 A 
ATOM      7  C   UNL     1     -10.009  15.113  66.909  0.00  0.00    +0.020 A 
ATOM      8  C   UNL     1     -11.105  14.573  67.570  0.00  0.00    +0.110 A 
ATOM      9  C   UNL     1     -12.110  14.103  66.731  0.00  0.00    +0.020 A 
ATOM     10  C   UNL     1     -12.233  14.549  65.420  0.00  0.00    +0.019 A 
ENDBRANCH   1   8
BRANCH   1  11
ATOM     11  C   UNL     1     -11.688  13.461  70.184  0.00  0.00    +0.110 A 
ATOM     12  C   UNL     1     -11.365  12.226  69.696  0.00  0.00    +0.020 A 
ATOM     13  C   UNL     1     -12.107  11.129  70.063  0.00  0.00    +0.019 A 
ATOM     14  C   UNL     1     -12.926  11.193  71.168  0.00  0.00    +0.089 A 
ATOM     15  N   UNL     1     -13.346   9.999  71.815  0.00  0.00    -0.128 NA
ATOM     16  C   UNL     1     -13.124  12.428  71.764  0.00  0.00    +0.019 A 
ATOM     17  C   UNL     1     -12.551  13.579  71.254  0.00  0.00    +0.020 A 
ENDBRANCH   1  11
TORSDOF 2
ENDMDL
