MODEL 1
REMARK VINA RESULT:      -9.5      0.000      0.000
REMARK  Name = 
REMARK  4 active torsions:
REMARK  status: ('A' for Active; 'I' for Inactive)
REMARK    1  A    between atoms: C_2  and  O_4
REMARK    2  A    between atoms: O_4  and  C_5
REMARK    3  A    between atoms: C_5  and  C_6
REMARK    4  A    between atoms: C_6  and  C_8
REMARK                            x       y       z     vdW  Elec       q    Type
REMARK                         _______ _______ _______ _____ _____    ______ ____
ROOT
ATOM      1  C   UNL     1     -11.480  14.259  66.921  0.00  0.00    +0.174 C 
ATOM      2  C   UNL     1     -10.807  15.470  66.666  0.00  0.00    +0.034 C 
ATOM      3  C   UNL     1      -9.470  15.352  67.565  0.00  0.00    +0.008 C 
ATOM      4  C   UNL     1      -8.764  16.537  66.582  0.00  0.00    +0.034 C 
ATOM      5  C   UNL     1      -8.962  17.632  67.739  0.00  0.00    +0.168 C 
ATOM      6  C   UNL     1     -10.524  17.519  68.188  0.00  0.00    +0.182 C 
ATOM      7  O   UNL     1     -10.922  18.891  67.669  0.00  0.00    -0.220 OA
ATOM      8  F   UNL     1      -8.454  17.055  68.917  0.00  0.00    -0.237 F 
ATOM      9  C   UNL     1      -8.325  18.838  67.548  0.00  0.00    +0.064 C 
ATOM     10  C   UNL     1      -7.306  18.641  66.452  0.00  0.00    -0.035 C 
ATOM     11  C   UNL     1      -6.562  19.733  66.227  0.00  0.00    +0.034 C 
ATOM     12  C   UNL     1      -6.449  20.803  67.234  0.00  0.00    +0.195 C 
ATOM     13  C   UNL     1      -6.636  20.300  68.605  0.00  0.00    +0.038 C 
ATOM     14  O   UNL     1      -5.677  21.797  67.068  0.00  0.00    -0.287 OA
ATOM     15  C   UNL     1      -6.574  17.348  66.259  0.00  0.00    +0.023 C 
ATOM     16  C   UNL     1      -8.950  20.151  67.232  0.00  0.00    +0.011 C 
ATOM     17  C   UNL     1      -7.409  19.215  68.691  0.00  0.00    -0.017 C 
ATOM     18  C   UNL     1      -7.239  16.194  67.001  0.00  0.00    +0.007 C 
ATOM     19  C   UNL     1      -9.053  14.070  66.688  0.00  0.00    +0.033 C 
ATOM     20  C   UNL     1     -10.353  15.338  65.202  0.00  0.00    +0.003 C 
ATOM     21  C   UNL     1     -11.165  16.819  66.834  0.00  0.00    +0.038 C 
ATOM     22  C   UNL     1     -10.313  13.128  67.184  0.00  0.00    +0.149 C 
ATOM     23  O   UNL     1     -10.181  13.525  68.641  0.00  0.00    -0.334 OA
ATOM     24  C   UNL     1     -11.501  13.535  69.041  0.00  0.00    +0.187 C 
ATOM     25  C   UNL     1     -11.967  12.213  69.559  0.00  0.00    +0.056 C 
ATOM     26  C   UNL     1     -12.394  12.385  70.990  0.00  0.00    +0.005 C 
ATOM     27  C   UNL     1     -12.732  13.866  71.102  0.00  0.00    +0.005 C 
ATOM     28  C   UNL     1     -11.610  14.443  70.246  0.00  0.00    +0.056 C 
ATOM     29  O   UNL     1     -12.262  14.064  68.023  0.00  0.00    -0.330 OA
ENDROOT
BRANCH   1  30
ATOM     30  C   UNL     1     -12.163  13.642  65.733  0.00  0.00    +0.221 C 
ATOM     31  O   UNL     1     -12.905  14.286  64.990  0.00  0.00    -0.290 OA
BRANCH  30  32
ATOM     32  C   UNL     1     -11.952  12.253  65.274  0.00  0.00    +0.275 C 
BRANCH  32  33
ATOM     33  O   UNL     1     -11.250  12.152  64.059  0.00  0.00    -0.440 OA
BRANCH  33  35
ATOM     34  C   UNL     1      -9.792  10.190  64.707  0.00  0.00    +0.121 C 
ATOM     35  C   UNL     1     -10.175  11.320  63.836  0.00  0.00    +0.318 C 
ATOM     36  O   UNL     1      -9.633  11.494  62.702  0.00  0.00    -0.250 OA
ENDBRANCH  33  35
ENDBRANCH  32  33
ENDBRANCH  30  32
ENDBRANCH   1  30
TORSDOF 4
ENDMDL
MODEL 2
REMARK VINA RESULT:      -8.7      2.459      7.277
REMARK  Name = 
REMARK  4 active torsions:
REMARK  status: ('A' for Active; 'I' for Inactive)
REMARK    1  A    between atoms: C_2  and  O_4
REMARK    2  A    between atoms: O_4  and  C_5
REMARK    3  A    between atoms: C_5  and  C_6
REMARK    4  A    between atoms: C_6  and  C_8
REMARK                            x       y       z     vdW  Elec       q    Type
REMARK                         _______ _______ _______ _____ _____    ______ ____
ROOT
ATOM      1  C   UNL     1     -11.380  15.777  68.744  0.00  0.00    +0.174 C 
ATOM      2  C   UNL     1     -11.394  14.631  67.927  0.00  0.00    +0.034 C 
ATOM      3  C   UNL     1      -9.894  14.578  67.329  0.00  0.00    +0.008 C 
ATOM      4  C   UNL     1     -10.139  12.935  66.995  0.00  0.00    +0.034 C 
ATOM      5  C   UNL     1     -10.319  13.267  65.434  0.00  0.00    +0.168 C 
ATOM      6  C   UNL     1     -11.420  14.466  65.365  0.00  0.00    +0.182 C 
ATOM      7  O   UNL     1     -12.494  13.634  64.684  0.00  0.00    -0.220 OA
ATOM      8  F   UNL     1      -9.228  14.081  65.077  0.00  0.00    -0.237 F 
ATOM      9  C   UNL     1     -10.338  12.185  64.582  0.00  0.00    +0.064 C 
ATOM     10  C   UNL     1      -9.806  10.998  65.349  0.00  0.00    -0.035 C 
ATOM     11  C   UNL     1      -9.702   9.894  64.597  0.00  0.00    +0.034 C 
ATOM     12  C   UNL     1      -9.666   9.969  63.126  0.00  0.00    +0.195 C 
ATOM     13  C   UNL     1      -9.118  11.249  62.648  0.00  0.00    +0.038 C 
ATOM     14  O   UNL     1      -9.478   8.939  62.409  0.00  0.00    -0.287 OA
ATOM     15  C   UNL     1      -8.744  11.130  66.398  0.00  0.00    +0.023 C 
ATOM     16  C   UNL     1     -11.505  11.642  63.836  0.00  0.00    +0.011 C 
ATOM     17  C   UNL     1      -9.300  12.272  63.486  0.00  0.00    -0.017 C 
ATOM     18  C   UNL     1      -8.567  12.572  66.859  0.00  0.00    +0.007 C 
ATOM     19  C   UNL     1      -9.353  14.412  68.834  0.00  0.00    +0.033 C 
ATOM     20  C   UNL     1     -11.498  13.466  68.927  0.00  0.00    +0.003 C 
ATOM     21  C   UNL     1     -12.174  14.252  66.820  0.00  0.00    +0.038 C 
ATOM     22  C   UNL     1      -9.850  15.901  69.341  0.00  0.00    +0.149 C 
ATOM     23  O   UNL     1      -9.364  16.612  68.094  0.00  0.00    -0.334 OA
ATOM     24  C   UNL     1     -10.329  17.585  67.940  0.00  0.00    +0.187 C 
ATOM     25  C   UNL     1      -9.999  18.855  68.657  0.00  0.00    +0.056 C 
ATOM     26  C   UNL     1      -9.901  19.961  67.645  0.00  0.00    +0.005 C 
ATOM     27  C   UNL     1     -10.738  19.468  66.471  0.00  0.00    +0.005 C 
ATOM     28  C   UNL     1     -10.342  17.996  66.485  0.00  0.00    +0.056 C 
ATOM     29  O   UNL     1     -11.554  17.039  68.253  0.00  0.00    -0.330 OA
ENDROOT
BRANCH   1  30
ATOM     30  C   UNL     1     -12.142  15.655  70.034  0.00  0.00    +0.221 C 
ATOM     31  O   UNL     1     -13.250  15.123  70.098  0.00  0.00    -0.290 OA
BRANCH  30  32
ATOM     32  C   UNL     1     -11.621  16.063  71.356  0.00  0.00    +0.275 C 
BRANCH  32  33
ATOM     33  O   UNL     1     -11.616  15.031  72.312  0.00  0.00    -0.440 OA
BRANCH  33  35
ATOM     34  C   UNL     1     -12.454  15.785  74.577  0.00  0.00    +0.121 C 
ATOM     35  C   UNL     1     -12.493  14.933  73.371  0.00  0.00    +0.318 C 
ATOM     36  O   UNL     1     -13.469  14.155  73.142  0.00  0.00    -0.250 OA
ENDBRANCH  33  35
ENDBRANCH  32  33
ENDBRANCH  30  32
ENDBRANCH   1  30
TORSDOF 4
ENDMDL
MODEL 3
REMARK VINA RESULT:      -8.4      1.744      4.647
REMARK  Name = 
REMARK  4 active torsions:
REMARK  status: ('A' for Active; 'I' for Inactive)
REMARK    1  A    between atoms: C_2  and  O_4
REMARK    2  A    between atoms: O_4  and  C_5
REMARK    3  A    between atoms: C_5  and  C_6
REMARK    4  A    between atoms: C_6  and  C_8
REMARK                            x       y       z     vdW  Elec       q    Type
REMARK                         _______ _______ _______ _____ _____    ______ ____
ROOT
ATOM      1  C   UNL     1     -10.717  13.588  67.774  0.00  0.00    +0.174 C 
ATOM      2  C   UNL     1      -9.775  14.593  68.064  0.00  0.00    +0.034 C 
ATOM      3  C   UNL     1     -10.300  15.858  67.206  0.00  0.00    +0.008 C 
ATOM      4  C   UNL     1      -9.394  16.862  68.226  0.00  0.00    +0.034 C 
ATOM      5  C   UNL     1      -8.289  17.052  67.075  0.00  0.00    +0.168 C 
ATOM      6  C   UNL     1      -7.912  15.547  66.576  0.00  0.00    +0.182 C 
ATOM      7  O   UNL     1      -6.485  15.577  67.099  0.00  0.00    -0.220 OA
ATOM      8  F   UNL     1      -8.994  17.395  65.907  0.00  0.00    -0.237 F 
ATOM      9  C   UNL     1      -7.340  18.024  67.300  0.00  0.00    +0.064 C 
ATOM     10  C   UNL     1      -7.845  18.895  68.426  0.00  0.00    -0.035 C 
ATOM     11  C   UNL     1      -7.037  19.932  68.686  0.00  0.00    +0.034 C 
ATOM     12  C   UNL     1      -6.054  20.405  67.697  0.00  0.00    +0.195 C 
ATOM     13  C   UNL     1      -6.472  20.117  66.315  0.00  0.00    +0.038 C 
ATOM     14  O   UNL     1      -5.348  21.440  67.898  0.00  0.00    -0.287 OA
ATOM     15  C   UNL     1      -9.301  19.183  68.627  0.00  0.00    +0.023 C 
ATOM     16  C   UNL     1      -5.898  17.826  67.612  0.00  0.00    +0.011 C 
ATOM     17  C   UNL     1      -7.264  19.050  66.191  0.00  0.00    -0.017 C 
ATOM     18  C   UNL     1     -10.191  18.219  67.851  0.00  0.00    +0.007 C 
ATOM     19  C   UNL     1     -11.650  15.827  68.081  0.00  0.00    +0.033 C 
ATOM     20  C   UNL     1     -10.043  14.934  69.540  0.00  0.00    +0.003 C 
ATOM     21  C   UNL     1      -8.381  14.676  67.901  0.00  0.00    +0.038 C 
ATOM     22  C   UNL     1     -12.154  14.355  67.534  0.00  0.00    +0.149 C 
ATOM     23  O   UNL     1     -11.816  14.652  66.087  0.00  0.00    -0.334 OA
ATOM     24  C   UNL     1     -11.396  13.414  65.645  0.00  0.00    +0.187 C 
ATOM     25  C   UNL     1     -12.509  12.580  65.098  0.00  0.00    +0.056 C 
ATOM     26  C   UNL     1     -12.211  12.275  63.657  0.00  0.00    +0.005 C 
ATOM     27  C   UNL     1     -10.697  12.416  63.551  0.00  0.00    +0.005 C 
ATOM     28  C   UNL     1     -10.498  13.632  64.449  0.00  0.00    +0.056 C 
ATOM     29  O   UNL     1     -10.659  12.820  66.646  0.00  0.00    -0.330 OA
ENDROOT
BRANCH   1  30
ATOM     30  C   UNL     1     -11.094  12.707  68.933  0.00  0.00    +0.221 C 
ATOM     31  O   UNL     1     -10.300  11.920  69.448  0.00  0.00    -0.290 OA
BRANCH  30  32
ATOM     32  C   UNL     1     -12.396  12.755  69.631  0.00  0.00    +0.275 C 
BRANCH  32  33
ATOM     33  O   UNL     1     -12.300  13.060  71.001  0.00  0.00    -0.440 OA
BRANCH  33  35
ATOM     34  C   UNL     1     -13.327  15.341  71.374  0.00  0.00    +0.121 C 
ATOM     35  C   UNL     1     -13.147  13.907  71.682  0.00  0.00    +0.318 C 
ATOM     36  O   UNL     1     -13.911  13.304  72.495  0.00  0.00    -0.250 OA
ENDBRANCH  33  35
ENDBRANCH  32  33
ENDBRANCH  30  32
ENDBRANCH   1  30
TORSDOF 4
ENDMDL
MODEL 4
REMARK VINA RESULT:      -8.3      1.881      4.315
REMARK  Name = 
REMARK  4 active torsions:
REMARK  status: ('A' for Active; 'I' for Inactive)
REMARK    1  A    between atoms: C_2  and  O_4
REMARK    2  A    between atoms: O_4  and  C_5
REMARK    3  A    between atoms: C_5  and  C_6
REMARK    4  A    between atoms: C_6  and  C_8
REMARK                            x       y       z     vdW  Elec       q    Type
REMARK                         _______ _______ _______ _____ _____    ______ ____
ROOT
ATOM      1  C   UNL     1     -10.755  13.566  67.806  0.00  0.00    +0.174 C 
ATOM      2  C   UNL     1      -9.814  14.567  68.113  0.00  0.00    +0.034 C 
ATOM      3  C   UNL     1     -10.310  15.830  67.236  0.00  0.00    +0.008 C 
ATOM      4  C   UNL     1      -9.422  16.835  68.271  0.00  0.00    +0.034 C 
ATOM      5  C   UNL     1      -8.289  17.011  67.146  0.00  0.00    +0.168 C 
ATOM      6  C   UNL     1      -7.910  15.501  66.665  0.00  0.00    +0.182 C 
ATOM      7  O   UNL     1      -6.495  15.524  67.221  0.00  0.00    -0.220 OA
ATOM      8  F   UNL     1      -8.963  17.352  65.960  0.00  0.00    -0.237 F 
ATOM      9  C   UNL     1      -7.339  17.978  67.389  0.00  0.00    +0.064 C 
ATOM     10  C   UNL     1      -7.865  18.859  68.497  0.00  0.00    -0.035 C 
ATOM     11  C   UNL     1      -7.057  19.892  68.771  0.00  0.00    +0.034 C 
ATOM     12  C   UNL     1      -6.047  20.353  67.802  0.00  0.00    +0.195 C 
ATOM     13  C   UNL     1      -6.434  20.060  66.412  0.00  0.00    +0.038 C 
ATOM     14  O   UNL     1      -5.339  21.385  68.015  0.00  0.00    -0.287 OA
ATOM     15  C   UNL     1      -9.324  19.158  68.661  0.00  0.00    +0.023 C 
ATOM     16  C   UNL     1      -5.906  17.773  67.736  0.00  0.00    +0.011 C 
ATOM     17  C   UNL     1      -7.230  18.997  66.276  0.00  0.00    -0.017 C 
ATOM     18  C   UNL     1     -10.201  18.195  67.869  0.00  0.00    +0.007 C 
ATOM     19  C   UNL     1     -11.680  15.814  68.078  0.00  0.00    +0.033 C 
ATOM     20  C   UNL     1     -10.115  14.919  69.580  0.00  0.00    +0.003 C 
ATOM     21  C   UNL     1      -8.416  14.641  67.983  0.00  0.00    +0.038 C 
ATOM     22  C   UNL     1     -12.181  14.341  67.527  0.00  0.00    +0.149 C 
ATOM     23  O   UNL     1     -11.806  14.628  66.087  0.00  0.00    -0.334 OA
ATOM     24  C   UNL     1     -11.384  13.385  65.663  0.00  0.00    +0.187 C 
ATOM     25  C   UNL     1     -12.489  12.555  65.093  0.00  0.00    +0.056 C 
ATOM     26  C   UNL     1     -12.158  12.240  63.661  0.00  0.00    +0.005 C 
ATOM     27  C   UNL     1     -10.641  12.370  63.591  0.00  0.00    +0.005 C 
ATOM     28  C   UNL     1     -10.456  13.590  64.487  0.00  0.00    +0.056 C 
ATOM     29  O   UNL     1     -10.675  12.792  66.684  0.00  0.00    -0.330 OA
ENDROOT
BRANCH   1  30
ATOM     30  C   UNL     1     -11.166  12.696  68.960  0.00  0.00    +0.221 C 
ATOM     31  O   UNL     1     -12.117  12.973  69.690  0.00  0.00    -0.290 OA
BRANCH  30  32
ATOM     32  C   UNL     1     -10.551  11.391  69.284  0.00  0.00    +0.275 C 
BRANCH  32  33
ATOM     33  O   UNL     1     -11.475  10.401  69.664  0.00  0.00    -0.440 OA
BRANCH  33  35
ATOM     34  C   UNL     1     -12.919   9.901  71.679  0.00  0.00    +0.121 C 
ATOM     35  C   UNL     1     -11.637   9.923  70.946  0.00  0.00    +0.318 C 
ATOM     36  O   UNL     1     -10.611   9.325  71.391  0.00  0.00    -0.250 OA
ENDBRANCH  33  35
ENDBRANCH  32  33
ENDBRANCH  30  32
ENDBRANCH   1  30
TORSDOF 4
ENDMDL
MODEL 5
REMARK VINA RESULT:      -8.3      1.375      1.710
REMARK  Name = 
REMARK  4 active torsions:
REMARK  status: ('A' for Active; 'I' for Inactive)
REMARK    1  A    between atoms: C_2  and  O_4
REMARK    2  A    between atoms: O_4  and  C_5
REMARK    3  A    between atoms: C_5  and  C_6
REMARK    4  A    between atoms: C_6  and  C_8
REMARK                            x       y       z     vdW  Elec       q    Type
REMARK                         _______ _______ _______ _____ _____    ______ ____
ROOT
ATOM      1  C   UNL     1     -11.222  14.679  67.305  0.00  0.00    +0.174 C 
ATOM      2  C   UNL     1     -10.424  15.732  66.820  0.00  0.00    +0.034 C 
ATOM      3  C   UNL     1      -9.219  15.815  67.893  0.00  0.00    +0.008 C 
ATOM      4  C   UNL     1      -8.303  16.633  66.727  0.00  0.00    +0.034 C 
ATOM      5  C   UNL     1      -8.545  18.022  67.495  0.00  0.00    +0.168 C 
ATOM      6  C   UNL     1     -10.153  18.116  67.735  0.00  0.00    +0.182 C 
ATOM      7  O   UNL     1     -10.368  19.299  66.804  0.00  0.00    -0.220 OA
ATOM      8  F   UNL     1      -8.233  17.784  68.845  0.00  0.00    -0.237 F 
ATOM      9  C   UNL     1      -7.790  19.091  67.066  0.00  0.00    +0.064 C 
ATOM     10  C   UNL     1      -6.666  18.540  66.221  0.00  0.00    -0.035 C 
ATOM     11  C   UNL     1      -5.811  19.485  65.808  0.00  0.00    +0.034 C 
ATOM     12  C   UNL     1      -5.729  20.792  66.482  0.00  0.00    +0.195 C 
ATOM     13  C   UNL     1      -6.122  20.713  67.899  0.00  0.00    +0.038 C 
ATOM     14  O   UNL     1      -4.862  21.659  66.155  0.00  0.00    -0.287 OA
ATOM     15  C   UNL     1      -6.029  17.213  66.500  0.00  0.00    +0.023 C 
ATOM     16  C   UNL     1      -8.259  20.286  66.313  0.00  0.00    +0.011 C 
ATOM     17  C   UNL     1      -6.989  19.737  68.175  0.00  0.00    -0.017 C 
ATOM     18  C   UNL     1      -6.873  16.354  67.433  0.00  0.00    +0.007 C 
ATOM     19  C   UNL     1      -8.810  14.316  67.474  0.00  0.00    +0.033 C 
ATOM     20  C   UNL     1      -9.810  15.165  65.528  0.00  0.00    +0.003 C 
ATOM     21  C   UNL     1     -10.684  17.088  66.553  0.00  0.00    +0.038 C 
ATOM     22  C   UNL     1     -10.196  13.617  68.033  0.00  0.00    +0.149 C 
ATOM     23  O   UNL     1     -10.207  14.409  69.325  0.00  0.00    -0.334 OA
ATOM     24  C   UNL     1     -11.560  14.596  69.519  0.00  0.00    +0.187 C 
ATOM     25  C   UNL     1     -12.195  13.501  70.314  0.00  0.00    +0.056 C 
ATOM     26  C   UNL     1     -12.775  14.097  71.566  0.00  0.00    +0.005 C 
ATOM     27  C   UNL     1     -12.997  15.562  71.213  0.00  0.00    +0.005 C 
ATOM     28  C   UNL     1     -11.736  15.815  70.396  0.00  0.00    +0.056 C 
ATOM     29  O   UNL     1     -12.146  14.845  68.297  0.00  0.00    -0.330 OA
ENDROOT
BRANCH   1  30
ATOM     30  C   UNL     1     -11.807  13.780  66.252  0.00  0.00    +0.221 C 
ATOM     31  O   UNL     1     -12.592  14.189  65.397  0.00  0.00    -0.290 OA
BRANCH  30  32
ATOM     32  C   UNL     1     -11.443  12.359  66.069  0.00  0.00    +0.275 C 
BRANCH  32  33
ATOM     33  O   UNL     1     -11.985  11.499  67.041  0.00  0.00    -0.440 OA
BRANCH  33  35
ATOM     34  C   UNL     1     -10.261   9.649  66.964  0.00  0.00    +0.121 C 
ATOM     35  C   UNL     1     -11.313  10.448  67.627  0.00  0.00    +0.318 C 
ATOM     36  O   UNL     1     -11.547  10.333  68.868  0.00  0.00    -0.250 OA
ENDBRANCH  33  35
ENDBRANCH  32  33
ENDBRANCH  30  32
ENDBRANCH   1  30
TORSDOF 4
ENDMDL
MODEL 6
REMARK VINA RESULT:      -8.0      4.029      7.479
REMARK  Name = 
REMARK  4 active torsions:
REMARK  status: ('A' for Active; 'I' for Inactive)
REMARK    1  A    between atoms: C_2  and  O_4
REMARK    2  A    between atoms: O_4  and  C_5
REMARK    3  A    between atoms: C_5  and  C_6
REMARK    4  A    between atoms: C_6  and  C_8
REMARK                            x       y       z     vdW  Elec       q    Type
REMARK                         _______ _______ _______ _____ _____    ______ ____
ROOT
ATOM      1  C   UNL     1     -10.528  12.975  68.312  0.00  0.00    +0.174 C 
ATOM      2  C   UNL     1      -9.781  12.639  67.167  0.00  0.00    +0.034 C 
ATOM      3  C   UNL     1     -10.703  11.536  66.429  0.00  0.00    +0.008 C 
ATOM      4  C   UNL     1      -9.862  11.864  64.996  0.00  0.00    +0.034 C 
ATOM      5  C   UNL     1      -9.042  10.492  65.149  0.00  0.00    +0.168 C 
ATOM      6  C   UNL     1      -8.453  10.500  66.668  0.00  0.00    +0.182 C 
ATOM      7  O   UNL     1      -6.994  10.610  66.254  0.00  0.00    -0.220 OA
ATOM      8  F   UNL     1      -9.998   9.489  65.394  0.00  0.00    -0.237 F 
ATOM      9  C   UNL     1      -8.293  10.108  64.059  0.00  0.00    +0.064 C 
ATOM     10  C   UNL     1      -8.763  10.925  62.879  0.00  0.00    -0.035 C 
ATOM     11  C   UNL     1      -8.158  10.584  61.733  0.00  0.00    +0.034 C 
ATOM     12  C   UNL     1      -7.485   9.282  61.580  0.00  0.00    +0.195 C 
ATOM     13  C   UNL     1      -8.071   8.247  62.447  0.00  0.00    +0.038 C 
ATOM     14  O   UNL     1      -6.988   8.914  60.472  0.00  0.00    -0.287 OA
ATOM     15  C   UNL     1     -10.188  11.356  62.717  0.00  0.00    +0.023 C 
ATOM     16  C   UNL     1      -6.810  10.108  63.935  0.00  0.00    +0.011 C 
ATOM     17  C   UNL     1      -8.631   8.719  63.564  0.00  0.00    -0.017 C 
ATOM     18  C   UNL     1     -10.979  11.228  64.014  0.00  0.00    +0.007 C 
ATOM     19  C   UNL     1     -11.840  12.663  66.272  0.00  0.00    +0.033 C 
ATOM     20  C   UNL     1      -9.850  13.907  66.298  0.00  0.00    +0.003 C 
ATOM     21  C   UNL     1      -8.487  12.122  66.984  0.00  0.00    +0.038 C 
ATOM     22  C   UNL     1     -12.113  12.831  67.891  0.00  0.00    +0.149 C 
ATOM     23  O   UNL     1     -12.105  11.339  68.161  0.00  0.00    -0.334 OA
ATOM     24  C   UNL     1     -11.521  11.291  69.409  0.00  0.00    +0.187 C 
ATOM     25  C   UNL     1     -12.513  11.375  70.524  0.00  0.00    +0.056 C 
ATOM     26  C   UNL     1     -12.416  10.118  71.342  0.00  0.00    +0.005 C 
ATOM     27  C   UNL     1     -11.009   9.602  71.069  0.00  0.00    +0.005 C 
ATOM     28  C   UNL     1     -10.913   9.917  69.580  0.00  0.00    +0.056 C 
ATOM     29  O   UNL     1     -10.511  12.226  69.454  0.00  0.00    -0.330 OA
ENDROOT
BRANCH   1  30
ATOM     30  C   UNL     1     -10.502  14.429  68.692  0.00  0.00    +0.221 C 
ATOM     31  O   UNL     1      -9.466  15.005  69.027  0.00  0.00    -0.290 OA
BRANCH  30  32
ATOM     32  C   UNL     1     -11.667  15.335  68.616  0.00  0.00    +0.275 C 
BRANCH  32  33
ATOM     33  O   UNL     1     -11.868  16.108  69.774  0.00  0.00    -0.440 OA
BRANCH  33  35
ATOM     34  C   UNL     1     -11.640  15.345  72.175  0.00  0.00    +0.121 C 
ATOM     35  C   UNL     1     -12.412  15.640  70.951  0.00  0.00    +0.318 C 
ATOM     36  O   UNL     1     -13.681  15.652  70.955  0.00  0.00    -0.250 OA
ENDBRANCH  33  35
ENDBRANCH  32  33
ENDBRANCH  30  32
ENDBRANCH   1  30
TORSDOF 4
ENDMDL
MODEL 7
REMARK VINA RESULT:      -7.8      1.989      4.737
REMARK  Name = 
REMARK  4 active torsions:
REMARK  status: ('A' for Active; 'I' for Inactive)
REMARK    1  A    between atoms: C_2  and  O_4
REMARK    2  A    between atoms: O_4  and  C_5
REMARK    3  A    between atoms: C_5  and  C_6
REMARK    4  A    between atoms: C_6  and  C_8
REMARK                            x       y       z     vdW  Elec       q    Type
REMARK                         _______ _______ _______ _____ _____    ______ ____
ROOT
ATOM      1  C   UNL     1     -10.906  13.591  68.792  0.00  0.00    +0.174 C 
ATOM      2  C   UNL     1     -10.275  14.849  68.834  0.00  0.00    +0.034 C 
ATOM      3  C   UNL     1     -10.130  15.247  67.275  0.00  0.00    +0.008 C 
ATOM      4  C   UNL     1      -9.961  16.863  67.755  0.00  0.00    +0.034 C 
ATOM      5  C   UNL     1      -8.382  16.794  67.469  0.00  0.00    +0.168 C 
ATOM      6  C   UNL     1      -7.852  15.468  68.253  0.00  0.00    +0.182 C 
ATOM      7  O   UNL     1      -7.014  16.227  69.269  0.00  0.00    -0.220 OA
ATOM      8  F   UNL     1      -8.239  16.243  66.184  0.00  0.00    -0.237 F 
ATOM      9  C   UNL     1      -7.708  17.995  67.494  0.00  0.00    +0.064 C 
ATOM     10  C   UNL     1      -8.743  19.093  67.421  0.00  0.00    -0.035 C 
ATOM     11  C   UNL     1      -8.201  20.318  67.358  0.00  0.00    +0.034 C 
ATOM     12  C   UNL     1      -6.802  20.516  66.943  0.00  0.00    +0.195 C 
ATOM     13  C   UNL     1      -6.330  19.448  66.046  0.00  0.00    +0.038 C 
ATOM     14  O   UNL     1      -6.307  21.675  66.794  0.00  0.00    -0.287 OA
ATOM     15  C   UNL     1     -10.018  18.945  66.650  0.00  0.00    +0.023 C 
ATOM     16  C   UNL     1      -6.745  18.471  68.523  0.00  0.00    +0.011 C 
ATOM     17  C   UNL     1      -6.942  18.274  66.220  0.00  0.00    -0.017 C 
ATOM     18  C   UNL     1     -10.317  17.490  66.306  0.00  0.00    +0.007 C 
ATOM     19  C   UNL     1     -11.735  15.222  67.170  0.00  0.00    +0.033 C 
ATOM     20  C   UNL     1     -11.351  15.781  69.417  0.00  0.00    +0.003 C 
ATOM     21  C   UNL     1      -9.055  15.292  69.373  0.00  0.00    +0.038 C 
ATOM     22  C   UNL     1     -11.883  13.606  67.467  0.00  0.00    +0.149 C 
ATOM     23  O   UNL     1     -10.738  13.219  66.552  0.00  0.00    -0.334 OA
ATOM     24  C   UNL     1     -10.195  12.149  67.231  0.00  0.00    +0.187 C 
ATOM     25  C   UNL     1     -10.802  10.839  66.841  0.00  0.00    +0.056 C 
ATOM     26  C   UNL     1      -9.721   9.964  66.273  0.00  0.00    +0.005 C 
ATOM     27  C   UNL     1      -8.436  10.522  66.873  0.00  0.00    +0.005 C 
ATOM     28  C   UNL     1      -8.753  12.011  66.798  0.00  0.00    +0.056 C 
ATOM     29  O   UNL     1     -10.224  12.427  68.580  0.00  0.00    -0.330 OA
ENDROOT
BRANCH   1  30
ATOM     30  C   UNL     1     -11.937  13.354  69.860  0.00  0.00    +0.221 C 
ATOM     31  O   UNL     1     -12.083  12.260  70.406  0.00  0.00    -0.290 OA
BRANCH  30  32
ATOM     32  C   UNL     1     -12.807  14.404  70.431  0.00  0.00    +0.275 C 
BRANCH  32  33
ATOM     33  O   UNL     1     -13.259  14.127  71.734  0.00  0.00    -0.440 OA
BRANCH  33  35
ATOM     34  C   UNL     1     -12.490  15.235  73.873  0.00  0.00    +0.121 C 
ATOM     35  C   UNL     1     -13.412  15.064  72.732  0.00  0.00    +0.318 C 
ATOM     36  O   UNL     1     -14.330  15.906  72.492  0.00  0.00    -0.250 OA
ENDBRANCH  33  35
ENDBRANCH  32  33
ENDBRANCH  30  32
ENDBRANCH   1  30
TORSDOF 4
ENDMDL
MODEL 8
REMARK VINA RESULT:      -7.6      2.261      4.958
REMARK  Name = 
REMARK  4 active torsions:
REMARK  status: ('A' for Active; 'I' for Inactive)
REMARK    1  A    between atoms: C_2  and  O_4
REMARK    2  A    between atoms: O_4  and  C_5
REMARK    3  A    between atoms: C_5  and  C_6
REMARK    4  A    between atoms: C_6  and  C_8
REMARK                            x       y       z     vdW  Elec       q    Type
REMARK                         _______ _______ _______ _____ _____    ______ ____
ROOT
ATOM      1  C   UNL     1     -10.435  15.356  68.558  0.00  0.00    +0.174 C 
ATOM      2  C   UNL     1      -9.369  16.274  68.616  0.00  0.00    +0.034 C 
ATOM      3  C   UNL     1      -9.082  16.614  67.063  0.00  0.00    +0.008 C 
ATOM      4  C   UNL     1      -8.305  18.032  67.568  0.00  0.00    +0.034 C 
ATOM      5  C   UNL     1      -6.874  17.367  67.271  0.00  0.00    +0.168 C 
ATOM      6  C   UNL     1      -6.894  15.925  68.029  0.00  0.00    +0.182 C 
ATOM      7  O   UNL     1      -5.829  16.286  69.051  0.00  0.00    -0.220 OA
ATOM      8  F   UNL     1      -6.954  16.826  65.975  0.00  0.00    -0.237 F 
ATOM      9  C   UNL     1      -5.791  18.217  67.311  0.00  0.00    +0.064 C 
ATOM     10  C   UNL     1      -6.324  19.629  67.262  0.00  0.00    -0.035 C 
ATOM     11  C   UNL     1      -5.353  20.552  67.216  0.00  0.00    +0.034 C 
ATOM     12  C   UNL     1      -3.985  20.205  66.794  0.00  0.00    +0.195 C 
ATOM     13  C   UNL     1      -3.960  19.054  65.877  0.00  0.00    +0.038 C 
ATOM     14  O   UNL     1      -3.083  21.088  66.661  0.00  0.00    -0.287 OA
ATOM     15  C   UNL     1      -7.559  19.996  66.498  0.00  0.00    +0.023 C 
ATOM     16  C   UNL     1      -4.718  18.268  68.341  0.00  0.00    +0.011 C 
ATOM     17  C   UNL     1      -4.976  18.203  66.036  0.00  0.00    -0.017 C 
ATOM     18  C   UNL     1      -8.393  18.774  66.132  0.00  0.00    +0.007 C 
ATOM     19  C   UNL     1     -10.574  17.209  66.969  0.00  0.00    +0.033 C 
ATOM     20  C   UNL     1     -10.004  17.538  69.221  0.00  0.00    +0.003 C 
ATOM     21  C   UNL     1      -8.072  16.205  69.154  0.00  0.00    +0.038 C 
ATOM     22  C   UNL     1     -11.331  15.769  67.240  0.00  0.00    +0.149 C 
ATOM     23  O   UNL     1     -10.423  14.989  66.311  0.00  0.00    -0.334 OA
ATOM     24  C   UNL     1     -10.333  13.780  66.969  0.00  0.00    +0.187 C 
ATOM     25  C   UNL     1     -11.396  12.811  66.561  0.00  0.00    +0.056 C 
ATOM     26  C   UNL     1     -10.734  11.598  65.971  0.00  0.00    +0.005 C 
ATOM     27  C   UNL     1      -9.334  11.609  66.571  0.00  0.00    +0.005 C 
ATOM     28  C   UNL     1      -9.055  13.107  66.523  0.00  0.00    +0.056 C 
ATOM     29  O   UNL     1     -10.253  14.023  68.322  0.00  0.00    -0.330 OA
ENDROOT
BRANCH   1  30
ATOM     30  C   UNL     1     -11.478  15.515  69.629  0.00  0.00    +0.221 C 
ATOM     31  O   UNL     1     -12.609  15.939  69.390  0.00  0.00    -0.290 OA
BRANCH  30  32
ATOM     32  C   UNL     1     -11.301  15.100  71.036  0.00  0.00    +0.275 C 
BRANCH  32  33
ATOM     33  O   UNL     1     -11.762  16.044  71.973  0.00  0.00    -0.440 OA
BRANCH  33  35
ATOM     34  C   UNL     1     -12.437  15.605  74.370  0.00  0.00    +0.121 C 
ATOM     35  C   UNL     1     -12.719  15.800  72.933  0.00  0.00    +0.318 C 
ATOM     36  O   UNL     1     -13.905  15.937  72.504  0.00  0.00    -0.250 OA
ENDBRANCH  33  35
ENDBRANCH  32  33
ENDBRANCH  30  32
ENDBRANCH   1  30
TORSDOF 4
ENDMDL
MODEL 9
REMARK VINA RESULT:      -7.5      3.788      5.589
REMARK  Name = 
REMARK  4 active torsions:
REMARK  status: ('A' for Active; 'I' for Inactive)
REMARK    1  A    between atoms: C_2  and  O_4
REMARK    2  A    between atoms: O_4  and  C_5
REMARK    3  A    between atoms: C_5  and  C_6
REMARK    4  A    between atoms: C_6  and  C_8
REMARK                            x       y       z     vdW  Elec       q    Type
REMARK                         _______ _______ _______ _____ _____    ______ ____
ROOT
ATOM      1  C   UNL     1      -9.774   8.887  68.389  0.00  0.00    +0.174 C 
ATOM      2  C   UNL     1      -9.848  10.101  67.679  0.00  0.00    +0.034 C 
ATOM      3  C   UNL     1      -9.367  11.198  68.764  0.00  0.00    +0.008 C 
ATOM      4  C   UNL     1      -9.026  12.246  67.478  0.00  0.00    +0.034 C 
ATOM      5  C   UNL     1     -10.350  13.095  67.803  0.00  0.00    +0.168 C 
ATOM      6  C   UNL     1     -11.557  12.005  67.898  0.00  0.00    +0.182 C 
ATOM      7  O   UNL     1     -12.289  12.494  66.659  0.00  0.00    -0.220 OA
ATOM      8  F   UNL     1     -10.317  13.362  69.184  0.00  0.00    -0.237 F 
ATOM      9  C   UNL     1     -10.478  14.296  67.141  0.00  0.00    +0.064 C 
ATOM     10  C   UNL     1      -9.125  14.640  66.564  0.00  0.00    -0.035 C 
ATOM     11  C   UNL     1      -9.104  15.835  65.959  0.00  0.00    +0.034 C 
ATOM     12  C   UNL     1     -10.129  16.854  66.239  0.00  0.00    +0.195 C 
ATOM     13  C   UNL     1     -10.697  16.716  67.591  0.00  0.00    +0.038 C 
ATOM     14  O   UNL     1     -10.068  18.019  65.739  0.00  0.00    -0.287 OA
ATOM     15  C   UNL     1      -7.844  14.274  67.249  0.00  0.00    +0.023 C 
ATOM     16  C   UNL     1     -11.434  14.631  66.051  0.00  0.00    +0.011 C 
ATOM     17  C   UNL     1     -10.670  15.472  68.074  0.00  0.00    -0.017 C 
ATOM     18  C   UNL     1      -8.050  13.218  68.329  0.00  0.00    +0.007 C 
ATOM     19  C   UNL     1      -7.944  10.451  68.815  0.00  0.00    +0.033 C 
ATOM     20  C   UNL     1      -8.714   9.994  66.646  0.00  0.00    +0.003 C 
ATOM     21  C   UNL     1     -10.899  10.766  67.023  0.00  0.00    +0.038 C 
ATOM     22  C   UNL     1      -8.530   9.047  69.454  0.00  0.00    +0.149 C 
ATOM     23  O   UNL     1      -9.415   9.747  70.466  0.00  0.00    -0.334 OA
ATOM     24  C   UNL     1     -10.504   8.901  70.507  0.00  0.00    +0.187 C 
ATOM     25  C   UNL     1     -10.370   7.824  71.536  0.00  0.00    +0.056 C 
ATOM     26  C   UNL     1     -11.491   7.969  72.525  0.00  0.00    +0.005 C 
ATOM     27  C   UNL     1     -12.571   8.722  71.758  0.00  0.00    +0.005 C 
ATOM     28  C   UNL     1     -11.692   9.701  70.989  0.00  0.00    +0.056 C 
ATOM     29  O   UNL     1     -10.762   8.458  69.229  0.00  0.00    -0.330 OA
ENDROOT
BRANCH   1  30
ATOM     30  C   UNL     1      -9.275   7.711  67.596  0.00  0.00    +0.221 C 
ATOM     31  O   UNL     1      -8.235   7.117  67.882  0.00  0.00    -0.290 OA
BRANCH  30  32
ATOM     32  C   UNL     1     -10.005   7.088  66.473  0.00  0.00    +0.275 C 
BRANCH  32  33
ATOM     33  O   UNL     1     -10.645   5.880  66.805  0.00  0.00    -0.440 OA
BRANCH  33  35
ATOM     34  C   UNL     1      -9.488   3.674  67.248  0.00  0.00    +0.121 C 
ATOM     35  C   UNL     1     -10.229   4.630  66.399  0.00  0.00    +0.318 C 
ATOM     36  O   UNL     1     -10.699   4.287  65.272  0.00  0.00    -0.250 OA
ENDBRANCH  33  35
ENDBRANCH  32  33
ENDBRANCH  30  32
ENDBRANCH   1  30
TORSDOF 4
ENDMDL
