MODEL 1
REMARK VINA RESULT:      -7.3      0.000      0.000
REMARK  Name = 
REMARK  0 active torsions:
REMARK  status: ('A' for Active; 'I' for Inactive)
REMARK                            x       y       z     vdW  Elec       q    Type
REMARK                         _______ _______ _______ _____ _____    ______ ____
ROOT
ATOM      1  C   UNL     1      -9.950  17.447  68.505  0.00  0.00    +0.090 C 
ATOM      2  N   UNL     1     -10.370  17.178  68.321  0.00  0.00    -0.271 NA
ATOM      3  C   UNL     1     -11.035  16.359  69.283  0.00  0.00    +0.077 C 
ATOM      4  C   UNL     1     -11.693  15.207  68.338  0.00  0.00    +0.047 C 
ATOM      5  C   UNL     1     -10.133  14.901  67.698  0.00  0.00    +0.047 C 
ATOM      6  C   UNL     1     -10.737  14.216  66.382  0.00  0.00    +0.014 A 
ATOM      7  C   UNL     1     -11.403  12.997  66.510  0.00  0.00    +0.141 A 
ATOM      8  O   UNL     1     -11.638  12.240  67.669  0.00  0.00    -0.454 OA
ATOM      9  C   UNL     1     -11.586  12.738  68.982  0.00  0.00    +0.141 A 
ATOM     10  C   UNL     1     -11.865  11.768  69.936  0.00  0.00    +0.038 A 
ATOM     11  C   UNL     1     -12.514  12.153  71.103  0.00  0.00    +0.015 A 
ATOM     12  C   UNL     1     -12.909  13.469  71.312  0.00  0.00    +0.058 A 
ATOM     13  C   UNL     1     -12.285  14.439  70.540  0.00  0.00    +0.010 A 
ATOM     14 CL   UNL     1     -14.362  13.808  72.245  0.00  0.00    -0.082 Cl
ATOM     15  C   UNL     1     -12.029  12.474  65.383  0.00  0.00    +0.037 A 
ATOM     16  C   UNL     1     -12.392  13.386  64.397  0.00  0.00    +0.003 A 
ATOM     17  C   UNL     1     -11.985  14.711  64.483  0.00  0.00    -0.000 A 
ATOM     18  C   UNL     1     -11.031  15.098  65.418  0.00  0.00    -0.001 A 
ATOM     19  C   UNL     1     -11.518  14.052  69.444  0.00  0.00    +0.015 A 
ATOM     20  C   UNL     1     -10.086  16.436  67.140  0.00  0.00    +0.077 C 
ENDROOT
TORSDOF 0
ENDMDL
MODEL 2
REMARK VINA RESULT:      -6.9      1.765      2.429
REMARK  Name = 
REMARK  0 active torsions:
REMARK  status: ('A' for Active; 'I' for Inactive)
REMARK                            x       y       z     vdW  Elec       q    Type
REMARK                         _______ _______ _______ _____ _____    ______ ____
ROOT
ATOM      1  C   UNL     1     -11.973  15.747  70.455  0.00  0.00    +0.090 C 
ATOM      2  N   UNL     1     -12.214  15.393  70.141  0.00  0.00    -0.271 NA
ATOM      3  C   UNL     1     -12.326  14.077  70.680  0.00  0.00    +0.077 C 
ATOM      4  C   UNL     1     -12.381  13.169  69.329  0.00  0.00    +0.047 C 
ATOM      5  C   UNL     1     -10.918  13.903  68.826  0.00  0.00    +0.047 C 
ATOM      6  C   UNL     1     -11.181  13.527  67.291  0.00  0.00    +0.014 A 
ATOM      7  C   UNL     1     -11.146  12.184  66.918  0.00  0.00    +0.141 A 
ATOM      8  O   UNL     1     -10.903  11.055  67.717  0.00  0.00    -0.454 OA
ATOM      9  C   UNL     1     -11.025  11.016  69.116  0.00  0.00    +0.141 A 
ATOM     10  C   UNL     1     -10.727   9.767  69.646  0.00  0.00    +0.038 A 
ATOM     11  C   UNL     1     -11.409   9.350  70.783  0.00  0.00    +0.015 A 
ATOM     12  C   UNL     1     -12.391  10.140  71.370  0.00  0.00    +0.058 A 
ATOM     13  C   UNL     1     -12.379  11.491  71.052  0.00  0.00    +0.010 A 
ATOM     14 CL   UNL     1     -13.761   9.379  72.171  0.00  0.00    -0.082 Cl
ATOM     15  C   UNL     1     -11.497  11.860  65.611  0.00  0.00    +0.037 A 
ATOM     16  C   UNL     1     -12.324  12.763  64.951  0.00  0.00    +0.003 A 
ATOM     17  C   UNL     1     -12.623  13.990  65.526  0.00  0.00    -0.000 A 
ATOM     18  C   UNL     1     -11.932  14.432  66.650  0.00  0.00    -0.001 A 
ATOM     19  C   UNL     1     -11.590  11.939  69.997  0.00  0.00    +0.015 A 
ATOM     20  C   UNL     1     -11.673  15.353  68.825  0.00  0.00    +0.077 C 
ENDROOT
TORSDOF 0
ENDMDL
MODEL 3
REMARK VINA RESULT:      -6.8      2.720      4.980
REMARK  Name = 
REMARK  0 active torsions:
REMARK  status: ('A' for Active; 'I' for Inactive)
REMARK                            x       y       z     vdW  Elec       q    Type
REMARK                         _______ _______ _______ _____ _____    ______ ____
ROOT
ATOM      1  C   UNL     1     -10.893  13.827  67.244  0.00  0.00    +0.090 C 
ATOM      2  N   UNL     1     -10.796  13.832  67.766  0.00  0.00    -0.271 NA
ATOM      3  C   UNL     1     -10.735  12.547  68.385  0.00  0.00    +0.077 C 
ATOM      4  C   UNL     1     -11.166  12.897  69.916  0.00  0.00    +0.047 C 
ATOM      5  C   UNL     1     -12.590  13.628  69.304  0.00  0.00    +0.047 C 
ATOM      6  C   UNL     1     -12.794  14.496  70.635  0.00  0.00    +0.014 A 
ATOM      7  C   UNL     1     -13.118  13.835  71.820  0.00  0.00    +0.141 A 
ATOM      8  O   UNL     1     -13.301  12.460  72.038  0.00  0.00    -0.454 OA
ATOM      9  C   UNL     1     -12.823  11.439  71.199  0.00  0.00    +0.141 A 
ATOM     10  C   UNL     1     -13.146  10.170  71.661  0.00  0.00    +0.038 A 
ATOM     11  C   UNL     1     -12.257   9.130  71.418  0.00  0.00    +0.015 A 
ATOM     12  C   UNL     1     -11.053   9.345  70.756  0.00  0.00    +0.058 A 
ATOM     13  C   UNL     1     -10.956  10.503  69.998  0.00  0.00    +0.010 A 
ATOM     14 CL   UNL     1      -9.644   8.374  71.168  0.00  0.00    -0.082 Cl
ATOM     15  C   UNL     1     -13.171  14.584  72.992  0.00  0.00    +0.037 A 
ATOM     16  C   UNL     1     -12.426  15.758  73.009  0.00  0.00    +0.003 A 
ATOM     17  C   UNL     1     -11.814  16.219  71.851  0.00  0.00    -0.000 A 
ATOM     18  C   UNL     1     -12.117  15.651  70.618  0.00  0.00    -0.001 A 
ATOM     19  C   UNL     1     -11.922  11.496  70.136  0.00  0.00    +0.015 A 
ATOM     20  C   UNL     1     -11.663  14.699  68.488  0.00  0.00    +0.077 C 
ENDROOT
TORSDOF 0
ENDMDL
MODEL 4
REMARK VINA RESULT:      -6.8      1.806      2.298
REMARK  Name = 
REMARK  0 active torsions:
REMARK  status: ('A' for Active; 'I' for Inactive)
REMARK                            x       y       z     vdW  Elec       q    Type
REMARK                         _______ _______ _______ _____ _____    ______ ____
ROOT
ATOM      1  C   UNL     1     -11.304  15.908  68.381  0.00  0.00    +0.090 C 
ATOM      2  N   UNL     1     -11.549  15.502  68.144  0.00  0.00    -0.271 NA
ATOM      3  C   UNL     1     -11.682  14.323  68.937  0.00  0.00    +0.077 C 
ATOM      4  C   UNL     1     -11.749  13.162  67.796  0.00  0.00    +0.047 C 
ATOM      5  C   UNL     1     -10.273  13.759  67.162  0.00  0.00    +0.047 C 
ATOM      6  C   UNL     1     -10.539  13.085  65.734  0.00  0.00    +0.014 A 
ATOM      7  C   UNL     1     -10.523  11.694  65.639  0.00  0.00    +0.141 A 
ATOM      8  O   UNL     1     -10.299  10.746  66.651  0.00  0.00    -0.454 OA
ATOM      9  C   UNL     1     -10.425  10.991  68.029  0.00  0.00    +0.141 A 
ATOM     10  C   UNL     1     -10.147   9.871  68.801  0.00  0.00    +0.038 A 
ATOM     11  C   UNL     1     -10.837   9.701  69.995  0.00  0.00    +0.015 A 
ATOM     12  C   UNL     1     -11.808  10.607  70.406  0.00  0.00    +0.058 A 
ATOM     13  C   UNL     1     -11.775  11.865  69.822  0.00  0.00    +0.010 A 
ATOM     14 CL   UNL     1     -13.191  10.043  71.337  0.00  0.00    -0.082 Cl
ATOM     15  C   UNL     1     -10.876  11.118  64.423  0.00  0.00    +0.037 A 
ATOM     16  C   UNL     1     -11.688  11.881  63.590  0.00  0.00    +0.003 A 
ATOM     17  C   UNL     1     -11.970  13.203  63.904  0.00  0.00    -0.000 A 
ATOM     18  C   UNL     1     -11.275  13.852  64.920  0.00  0.00    -0.001 A 
ATOM     19  C   UNL     1     -10.977  12.080  68.702  0.00  0.00    +0.015 A 
ATOM     20  C   UNL     1     -11.006  15.190  66.866  0.00  0.00    +0.077 C 
ENDROOT
TORSDOF 0
ENDMDL
MODEL 5
REMARK VINA RESULT:      -6.6      3.733      6.567
REMARK  Name = 
REMARK  0 active torsions:
REMARK  status: ('A' for Active; 'I' for Inactive)
REMARK                            x       y       z     vdW  Elec       q    Type
REMARK                         _______ _______ _______ _____ _____    ______ ____
ROOT
ATOM      1  C   UNL     1      -8.670   8.212  68.154  0.00  0.00    +0.090 C 
ATOM      2  N   UNL     1      -9.190   8.289  68.230  0.00  0.00    -0.271 NA
ATOM      3  C   UNL     1      -9.759   9.372  67.496  0.00  0.00    +0.077 C 
ATOM      4  C   UNL     1     -11.019   9.787  68.441  0.00  0.00    +0.047 C 
ATOM      5  C   UNL     1      -9.928   9.953  69.751  0.00  0.00    +0.047 C 
ATOM      6  C   UNL     1     -11.100   9.790  70.832  0.00  0.00    +0.014 A 
ATOM      7  C   UNL     1     -12.059  10.797  70.933  0.00  0.00    +0.141 A 
ATOM      8  O   UNL     1     -12.162  11.989  70.199  0.00  0.00    -0.454 OA
ATOM      9  C   UNL     1     -11.546  12.230  68.959  0.00  0.00    +0.141 A 
ATOM     10  C   UNL     1     -11.824  13.496  68.459  0.00  0.00    +0.038 A 
ATOM     11  C   UNL     1     -11.914  13.659  67.082  0.00  0.00    +0.015 A 
ATOM     12  C   UNL     1     -11.764  12.584  66.213  0.00  0.00    +0.058 A 
ATOM     13  C   UNL     1     -11.124  11.460  66.716  0.00  0.00    +0.010 A 
ATOM     14 CL   UNL     1     -12.659  12.552  64.698  0.00  0.00    -0.082 Cl
ATOM     15  C   UNL     1     -13.138  10.587  71.785  0.00  0.00    +0.037 A 
ATOM     16  C   UNL     1     -13.462   9.263  72.059  0.00  0.00    +0.003 A 
ATOM     17  C   UNL     1     -12.633   8.234  71.632  0.00  0.00    -0.000 A 
ATOM     18  C   UNL     1     -11.365   8.511  71.129  0.00  0.00    -0.001 A 
ATOM     19  C   UNL     1     -10.906  11.351  68.086  0.00  0.00    +0.015 A 
ATOM     20  C   UNL     1      -9.548   8.369  69.605  0.00  0.00    +0.077 C 
ENDROOT
TORSDOF 0
ENDMDL
MODEL 6
REMARK VINA RESULT:      -6.6      2.798      4.463
REMARK  Name = 
REMARK  0 active torsions:
REMARK  status: ('A' for Active; 'I' for Inactive)
REMARK                            x       y       z     vdW  Elec       q    Type
REMARK                         _______ _______ _______ _____ _____    ______ ____
ROOT
ATOM      1  C   UNL     1     -10.988  11.684  63.541  0.00  0.00    +0.090 C 
ATOM      2  N   UNL     1     -10.739  11.923  63.944  0.00  0.00    -0.271 NA
ATOM      3  C   UNL     1     -10.557  11.120  65.110  0.00  0.00    +0.077 C 
ATOM      4  C   UNL     1     -10.493  12.248  66.283  0.00  0.00    +0.047 C 
ATOM      5  C   UNL     1     -11.999  12.849  65.729  0.00  0.00    +0.047 C 
ATOM      6  C   UNL     1     -11.756  14.276  66.415  0.00  0.00    +0.014 A 
ATOM      7  C   UNL     1     -11.741  14.353  67.807  0.00  0.00    +0.141 A 
ATOM      8  O   UNL     1     -11.915  13.325  68.746  0.00  0.00    -0.454 OA
ATOM      9  C   UNL     1     -11.758  11.954  68.481  0.00  0.00    +0.141 A 
ATOM     10  C   UNL     1     -11.988  11.161  69.598  0.00  0.00    +0.038 A 
ATOM     11  C   UNL     1     -11.262   9.984  69.736  0.00  0.00    +0.015 A 
ATOM     12  C   UNL     1     -10.302   9.610  68.802  0.00  0.00    +0.058 A 
ATOM     13  C   UNL     1     -10.382  10.208  67.552  0.00  0.00    +0.010 A 
ATOM     14 CL   UNL     1      -8.882   8.711  69.322  0.00  0.00    -0.082 Cl
ATOM     15  C   UNL     1     -11.407  15.572  68.390  0.00  0.00    +0.037 A 
ATOM     16  C   UNL     1     -10.636  16.435  67.618  0.00  0.00    +0.003 A 
ATOM     17  C   UNL     1     -10.378  16.145  66.285  0.00  0.00    -0.000 A 
ATOM     18  C   UNL     1     -11.061  15.119  65.640  0.00  0.00    -0.001 A 
ATOM     19  C   UNL     1     -11.214  11.309  67.371  0.00  0.00    +0.015 A 
ATOM     20  C   UNL     1     -11.309  13.182  64.285  0.00  0.00    +0.077 C 
ENDROOT
TORSDOF 0
ENDMDL
MODEL 7
REMARK VINA RESULT:      -6.5      2.563      4.361
REMARK  Name = 
REMARK  0 active torsions:
REMARK  status: ('A' for Active; 'I' for Inactive)
REMARK                            x       y       z     vdW  Elec       q    Type
REMARK                         _______ _______ _______ _____ _____    ______ ____
ROOT
ATOM      1  C   UNL     1     -10.169  12.235  65.601  0.00  0.00    +0.090 C 
ATOM      2  N   UNL     1     -10.048  12.429  66.081  0.00  0.00    -0.271 NA
ATOM      3  C   UNL     1     -10.040  11.474  67.141  0.00  0.00    +0.077 C 
ATOM      4  C   UNL     1     -10.377  12.409  68.431  0.00  0.00    +0.047 C 
ATOM      5  C   UNL     1     -11.779  12.959  67.614  0.00  0.00    +0.047 C 
ATOM      6  C   UNL     1     -11.867  14.279  68.518  0.00  0.00    +0.014 A 
ATOM      7  C   UNL     1     -12.177  14.141  69.871  0.00  0.00    +0.141 A 
ATOM      8  O   UNL     1     -12.436  12.969  70.599  0.00  0.00    -0.454 OA
ATOM      9  C   UNL     1     -12.062  11.673  70.203  0.00  0.00    +0.141 A 
ATOM     10  C   UNL     1     -12.444  10.701  71.118  0.00  0.00    +0.038 A 
ATOM     11  C   UNL     1     -11.634   9.583  71.273  0.00  0.00    +0.015 A 
ATOM     12  C   UNL     1     -10.450   9.439  70.557  0.00  0.00    +0.058 A 
ATOM     13  C   UNL     1     -10.315  10.214  69.414  0.00  0.00    +0.010 A 
ATOM     14 CL   UNL     1      -9.088   8.593  71.281  0.00  0.00    -0.082 Cl
ATOM     15  C   UNL     1     -12.129  15.279  70.670  0.00  0.00    +0.037 A 
ATOM     16  C   UNL     1     -11.311  16.313  70.226  0.00  0.00    +0.003 A 
ATOM     17  C   UNL     1     -10.726  16.254  68.969  0.00  0.00    -0.000 A 
ATOM     18  C   UNL     1     -11.119  15.286  68.050  0.00  0.00    -0.001 A 
ATOM     19  C   UNL     1     -11.209  11.255  69.182  0.00  0.00    +0.015 A 
ATOM     20  C   UNL     1     -10.825  13.568  66.435  0.00  0.00    +0.077 C 
ENDROOT
TORSDOF 0
ENDMDL
MODEL 8
REMARK VINA RESULT:      -6.5      3.501      5.404
REMARK  Name = 
REMARK  0 active torsions:
REMARK  status: ('A' for Active; 'I' for Inactive)
REMARK                            x       y       z     vdW  Elec       q    Type
REMARK                         _______ _______ _______ _____ _____    ______ ____
ROOT
ATOM      1  C   UNL     1      -5.797  15.523  67.675  0.00  0.00    +0.090 C 
ATOM      2  N   UNL     1      -6.275  15.689  67.836  0.00  0.00    -0.271 NA
ATOM      3  C   UNL     1      -7.371  14.867  67.436  0.00  0.00    +0.077 C 
ATOM      4  C   UNL     1      -8.596  15.939  67.405  0.00  0.00    +0.047 C 
ATOM      5  C   UNL     1      -7.661  16.913  66.349  0.00  0.00    +0.047 C 
ATOM      6  C   UNL     1      -8.503  18.227  66.711  0.00  0.00    +0.014 A 
ATOM      7  C   UNL     1      -9.836  18.298  66.305  0.00  0.00    +0.141 A 
ATOM      8  O   UNL     1     -10.590  17.352  65.594  0.00  0.00    -0.454 OA
ATOM      9  C   UNL     1     -10.273  15.987  65.480  0.00  0.00    +0.141 A 
ATOM     10  C   UNL     1     -11.198  15.283  64.720  0.00  0.00    +0.038 A 
ATOM     11  C   UNL     1     -11.454  13.957  65.049  0.00  0.00    +0.015 A 
ATOM     12  C   UNL     1     -10.829  13.345  66.130  0.00  0.00    +0.058 A 
ATOM     13  C   UNL     1      -9.668  13.942  66.600  0.00  0.00    +0.010 A 
ATOM     14 CL   UNL     1     -11.680  12.105  67.044  0.00  0.00    -0.082 Cl
ATOM     15  C   UNL     1     -10.590  19.387  66.731  0.00  0.00    +0.037 A 
ATOM     16  C   UNL     1     -10.163  20.018  67.894  0.00  0.00    +0.003 A 
ATOM     17  C   UNL     1      -8.953  19.670  68.479  0.00  0.00    -0.000 A 
ATOM     18  C   UNL     1      -8.049  18.858  67.801  0.00  0.00    -0.001 A 
ATOM     19  C   UNL     1      -9.332  15.222  66.168  0.00  0.00    +0.015 A 
ATOM     20  C   UNL     1      -6.529  17.054  67.520  0.00  0.00    +0.077 C 
ENDROOT
TORSDOF 0
ENDMDL
MODEL 9
REMARK VINA RESULT:      -6.4      2.812      4.747
REMARK  Name = 
REMARK  0 active torsions:
REMARK  status: ('A' for Active; 'I' for Inactive)
REMARK                            x       y       z     vdW  Elec       q    Type
REMARK                         _______ _______ _______ _____ _____    ______ ____
ROOT
ATOM      1  C   UNL     1     -11.963  14.808  70.849  0.00  0.00    +0.090 C 
ATOM      2  N   UNL     1     -11.579  14.728  70.491  0.00  0.00    -0.271 NA
ATOM      3  C   UNL     1     -10.867  15.899  70.092  0.00  0.00    +0.077 C 
ATOM      4  C   UNL     1     -10.369  15.490  68.596  0.00  0.00    +0.047 C 
ATOM      5  C   UNL     1     -11.998  15.144  68.194  0.00  0.00    +0.047 C 
ATOM      6  C   UNL     1     -11.565  14.204  66.971  0.00  0.00    +0.014 A 
ATOM      7  C   UNL     1     -10.957  14.791  65.861  0.00  0.00    +0.141 A 
ATOM      8  O   UNL     1     -10.650  16.143  65.639  0.00  0.00    -0.454 OA
ATOM      9  C   UNL     1     -10.545  17.123  66.642  0.00  0.00    +0.141 A 
ATOM     10  C   UNL     1     -10.227  18.376  66.136  0.00  0.00    +0.038 A 
ATOM     11  C   UNL     1      -9.447  19.225  66.912  0.00  0.00    +0.015 A 
ATOM     12  C   UNL     1      -8.962  18.831  68.154  0.00  0.00    +0.058 A 
ATOM     13  C   UNL     1      -9.606  17.764  68.765  0.00  0.00    +0.010 A 
ATOM     14 CL   UNL     1      -7.408  19.434  68.718  0.00  0.00    -0.082 Cl
ATOM     15  C   UNL     1     -10.474  13.953  64.861  0.00  0.00    +0.037 A 
ATOM     16  C   UNL     1     -10.161  12.652  65.243  0.00  0.00    +0.003 A 
ATOM     17  C   UNL     1     -10.485  12.196  66.513  0.00  0.00    -0.000 A 
ATOM     18  C   UNL     1     -11.320  12.941  67.341  0.00  0.00    -0.001 A 
ATOM     19  C   UNL     1     -10.497  16.989  68.029  0.00  0.00    +0.015 A 
ATOM     20  C   UNL     1     -12.017  13.993  69.354  0.00  0.00    +0.077 C 
ENDROOT
TORSDOF 0
ENDMDL
