MODEL 1
REMARK VINA RESULT:      -5.6      0.000      0.000
REMARK  Name = 
REMARK  3 active torsions:
REMARK  status: ('A' for Active; 'I' for Inactive)
REMARK    1  A    between atoms: C_5  and  C_6
REMARK    2  A    between atoms: C_6  and  C_7
REMARK    3  A    between atoms: C_6  and  C_14
REMARK                            x       y       z     vdW  Elec       q    Type
REMARK                         _______ _______ _______ _____ _____    ______ ____
ROOT
ATOM      1  C   UNL     1     -11.400  15.098  67.871  0.00  0.00    +0.076 C 
ENDROOT
BRANCH   1   6
ATOM      2 CL   UNL     1     -14.070  15.622  72.561  0.00  0.00    -0.082 Cl
ATOM      3  C   UNL     1     -12.821  15.169  71.714  0.00  0.00    +0.058 A 
ATOM      4  C   UNL     1     -11.824  16.067  71.359  0.00  0.00    +0.011 A 
ATOM      5  C   UNL     1     -11.063  15.855  70.215  0.00  0.00    -0.003 A 
ATOM      6  C   UNL     1     -11.193  14.702  69.446  0.00  0.00    -0.016 A 
ATOM      7  C   UNL     1     -12.102  13.792  69.924  0.00  0.00    -0.003 A 
ATOM      8  C   UNL     1     -12.648  13.889  71.198  0.00  0.00    +0.011 A 
ENDBRANCH   1   6
BRANCH   1   9
ATOM      9  C   UNL     1     -10.849  13.672  67.311  0.00  0.00    -0.005 A 
ATOM     10  C   UNL     1     -11.675  13.043  66.420  0.00  0.00    +0.054 A 
ATOM     11 CL   UNL     1     -12.842  13.951  65.464  0.00  0.00    -0.083 Cl
ATOM     12  C   UNL     1     -11.319  11.741  66.087  0.00  0.00    +0.011 A 
ATOM     13  C   UNL     1     -10.203  11.140  66.656  0.00  0.00    +0.001 A 
ATOM     14  C   UNL     1      -9.340  11.918  67.420  0.00  0.00    -0.000 A 
ATOM     15  C   UNL     1      -9.697  13.199  67.828  0.00  0.00    -0.003 A 
ENDBRANCH   1   9
BRANCH   1  16
ATOM     16  C   UNL     1      -9.911  15.806  67.689  0.00  0.00    +0.167 C 
ATOM     17 CL   UNL     1      -9.563  15.603  65.976  0.00  0.00    -0.096 Cl
ATOM     18 CL   UNL     1      -9.871  17.388  68.307  0.00  0.00    -0.096 Cl
ENDBRANCH   1  16
TORSDOF 3
ENDMDL
MODEL 2
REMARK VINA RESULT:      -5.5      2.159      3.443
REMARK  Name = 
REMARK  3 active torsions:
REMARK  status: ('A' for Active; 'I' for Inactive)
REMARK    1  A    between atoms: C_5  and  C_6
REMARK    2  A    between atoms: C_6  and  C_7
REMARK    3  A    between atoms: C_6  and  C_14
REMARK                            x       y       z     vdW  Elec       q    Type
REMARK                         _______ _______ _______ _____ _____    ______ ____
ROOT
ATOM      1  C   UNL     1     -10.721  13.036  68.717  0.00  0.00    +0.076 C 
ENDROOT
BRANCH   1   6
ATOM      2 CL   UNL     1     -12.051  15.653  73.277  0.00  0.00    -0.082 Cl
ATOM      3  C   UNL     1     -12.394  15.086  71.847  0.00  0.00    +0.058 A 
ATOM      4  C   UNL     1     -12.746  13.756  71.662  0.00  0.00    +0.011 A 
ATOM      5  C   UNL     1     -12.509  13.131  70.443  0.00  0.00    -0.003 A 
ATOM      6  C   UNL     1     -12.013  13.823  69.342  0.00  0.00    -0.016 A 
ATOM      7  C   UNL     1     -11.810  15.165  69.551  0.00  0.00    -0.003 A 
ATOM      8  C   UNL     1     -12.304  15.823  70.671  0.00  0.00    +0.011 A 
ENDBRANCH   1   6
BRANCH   1   9
ATOM      9  C   UNL     1     -10.965  13.580  67.203  0.00  0.00    -0.005 A 
ATOM     10  C   UNL     1      -9.885  14.194  66.629  0.00  0.00    +0.054 A 
ATOM     11 CL   UNL     1      -8.246  13.839  67.164  0.00  0.00    -0.083 Cl
ATOM     12  C   UNL     1     -10.132  14.838  65.422  0.00  0.00    +0.011 A 
ATOM     13  C   UNL     1     -11.408  14.855  64.872  0.00  0.00    +0.001 A 
ATOM     14  C   UNL     1     -12.396  14.063  65.446  0.00  0.00    -0.000 A 
ATOM     15  C   UNL     1     -12.204  13.463  66.687  0.00  0.00    -0.003 A 
ENDBRANCH   1   9
BRANCH   1  16
ATOM     16  C   UNL     1     -11.535  11.625  68.400  0.00  0.00    +0.167 C 
ATOM     17 CL   UNL     1     -10.650  10.935  67.044  0.00  0.00    -0.096 Cl
ATOM     18 CL   UNL     1     -11.710  10.658  69.786  0.00  0.00    -0.096 Cl
ENDBRANCH   1  16
TORSDOF 3
ENDMDL
MODEL 3
REMARK VINA RESULT:      -5.4      2.427      4.207
REMARK  Name = 
REMARK  3 active torsions:
REMARK  status: ('A' for Active; 'I' for Inactive)
REMARK    1  A    between atoms: C_5  and  C_6
REMARK    2  A    between atoms: C_6  and  C_7
REMARK    3  A    between atoms: C_6  and  C_14
REMARK                            x       y       z     vdW  Elec       q    Type
REMARK                         _______ _______ _______ _____ _____    ______ ____
ROOT
ATOM      1  C   UNL     1     -10.436  13.323  67.402  0.00  0.00    +0.076 C 
ENDROOT
BRANCH   1   6
ATOM      2 CL   UNL     1      -9.062  18.552  67.828  0.00  0.00    -0.082 Cl
ATOM      3  C   UNL     1     -10.077  17.405  67.453  0.00  0.00    +0.058 A 
ATOM      4  C   UNL     1     -10.868  16.797  68.418  0.00  0.00    +0.011 A 
ATOM      5  C   UNL     1     -11.316  15.493  68.239  0.00  0.00    -0.003 A 
ATOM      6  C   UNL     1     -11.083  14.788  67.061  0.00  0.00    -0.016 A 
ATOM      7  C   UNL     1     -10.408  15.491  66.094  0.00  0.00    -0.003 A 
ATOM      8  C   UNL     1     -10.211  16.864  66.179  0.00  0.00    +0.011 A 
ENDBRANCH   1   6
BRANCH   1   9
ATOM      9  C   UNL     1     -10.939  12.639  66.013  0.00  0.00    -0.005 A 
ATOM     10  C   UNL     1      -9.980  11.941  65.333  0.00  0.00    +0.054 A 
ATOM     11 CL   UNL     1      -8.579  11.272  66.165  0.00  0.00    -0.083 Cl
ATOM     12  C   UNL     1     -10.334  11.521  64.055  0.00  0.00    +0.011 A 
ATOM     13  C   UNL     1     -11.582  11.828  63.526  0.00  0.00    +0.001 A 
ATOM     14  C   UNL     1     -12.541  12.396  64.357  0.00  0.00    -0.000 A 
ATOM     15  C   UNL     1     -12.202  12.888  65.614  0.00  0.00    -0.003 A 
ENDBRANCH   1   9
BRANCH   1  16
ATOM     16  C   UNL     1     -11.760  12.754  68.225  0.00  0.00    +0.167 C 
ATOM     17 CL   UNL     1     -11.611  11.006  68.087  0.00  0.00    -0.096 Cl
ATOM     18 CL   UNL     1     -11.872  13.403  69.790  0.00  0.00    -0.096 Cl
ENDBRANCH   1  16
TORSDOF 3
ENDMDL
MODEL 4
REMARK VINA RESULT:      -5.3      1.869      4.177
REMARK  Name = 
REMARK  3 active torsions:
REMARK  status: ('A' for Active; 'I' for Inactive)
REMARK    1  A    between atoms: C_5  and  C_6
REMARK    2  A    between atoms: C_6  and  C_7
REMARK    3  A    between atoms: C_6  and  C_14
REMARK                            x       y       z     vdW  Elec       q    Type
REMARK                         _______ _______ _______ _____ _____    ______ ____
ROOT
ATOM      1  C   UNL     1     -10.161  14.638  68.955  0.00  0.00    +0.076 C 
ENDROOT
BRANCH   1   6
ATOM      2 CL   UNL     1     -12.291  14.816  73.939  0.00  0.00    -0.082 Cl
ATOM      3  C   UNL     1     -12.378  15.028  72.380  0.00  0.00    +0.058 A 
ATOM      4  C   UNL     1     -12.663  13.974  71.522  0.00  0.00    +0.011 A 
ATOM      5  C   UNL     1     -12.212  13.998  70.207  0.00  0.00    -0.003 A 
ATOM      6  C   UNL     1     -11.558  15.104  69.671  0.00  0.00    -0.016 A 
ATOM      7  C   UNL     1     -11.424  16.165  70.532  0.00  0.00    -0.003 A 
ATOM      8  C   UNL     1     -12.112  16.232  71.737  0.00  0.00    +0.011 A 
ENDBRANCH   1   6
BRANCH   1   9
ATOM      9  C   UNL     1      -9.785  16.133  68.433  0.00  0.00    -0.005 A 
ATOM     10  C   UNL     1      -8.548  16.581  68.809  0.00  0.00    +0.054 A 
ATOM     11 CL   UNL     1      -7.254  15.455  69.205  0.00  0.00    -0.083 Cl
ATOM     12  C   UNL     1      -8.289  17.921  68.546  0.00  0.00    +0.011 A 
ATOM     13  C   UNL     1      -9.254  18.731  67.957  0.00  0.00    +0.001 A 
ATOM     14  C   UNL     1     -10.412  18.141  67.464  0.00  0.00    -0.000 A 
ATOM     15  C   UNL     1     -10.733  16.822  67.768  0.00  0.00    -0.003 A 
ENDBRANCH   1   9
BRANCH   1  16
ATOM     16  C   UNL     1     -10.854  14.246  67.499  0.00  0.00    +0.167 C 
ATOM     17 CL   UNL     1      -9.492  14.222  66.386  0.00  0.00    -0.096 Cl
ATOM     18 CL   UNL     1     -11.802  12.839  67.596  0.00  0.00    -0.096 Cl
ENDBRANCH   1  16
TORSDOF 3
ENDMDL
MODEL 5
REMARK VINA RESULT:      -5.2      2.441      4.945
REMARK  Name = 
REMARK  3 active torsions:
REMARK  status: ('A' for Active; 'I' for Inactive)
REMARK    1  A    between atoms: C_5  and  C_6
REMARK    2  A    between atoms: C_6  and  C_7
REMARK    3  A    between atoms: C_6  and  C_14
REMARK                            x       y       z     vdW  Elec       q    Type
REMARK                         _______ _______ _______ _____ _____    ______ ____
ROOT
ATOM      1  C   UNL     1      -9.259  16.168  68.450  0.00  0.00    +0.076 C 
ENDROOT
BRANCH   1   6
ATOM      2 CL   UNL     1     -12.640  12.958  71.220  0.00  0.00    -0.082 Cl
ATOM      3  C   UNL     1     -12.350  14.137  70.214  0.00  0.00    +0.058 A 
ATOM      4  C   UNL     1     -12.075  13.893  68.875  0.00  0.00    +0.011 A 
ATOM      5  C   UNL     1     -11.305  14.789  68.142  0.00  0.00    -0.003 A 
ATOM      6  C   UNL     1     -10.871  15.999  68.677  0.00  0.00    -0.016 A 
ATOM      7  C   UNL     1     -11.288  16.241  69.963  0.00  0.00    -0.003 A 
ATOM      8  C   UNL     1     -12.271  15.476  70.579  0.00  0.00    +0.011 A 
ENDBRANCH   1   6
BRANCH   1   9
ATOM      9  C   UNL     1      -9.371  17.698  67.904  0.00  0.00    -0.005 A 
ATOM     10  C   UNL     1      -8.433  18.559  68.404  0.00  0.00    +0.054 A 
ATOM     11 CL   UNL     1      -6.887  17.971  69.008  0.00  0.00    -0.083 Cl
ATOM     12  C   UNL     1      -8.633  19.903  68.108  0.00  0.00    +0.011 A 
ATOM     13  C   UNL     1      -9.736  20.312  67.368  0.00  0.00    +0.001 A 
ATOM     14  C   UNL     1     -10.536  19.347  66.768  0.00  0.00    -0.000 A 
ATOM     15  C   UNL     1     -10.407  18.000  67.096  0.00  0.00    -0.003 A 
ENDBRANCH   1   9
BRANCH   1  16
ATOM     16  C   UNL     1      -9.254  15.560  66.905  0.00  0.00    +0.167 C 
ATOM     17 CL   UNL     1      -8.073  16.563  66.071  0.00  0.00    -0.096 Cl
ATOM     18 CL   UNL     1      -9.005  13.880  66.876  0.00  0.00    -0.096 Cl
ENDBRANCH   1  16
TORSDOF 3
ENDMDL
MODEL 6
REMARK VINA RESULT:      -5.1      2.358      5.391
REMARK  Name = 
REMARK  3 active torsions:
REMARK  status: ('A' for Active; 'I' for Inactive)
REMARK    1  A    between atoms: C_5  and  C_6
REMARK    2  A    between atoms: C_6  and  C_7
REMARK    3  A    between atoms: C_6  and  C_14
REMARK                            x       y       z     vdW  Elec       q    Type
REMARK                         _______ _______ _______ _____ _____    ______ ____
ROOT
ATOM      1  C   UNL     1     -10.855  15.558  67.026  0.00  0.00    +0.076 C 
ENDROOT
BRANCH   1   6
ATOM      2 CL   UNL     1     -12.664  11.998  63.357  0.00  0.00    -0.082 Cl
ATOM      3  C   UNL     1     -11.687  12.426  64.517  0.00  0.00    +0.058 A 
ATOM      4  C   UNL     1     -12.060  12.325  65.850  0.00  0.00    +0.011 A 
ATOM      5  C   UNL     1     -11.496  13.166  66.803  0.00  0.00    -0.003 A 
ATOM      6  C   UNL     1     -10.476  14.059  66.487  0.00  0.00    -0.016 A 
ATOM      7  C   UNL     1     -10.060  14.018  65.179  0.00  0.00    -0.003 A 
ATOM      8  C   UNL     1     -10.435  12.996  64.315  0.00  0.00    +0.011 A 
ENDBRANCH   1   6
BRANCH   1   9
ATOM      9  C   UNL     1      -9.315  16.084  67.023  0.00  0.00    -0.005 A 
ATOM     10  C   UNL     1      -9.116  17.284  66.397  0.00  0.00    +0.054 A 
ATOM     11 CL   UNL     1     -10.425  18.450  66.226  0.00  0.00    -0.083 Cl
ATOM     12  C   UNL     1      -7.788  17.652  66.209  0.00  0.00    +0.011 A 
ATOM     13  C   UNL     1      -6.754  16.820  66.623  0.00  0.00    +0.001 A 
ATOM     14  C   UNL     1      -7.060  15.705  67.395  0.00  0.00    -0.000 A 
ATOM     15  C   UNL     1      -8.374  15.272  67.544  0.00  0.00    -0.003 A 
ENDBRANCH   1   9
BRANCH   1  16
ATOM     16  C   UNL     1     -10.776  15.170  68.637  0.00  0.00    +0.167 C 
ATOM     17 CL   UNL     1     -10.544  16.726  69.426  0.00  0.00    -0.096 Cl
ATOM     18 CL   UNL     1     -12.103  14.236  69.140  0.00  0.00    -0.096 Cl
ENDBRANCH   1  16
TORSDOF 3
ENDMDL
MODEL 7
REMARK VINA RESULT:      -5.1      1.989      5.042
REMARK  Name = 
REMARK  3 active torsions:
REMARK  status: ('A' for Active; 'I' for Inactive)
REMARK    1  A    between atoms: C_5  and  C_6
REMARK    2  A    between atoms: C_6  and  C_7
REMARK    3  A    between atoms: C_6  and  C_14
REMARK                            x       y       z     vdW  Elec       q    Type
REMARK                         _______ _______ _______ _____ _____    ______ ____
ROOT
ATOM      1  C   UNL     1      -9.978  13.537  68.172  0.00  0.00    +0.076 C 
ENDROOT
BRANCH   1   6
ATOM      2 CL   UNL     1     -12.658  12.187  63.655  0.00  0.00    -0.082 Cl
ATOM      3  C   UNL     1     -12.025  13.249  64.633  0.00  0.00    +0.058 A 
ATOM      4  C   UNL     1     -10.670  13.550  64.593  0.00  0.00    +0.011 A 
ATOM      5  C   UNL     1     -10.020  14.013  65.732  0.00  0.00    -0.003 A 
ATOM      6  C   UNL     1     -10.705  14.288  66.912  0.00  0.00    -0.016 A 
ATOM      7  C   UNL     1     -12.063  14.095  66.847  0.00  0.00    -0.003 A 
ATOM      8  C   UNL     1     -12.726  13.900  65.641  0.00  0.00    +0.011 A 
ENDBRANCH   1   6
BRANCH   1   9
ATOM      9  C   UNL     1     -10.891  14.275  69.299  0.00  0.00    -0.005 A 
ATOM     10  C   UNL     1     -11.899  13.510  69.817  0.00  0.00    +0.054 A 
ATOM     11 CL   UNL     1     -11.809  11.751  69.798  0.00  0.00    -0.083 Cl
ATOM     12  C   UNL     1     -12.807  14.181  70.629  0.00  0.00    +0.011 A 
ATOM     13  C   UNL     1     -12.682  15.546  70.860  0.00  0.00    +0.001 A 
ATOM     14  C   UNL     1     -11.533  16.196  70.425  0.00  0.00    -0.000 A 
ATOM     15  C   UNL     1     -10.641  15.575  69.556  0.00  0.00    -0.003 A 
ENDBRANCH   1   9
BRANCH   1  16
ATOM     16  C   UNL     1      -8.765  14.657  68.344  0.00  0.00    +0.167 C 
ATOM     17 CL   UNL     1      -7.361  13.683  68.764  0.00  0.00    -0.096 Cl
ATOM     18 CL   UNL     1      -8.629  15.671  66.988  0.00  0.00    -0.096 Cl
ENDBRANCH   1  16
TORSDOF 3
ENDMDL
MODEL 8
REMARK VINA RESULT:      -4.9      2.794      5.325
REMARK  Name = 
REMARK  3 active torsions:
REMARK  status: ('A' for Active; 'I' for Inactive)
REMARK    1  A    between atoms: C_5  and  C_6
REMARK    2  A    between atoms: C_6  and  C_7
REMARK    3  A    between atoms: C_6  and  C_14
REMARK                            x       y       z     vdW  Elec       q    Type
REMARK                         _______ _______ _______ _____ _____    ______ ____
ROOT
ATOM      1  C   UNL     1     -11.692  12.240  67.616  0.00  0.00    +0.076 C 
ENDROOT
BRANCH   1   6
ATOM      2 CL   UNL     1     -10.969   6.914  66.891  0.00  0.00    -0.082 Cl
ATOM      3  C   UNL     1     -10.427   8.366  67.181  0.00  0.00    +0.058 A 
ATOM      4  C   UNL     1     -10.467   8.911  68.457  0.00  0.00    +0.011 A 
ATOM      5  C   UNL     1     -10.530  10.289  68.630  0.00  0.00    -0.003 A 
ATOM      6  C   UNL     1     -10.453  11.172  67.557  0.00  0.00    -0.016 A 
ATOM      7  C   UNL     1     -10.280  10.574  66.333  0.00  0.00    -0.003 A 
ATOM      8  C   UNL     1      -9.947   9.232  66.204  0.00  0.00    +0.011 A 
ENDBRANCH   1   6
BRANCH   1   9
ATOM      9  C   UNL     1     -10.791  13.503  67.126  0.00  0.00    -0.005 A 
ATOM     10  C   UNL     1     -11.250  14.139  66.005  0.00  0.00    +0.054 A 
ATOM     11 CL   UNL     1     -12.948  14.063  65.546  0.00  0.00    -0.083 Cl
ATOM     12  C   UNL     1     -10.393  15.088  65.459  0.00  0.00    +0.011 A 
ATOM     13  C   UNL     1      -9.147  15.333  66.027  0.00  0.00    +0.001 A 
ATOM     14  C   UNL     1      -8.846  14.756  67.255  0.00  0.00    -0.000 A 
ATOM     15  C   UNL     1      -9.648  13.755  67.795  0.00  0.00    -0.003 A 
ENDBRANCH   1   9
BRANCH   1  16
ATOM     16  C   UNL     1     -11.479  12.638  69.213  0.00  0.00    +0.167 C 
ATOM     17 CL   UNL     1     -12.076  14.291  69.309  0.00  0.00    -0.096 Cl
ATOM     18 CL   UNL     1     -12.180  11.498  70.260  0.00  0.00    -0.096 Cl
ENDBRANCH   1  16
TORSDOF 3
ENDMDL
MODEL 9
REMARK VINA RESULT:      -4.8      2.557      4.693
REMARK  Name = 
REMARK  3 active torsions:
REMARK  status: ('A' for Active; 'I' for Inactive)
REMARK    1  A    between atoms: C_5  and  C_6
REMARK    2  A    between atoms: C_6  and  C_7
REMARK    3  A    between atoms: C_6  and  C_14
REMARK                            x       y       z     vdW  Elec       q    Type
REMARK                         _______ _______ _______ _____ _____    ______ ____
ROOT
ATOM      1  C   UNL     1     -10.532  13.186  66.626  0.00  0.00    +0.076 C 
ENDROOT
BRANCH   1   6
ATOM      2 CL   UNL     1     -10.000   9.490  70.558  0.00  0.00    -0.082 Cl
ATOM      3  C   UNL     1     -10.855  10.274  69.492  0.00  0.00    +0.058 A 
ATOM      4  C   UNL     1     -10.869   9.895  68.157  0.00  0.00    +0.011 A 
ATOM      5  C   UNL     1     -11.128  10.833  67.163  0.00  0.00    -0.003 A 
ATOM      6  C   UNL     1     -11.480  12.146  67.461  0.00  0.00    -0.016 A 
ATOM      7  C   UNL     1     -11.578  12.424  68.803  0.00  0.00    -0.003 A 
ATOM      8  C   UNL     1     -11.587  11.424  69.767  0.00  0.00    +0.011 A 
ENDBRANCH   1   6
BRANCH   1   9
ATOM      9  C   UNL     1     -10.610  14.358  67.753  0.00  0.00    -0.005 A 
ATOM     10  C   UNL     1      -9.445  14.584  68.432  0.00  0.00    +0.054 A 
ATOM     11 CL   UNL     1      -7.885  14.170  67.728  0.00  0.00    -0.083 Cl
ATOM     12  C   UNL     1      -9.543  15.435  69.528  0.00  0.00    +0.011 A 
ATOM     13  C   UNL     1     -10.766  15.985  69.895  0.00  0.00    +0.001 A 
ATOM     14  C   UNL     1     -11.854  15.826  69.044  0.00  0.00    -0.000 A 
ATOM     15  C   UNL     1     -11.810  14.930  67.980  0.00  0.00    -0.003 A 
ENDBRANCH   1   9
BRANCH   1  16
ATOM     16  C   UNL     1     -11.771  13.865  65.756  0.00  0.00    +0.167 C 
ATOM     17 CL   UNL     1     -10.970  15.098  64.790  0.00  0.00    -0.096 Cl
ATOM     18 CL   UNL     1     -12.687  12.701  64.925  0.00  0.00    -0.096 Cl
ENDBRANCH   1  16
TORSDOF 3
ENDMDL
