MODEL 1
REMARK VINA RESULT:      -7.9      0.000      0.000
REMARK  Name = 
REMARK  2 active torsions:
REMARK  status: ('A' for Active; 'I' for Inactive)
REMARK    1  A    between atoms: N_18  and  C_19
REMARK    2  A    between atoms: C_19  and  C_20
REMARK                            x       y       z     vdW  Elec       q    Type
REMARK                         _______ _______ _______ _____ _____    ______ ____
ROOT
ATOM      1  O   UNL     1     -11.560  16.214  63.483  0.00  0.00    -0.283 OA
ATOM      2  C   UNL     1     -11.487  15.621  64.430  0.00  0.00    +0.229 A 
ATOM      3  C   UNL     1     -10.528  15.936  65.390  0.00  0.00    +0.173 A 
ATOM      4  O   UNL     1      -9.734  17.071  65.623  0.00  0.00    -0.473 OA
ATOM      5  C   UNL     1      -8.724  16.601  66.675  0.00  0.00    +0.202 C 
ATOM      6  C   UNL     1      -9.808  15.911  67.662  0.00  0.00    +0.089 C 
ATOM      7  C   UNL     1     -10.610  16.783  68.363  0.00  0.00    +0.147 C 
ATOM      8  C   UNL     1     -11.874  15.983  69.019  0.00  0.00    +0.090 C 
ATOM      9  N   UNL     1     -11.031  15.470  70.244  0.00  0.00    -0.271 NA
ATOM     10  C   UNL     1      -9.855  14.961  69.933  0.00  0.00    +0.073 C 
ATOM     11  C   UNL     1     -11.717  14.473  68.397  0.00  0.00    +0.045 C 
ATOM     12  C   UNL     1     -11.589  14.520  66.976  0.00  0.00    -0.021 A 
ATOM     13  C   UNL     1     -12.461  14.038  66.014  0.00  0.00    -0.001 A 
ATOM     14  O   UNL     1      -9.976  17.413  69.465  0.00  0.00    -0.224 OA
ATOM     15  C   UNL     1     -11.118  17.935  67.593  0.00  0.00    +0.035 C 
ATOM     16  C   UNL     1     -10.028  18.755  67.099  0.00  0.00    +0.039 C 
ATOM     17  C   UNL     1      -9.102  15.118  68.682  0.00  0.00    +0.027 C 
ATOM     18  C   UNL     1      -8.588  18.102  67.512  0.00  0.00    +0.192 C 
ATOM     19  O   UNL     1      -7.867  18.666  66.307  0.00  0.00    -0.219 OA
ATOM     20  C   UNL     1     -10.438  15.174  66.553  0.00  0.00    +0.016 A 
ATOM     21  C   UNL     1     -12.378  14.602  64.749  0.00  0.00    +0.045 A 
ENDROOT
BRANCH   9  22
ATOM     22  C   UNL     1     -11.529  16.162  71.301  0.00  0.00    +0.072 C 
BRANCH  22  23
ATOM     23  C   UNL     1     -11.859  15.155  72.406  0.00  0.00    +0.016 C 
ATOM     24  C   UNL     1     -12.678  15.897  73.459  0.00  0.00    +0.001 C 
ATOM     25  C   UNL     1     -13.891  15.582  72.592  0.00  0.00    +0.000 C 
ATOM     26  C   UNL     1     -13.120  14.351  72.129  0.00  0.00    +0.001 C 
ENDBRANCH  22  23
ENDBRANCH   9  22
TORSDOF 2
ENDMDL
MODEL 2
REMARK VINA RESULT:      -7.1      2.503      3.180
REMARK  Name = 
REMARK  2 active torsions:
REMARK  status: ('A' for Active; 'I' for Inactive)
REMARK    1  A    between atoms: N_18  and  C_19
REMARK    2  A    between atoms: C_19  and  C_20
REMARK                            x       y       z     vdW  Elec       q    Type
REMARK                         _______ _______ _______ _____ _____    ______ ____
ROOT
ATOM      1  O   UNL     1     -11.686  16.620  63.918  0.00  0.00    -0.283 OA
ATOM      2  C   UNL     1     -11.485  15.601  64.337  0.00  0.00    +0.229 A 
ATOM      3  C   UNL     1     -10.628  15.438  65.424  0.00  0.00    +0.173 A 
ATOM      4  O   UNL     1     -10.114  16.323  66.386  0.00  0.00    -0.473 OA
ATOM      5  C   UNL     1      -9.030  15.503  67.094  0.00  0.00    +0.202 C 
ATOM      6  C   UNL     1      -9.934  14.179  67.325  0.00  0.00    +0.089 C 
ATOM      7  C   UNL     1     -10.918  14.294  68.282  0.00  0.00    +0.147 C 
ATOM      8  C   UNL     1     -11.971  13.051  68.159  0.00  0.00    +0.090 C 
ATOM      9  N   UNL     1     -11.041  12.064  68.956  0.00  0.00    -0.271 NA
ATOM     10  C   UNL     1      -9.778  12.064  68.575  0.00  0.00    +0.073 C 
ATOM     11  C   UNL     1     -11.471  12.278  66.801  0.00  0.00    +0.045 C 
ATOM     12  C   UNL     1     -11.349  13.193  65.712  0.00  0.00    -0.021 A 
ATOM     13  C   UNL     1     -12.083  13.241  64.538  0.00  0.00    -0.001 A 
ATOM     14  O   UNL     1     -10.449  14.233  69.620  0.00  0.00    -0.224 OA
ATOM     15  C   UNL     1     -11.670  15.564  68.269  0.00  0.00    +0.035 C 
ATOM     16  C   UNL     1     -10.791  16.693  68.509  0.00  0.00    +0.039 C 
ATOM     17  C   UNL     1      -9.073  13.074  67.774  0.00  0.00    +0.027 C 
ATOM     18  C   UNL     1      -9.243  16.192  68.660  0.00  0.00    +0.192 C 
ATOM     19  O   UNL     1      -8.662  17.485  68.130  0.00  0.00    -0.219 OA
ATOM     20  C   UNL     1     -10.375  14.161  65.919  0.00  0.00    +0.016 A 
ATOM     21  C   UNL     1     -12.124  14.457  63.870  0.00  0.00    +0.045 A 
ENDROOT
BRANCH   9  22
ATOM     22  C   UNL     1     -11.688  11.877  70.135  0.00  0.00    +0.072 C 
BRANCH  22  23
ATOM     23  C   UNL     1     -12.507  10.589  70.020  0.00  0.00    +0.016 C 
ATOM     24  C   UNL     1     -11.523   9.424  70.114  0.00  0.00    +0.001 C 
ATOM     25  C   UNL     1     -11.661   9.563  71.625  0.00  0.00    +0.000 C 
ATOM     26  C   UNL     1     -13.059  10.106  71.352  0.00  0.00    +0.001 C 
ENDBRANCH  22  23
ENDBRANCH   9  22
TORSDOF 2
ENDMDL
MODEL 3
REMARK VINA RESULT:      -7.1      2.645      5.511
REMARK  Name = 
REMARK  2 active torsions:
REMARK  status: ('A' for Active; 'I' for Inactive)
REMARK    1  A    between atoms: N_18  and  C_19
REMARK    2  A    between atoms: C_19  and  C_20
REMARK                            x       y       z     vdW  Elec       q    Type
REMARK                         _______ _______ _______ _____ _____    ______ ____
ROOT
ATOM      1  O   UNL     1      -5.551  18.425  69.548  0.00  0.00    -0.283 OA
ATOM      2  C   UNL     1      -6.290  17.588  69.462  0.00  0.00    +0.229 A 
ATOM      3  C   UNL     1      -7.582  17.830  69.001  0.00  0.00    +0.173 A 
ATOM      4  O   UNL     1      -8.172  18.895  68.301  0.00  0.00    -0.473 OA
ATOM      5  C   UNL     1      -9.673  18.601  68.383  0.00  0.00    +0.202 C 
ATOM      6  C   UNL     1      -9.570  17.044  67.947  0.00  0.00    +0.089 C 
ATOM      7  C   UNL     1      -9.277  16.818  66.620  0.00  0.00    +0.147 C 
ATOM      8  C   UNL     1      -8.844  15.259  66.396  0.00  0.00    +0.090 C 
ATOM      9  N   UNL     1     -10.333  14.755  66.353  0.00  0.00    -0.271 NA
ATOM     10  C   UNL     1     -11.105  15.226  67.313  0.00  0.00    +0.073 C 
ATOM     11  C   UNL     1      -8.786  14.670  67.926  0.00  0.00    +0.045 C 
ATOM     12  C   UNL     1      -7.979  15.500  68.761  0.00  0.00    -0.021 A 
ATOM     13  C   UNL     1      -6.776  15.196  69.376  0.00  0.00    -0.001 A 
ATOM     14  O   UNL     1     -10.366  17.016  65.734  0.00  0.00    -0.224 OA
ATOM     15  C   UNL     1      -8.238  17.693  66.043  0.00  0.00    +0.035 C 
ATOM     16  C   UNL     1      -8.640  19.086  66.099  0.00  0.00    +0.039 C 
ATOM     17  C   UNL     1     -10.866  16.385  68.183  0.00  0.00    +0.027 C 
ATOM     18  C   UNL     1     -10.091  19.235  66.836  0.00  0.00    +0.192 C 
ATOM     19  O   UNL     1      -9.798  20.622  67.366  0.00  0.00    -0.219 OA
ATOM     20  C   UNL     1      -8.495  16.780  68.919  0.00  0.00    +0.016 A 
ATOM     21  C   UNL     1      -5.958  16.263  69.723  0.00  0.00    +0.045 A 
ENDROOT
BRANCH   9  22
ATOM     22  C   UNL     1     -10.523  14.395  65.057  0.00  0.00    +0.072 C 
BRANCH  22  23
ATOM     23  C   UNL     1     -10.723  12.878  65.018  0.00  0.00    +0.016 C 
ATOM     24  C   UNL     1     -12.228  12.627  64.956  0.00  0.00    +0.001 C 
ATOM     25  C   UNL     1     -12.093  12.806  63.449  0.00  0.00    +0.000 C 
ATOM     26  C   UNL     1     -10.664  12.300  63.613  0.00  0.00    +0.001 C 
ENDBRANCH  22  23
ENDBRANCH   9  22
TORSDOF 2
ENDMDL
MODEL 4
REMARK VINA RESULT:      -6.9      2.736      5.464
REMARK  Name = 
REMARK  2 active torsions:
REMARK  status: ('A' for Active; 'I' for Inactive)
REMARK    1  A    between atoms: N_18  and  C_19
REMARK    2  A    between atoms: C_19  and  C_20
REMARK                            x       y       z     vdW  Elec       q    Type
REMARK                         _______ _______ _______ _____ _____    ______ ____
ROOT
ATOM      1  O   UNL     1     -11.688  16.507  72.290  0.00  0.00    -0.283 OA
ATOM      2  C   UNL     1     -11.938  15.721  71.532  0.00  0.00    +0.229 A 
ATOM      3  C   UNL     1     -11.686  15.937  70.180  0.00  0.00    +0.173 A 
ATOM      4  O   UNL     1     -10.882  16.855  69.484  0.00  0.00    -0.473 OA
ATOM      5  C   UNL     1     -11.312  16.684  68.023  0.00  0.00    +0.202 C 
ATOM      6  C   UNL     1     -11.237  15.066  68.007  0.00  0.00    +0.089 C 
ATOM      7  C   UNL     1      -9.968  14.531  68.026  0.00  0.00    +0.147 C 
ATOM      8  C   UNL     1     -10.034  12.937  68.376  0.00  0.00    +0.090 C 
ATOM      9  N   UNL     1     -10.390  12.534  66.898  0.00  0.00    -0.271 NA
ATOM     10  C   UNL     1     -11.343  13.256  66.341  0.00  0.00    +0.073 C 
ATOM     11  C   UNL     1     -11.619  12.702  68.724  0.00  0.00    +0.045 C 
ATOM     12  C   UNL     1     -12.071  13.643  69.697  0.00  0.00    -0.021 A 
ATOM     13  C   UNL     1     -12.502  13.407  70.992  0.00  0.00    -0.001 A 
ATOM     14  O   UNL     1      -9.282  14.597  66.787  0.00  0.00    -0.224 OA
ATOM     15  C   UNL     1      -9.019  15.187  68.947  0.00  0.00    +0.035 C 
ATOM     16  C   UNL     1      -8.825  16.580  68.591  0.00  0.00    +0.039 C 
ATOM     17  C   UNL     1     -11.859  14.562  66.771  0.00  0.00    +0.027 C 
ATOM     18  C   UNL     1      -9.767  16.983  67.319  0.00  0.00    +0.192 C 
ATOM     19  O   UNL     1      -9.897  18.431  67.739  0.00  0.00    -0.219 OA
ATOM     20  C   UNL     1     -12.023  14.957  69.248  0.00  0.00    +0.016 A 
ATOM     21  C   UNL     1     -12.432  14.469  71.883  0.00  0.00    +0.045 A 
ENDROOT
BRANCH   9  22
ATOM     22  C   UNL     1      -9.273  11.907  66.447  0.00  0.00    +0.072 C 
BRANCH  22  23
ATOM     23  C   UNL     1      -9.202  10.535  67.123  0.00  0.00    +0.016 C 
ATOM     24  C   UNL     1     -10.363   9.707  66.577  0.00  0.00    +0.001 C 
ATOM     25  C   UNL     1      -9.438   9.359  65.418  0.00  0.00    +0.000 C 
ATOM     26  C   UNL     1      -8.289   9.556  66.401  0.00  0.00    +0.001 C 
ENDBRANCH  22  23
ENDBRANCH   9  22
TORSDOF 2
ENDMDL
MODEL 5
REMARK VINA RESULT:      -6.9      3.470      5.762
REMARK  Name = 
REMARK  2 active torsions:
REMARK  status: ('A' for Active; 'I' for Inactive)
REMARK    1  A    between atoms: N_18  and  C_19
REMARK    2  A    between atoms: C_19  and  C_20
REMARK                            x       y       z     vdW  Elec       q    Type
REMARK                         _______ _______ _______ _____ _____    ______ ____
ROOT
ATOM      1  O   UNL     1     -11.574  16.620  70.636  0.00  0.00    -0.283 OA
ATOM      2  C   UNL     1     -11.850  15.619  70.217  0.00  0.00    +0.229 A 
ATOM      3  C   UNL     1     -11.636  15.332  68.871  0.00  0.00    +0.173 A 
ATOM      4  O   UNL     1     -10.848  15.928  67.872  0.00  0.00    -0.473 OA
ATOM      5  C   UNL     1     -11.321  15.250  66.581  0.00  0.00    +0.202 C 
ATOM      6  C   UNL     1     -11.254  13.733  67.145  0.00  0.00    +0.089 C 
ATOM      7  C   UNL     1      -9.987  13.223  67.322  0.00  0.00    +0.147 C 
ATOM      8  C   UNL     1     -10.049  11.861  68.222  0.00  0.00    +0.090 C 
ATOM      9  N   UNL     1     -10.450  10.959  66.997  0.00  0.00    -0.271 NA
ATOM     10  C   UNL     1     -11.416  11.448  66.243  0.00  0.00    +0.073 C 
ATOM     11  C   UNL     1     -11.625  11.789  68.672  0.00  0.00    +0.045 C 
ATOM     12  C   UNL     1     -12.045  13.023  69.254  0.00  0.00    -0.021 A 
ATOM     13  C   UNL     1     -12.439  13.273  70.558  0.00  0.00    -0.001 A 
ATOM     14  O   UNL     1      -9.336  12.829  66.125  0.00  0.00    -0.224 OA
ATOM     15  C   UNL     1      -9.009  14.151  67.922  0.00  0.00    +0.035 C 
ATOM     16  C   UNL     1      -8.819  15.321  67.086  0.00  0.00    +0.039 C 
ATOM     17  C   UNL     1     -11.913  12.829  66.188  0.00  0.00    +0.027 C 
ATOM     18  C   UNL     1      -9.796  15.255  65.777  0.00  0.00    +0.192 C 
ATOM     19  O   UNL     1      -9.907  16.759  65.653  0.00  0.00    -0.219 OA
ATOM     20  C   UNL     1     -12.004  14.088  68.362  0.00  0.00    +0.016 A 
ATOM     21  C   UNL     1     -12.338  14.583  71.006  0.00  0.00    +0.045 A 
ENDROOT
BRANCH   9  22
ATOM     22  C   UNL     1      -9.349  10.197  66.773  0.00  0.00    +0.072 C 
BRANCH  22  23
ATOM     23  C   UNL     1      -9.811   8.889  66.126  0.00  0.00    +0.016 C 
ATOM     24  C   UNL     1      -8.652   7.900  66.239  0.00  0.00    +0.001 C 
ATOM     25  C   UNL     1      -9.189   7.585  67.630  0.00  0.00    +0.000 C 
ATOM     26  C   UNL     1     -10.559   7.975  67.085  0.00  0.00    +0.001 C 
ENDBRANCH  22  23
ENDBRANCH   9  22
TORSDOF 2
ENDMDL
MODEL 6
REMARK VINA RESULT:      -6.9      4.409      5.770
REMARK  Name = 
REMARK  2 active torsions:
REMARK  status: ('A' for Active; 'I' for Inactive)
REMARK    1  A    between atoms: N_18  and  C_19
REMARK    2  A    between atoms: C_19  and  C_20
REMARK                            x       y       z     vdW  Elec       q    Type
REMARK                         _______ _______ _______ _____ _____    ______ ____
ROOT
ATOM      1  O   UNL     1     -12.732  14.792  64.095  0.00  0.00    -0.283 OA
ATOM      2  C   UNL     1     -12.042  13.912  64.166  0.00  0.00    +0.229 A 
ATOM      3  C   UNL     1     -11.100  13.833  65.189  0.00  0.00    +0.173 A 
ATOM      4  O   UNL     1     -10.954  14.496  66.419  0.00  0.00    -0.473 OA
ATOM      5  C   UNL     1      -9.548  14.102  66.883  0.00  0.00    +0.202 C 
ATOM      6  C   UNL     1      -9.712  12.513  66.609  0.00  0.00    +0.089 C 
ATOM      7  C   UNL     1     -10.533  11.843  67.488  0.00  0.00    +0.147 C 
ATOM      8  C   UNL     1     -10.902  10.365  66.898  0.00  0.00    +0.090 C 
ATOM      9  N   UNL     1      -9.545   9.732  67.381  0.00  0.00    -0.271 NA
ATOM     10  C   UNL     1      -8.471  10.444  67.100  0.00  0.00    +0.073 C 
ATOM     11  C   UNL     1     -10.246  10.394  65.394  0.00  0.00    +0.045 C 
ATOM     12  C   UNL     1     -10.672  11.553  64.677  0.00  0.00    -0.021 A 
ATOM     13  C   UNL     1     -11.463  11.623  63.542  0.00  0.00    -0.001 A 
ATOM     14  O   UNL     1      -9.955  11.586  68.757  0.00  0.00    -0.224 OA
ATOM     15  C   UNL     1     -11.783  12.542  67.847  0.00  0.00    +0.035 C 
ATOM     16  C   UNL     1     -11.503  13.807  68.500  0.00  0.00    +0.039 C 
ATOM     17  C   UNL     1      -8.397  11.862  66.721  0.00  0.00    +0.027 C 
ATOM     18  C   UNL     1      -9.891  14.071  68.572  0.00  0.00    +0.192 C 
ATOM     19  O   UNL     1     -10.029  15.577  68.534  0.00  0.00    -0.219 OA
ATOM     20  C   UNL     1     -10.237  12.740  65.251  0.00  0.00    +0.016 A 
ATOM     21  C   UNL     1     -12.127  12.819  63.310  0.00  0.00    +0.045 A 
ENDROOT
BRANCH   9  22
ATOM     22  C   UNL     1      -9.909   8.900  68.390  0.00  0.00    +0.072 C 
BRANCH  22  23
ATOM     23  C   UNL     1      -9.292   7.527  68.109  0.00  0.00    +0.016 C 
ATOM     24  C   UNL     1     -10.210   6.486  68.746  0.00  0.00    +0.001 C 
ATOM     25  C   UNL     1     -11.020   6.560  67.457  0.00  0.00    +0.000 C 
ATOM     26  C   UNL     1      -9.713   6.942  66.770  0.00  0.00    +0.001 C 
ENDBRANCH  22  23
ENDBRANCH   9  22
TORSDOF 2
ENDMDL
MODEL 7
REMARK VINA RESULT:      -6.8      2.961      4.889
REMARK  Name = 
REMARK  2 active torsions:
REMARK  status: ('A' for Active; 'I' for Inactive)
REMARK    1  A    between atoms: N_18  and  C_19
REMARK    2  A    between atoms: C_19  and  C_20
REMARK                            x       y       z     vdW  Elec       q    Type
REMARK                         _______ _______ _______ _____ _____    ______ ____
ROOT
ATOM      1  O   UNL     1     -10.347  10.687  63.580  0.00  0.00    -0.283 OA
ATOM      2  C   UNL     1     -10.953  11.446  64.139  0.00  0.00    +0.229 A 
ATOM      3  C   UNL     1     -10.875  11.530  65.527  0.00  0.00    +0.173 A 
ATOM      4  O   UNL     1      -9.953  11.049  66.472  0.00  0.00    -0.473 OA
ATOM      5  C   UNL     1     -10.652  11.280  67.816  0.00  0.00    +0.202 C 
ATOM      6  C   UNL     1     -11.088  12.814  67.525  0.00  0.00    +0.089 C 
ATOM      7  C   UNL     1     -10.064  13.734  67.540  0.00  0.00    +0.147 C 
ATOM      8  C   UNL     1     -10.563  15.143  66.882  0.00  0.00    +0.090 C 
ATOM      9  N   UNL     1     -11.269  15.618  68.206  0.00  0.00    -0.271 NA
ATOM     10  C   UNL     1     -12.028  14.708  68.785  0.00  0.00    +0.073 C 
ATOM     11  C   UNL     1     -12.062  14.778  66.324  0.00  0.00    +0.045 C 
ATOM     12  C   UNL     1     -12.030  13.606  65.510  0.00  0.00    -0.021 A 
ATOM     13  C   UNL     1     -12.291  13.489  64.154  0.00  0.00    -0.001 A 
ATOM     14  O   UNL     1      -9.608  14.088  68.836  0.00  0.00    -0.224 OA
ATOM     15  C   UNL     1      -8.818  13.307  66.874  0.00  0.00    +0.035 C 
ATOM     16  C   UNL     1      -8.263  12.129  67.512  0.00  0.00    +0.039 C 
ATOM     17  C   UNL     1     -12.033  13.256  68.564  0.00  0.00    +0.027 C 
ATOM     18  C   UNL     1      -9.231  11.626  68.729  0.00  0.00    +0.192 C 
ATOM     19  O   UNL     1      -8.831  10.173  68.587  0.00  0.00    -0.219 OA
ATOM     20  C   UNL     1     -11.650  12.467  66.208  0.00  0.00    +0.016 A 
ATOM     21  C   UNL     1     -11.746  12.393  63.500  0.00  0.00    +0.045 A 
ENDROOT
BRANCH   9  22
ATOM     22  C   UNL     1     -10.494  16.643  68.645  0.00  0.00    +0.072 C 
BRANCH  22  23
ATOM     23  C   UNL     1      -9.973  17.394  67.417  0.00  0.00    +0.016 C 
ATOM     24  C   UNL     1     -10.563  18.802  67.470  0.00  0.00    +0.001 C 
ATOM     25  C   UNL     1      -9.388  19.150  68.376  0.00  0.00    +0.000 C 
ATOM     26  C   UNL     1      -8.622  18.054  67.643  0.00  0.00    +0.001 C 
ENDBRANCH  22  23
ENDBRANCH   9  22
TORSDOF 2
ENDMDL
MODEL 8
REMARK VINA RESULT:      -6.5      5.743      8.026
REMARK  Name = 
REMARK  2 active torsions:
REMARK  status: ('A' for Active; 'I' for Inactive)
REMARK    1  A    between atoms: N_18  and  C_19
REMARK    2  A    between atoms: C_19  and  C_20
REMARK                            x       y       z     vdW  Elec       q    Type
REMARK                         _______ _______ _______ _____ _____    ______ ____
ROOT
ATOM      1  O   UNL     1     -12.243   7.087  71.327  0.00  0.00    -0.283 OA
ATOM      2  C   UNL     1     -11.967   8.149  71.100  0.00  0.00    +0.229 A 
ATOM      3  C   UNL     1     -10.804   8.442  70.391  0.00  0.00    +0.173 A 
ATOM      4  O   UNL     1      -9.950   7.674  69.582  0.00  0.00    -0.473 OA
ATOM      5  C   UNL     1      -8.736   8.584  69.366  0.00  0.00    +0.202 C 
ATOM      6  C   UNL     1      -9.579   9.909  68.967  0.00  0.00    +0.089 C 
ATOM      7  C   UNL     1     -10.175   9.880  67.726  0.00  0.00    +0.147 C 
ATOM      8  C   UNL     1     -11.272  11.083  67.600  0.00  0.00    +0.090 C 
ATOM      9  N   UNL     1     -10.182  12.167  67.264  0.00  0.00    -0.271 NA
ATOM     10  C   UNL     1      -9.123  12.148  68.050  0.00  0.00    +0.073 C 
ATOM     11  C   UNL     1     -11.301  11.715  69.114  0.00  0.00    +0.045 C 
ATOM     12  C   UNL     1     -11.505  10.692  70.088  0.00  0.00    -0.021 A 
ATOM     13  C   UNL     1     -12.587  10.505  70.931  0.00  0.00    -0.001 A 
ATOM     14  O   UNL     1      -9.288  10.092  66.640  0.00  0.00    -0.224 OA
ATOM     15  C   UNL     1     -10.819   8.603  67.362  0.00  0.00    +0.035 C 
ATOM     16  C   UNL     1      -9.851   7.522  67.330  0.00  0.00    +0.039 C 
ATOM     17  C   UNL     1      -8.676  11.072  68.944  0.00  0.00    +0.027 C 
ATOM     18  C   UNL     1      -8.372   8.063  67.764  0.00  0.00    +0.192 C 
ATOM     19  O   UNL     1      -7.936   6.732  68.335  0.00  0.00    -0.219 OA
ATOM     20  C   UNL     1     -10.467   9.769  70.134  0.00  0.00    +0.016 A 
ATOM     21  C   UNL     1     -12.786   9.224  71.428  0.00  0.00    +0.045 A 
ENDROOT
BRANCH   9  22
ATOM     22  C   UNL     1     -10.405  12.466  65.959  0.00  0.00    +0.072 C 
BRANCH  22  23
ATOM     23  C   UNL     1     -11.916  12.429  65.721  0.00  0.00    +0.016 C 
ATOM     24  C   UNL     1     -12.404  13.876  65.712  0.00  0.00    +0.001 C 
ATOM     25  C   UNL     1     -12.014  13.891  64.239  0.00  0.00    +0.000 C 
ATOM     26  C   UNL     1     -12.293  12.392  64.248  0.00  0.00    +0.001 C 
ENDBRANCH  22  23
ENDBRANCH   9  22
TORSDOF 2
ENDMDL
MODEL 9
REMARK VINA RESULT:      -6.5      3.799      5.800
REMARK  Name = 
REMARK  2 active torsions:
REMARK  status: ('A' for Active; 'I' for Inactive)
REMARK    1  A    between atoms: N_18  and  C_19
REMARK    2  A    between atoms: C_19  and  C_20
REMARK                            x       y       z     vdW  Elec       q    Type
REMARK                         _______ _______ _______ _____ _____    ______ ____
ROOT
ATOM      1  O   UNL     1      -8.990   9.063  64.141  0.00  0.00    -0.283 OA
ATOM      2  C   UNL     1      -9.586  10.009  64.207  0.00  0.00    +0.229 A 
ATOM      3  C   UNL     1     -10.122  10.424  65.424  0.00  0.00    +0.173 A 
ATOM      4  O   UNL     1      -9.862  10.077  66.760  0.00  0.00    -0.473 OA
ATOM      5  C   UNL     1     -11.014  10.724  67.537  0.00  0.00    +0.202 C 
ATOM      6  C   UNL     1     -10.902  12.180  66.836  0.00  0.00    +0.089 C 
ATOM      7  C   UNL     1      -9.810  12.933  67.206  0.00  0.00    +0.147 C 
ATOM      8  C   UNL     1      -9.617  14.187  66.177  0.00  0.00    +0.090 C 
ATOM      9  N   UNL     1     -10.708  15.064  66.896  0.00  0.00    -0.271 NA
ATOM     10  C   UNL     1     -11.836  14.434  67.163  0.00  0.00    +0.073 C 
ATOM     11  C   UNL     1     -10.745  13.894  65.023  0.00  0.00    +0.045 C 
ATOM     12  C   UNL     1     -10.625  12.563  64.522  0.00  0.00    -0.021 A 
ATOM     13  C   UNL     1     -10.270  12.148  63.249  0.00  0.00    -0.001 A 
ATOM     14  O   UNL     1      -9.915  13.535  68.486  0.00  0.00    -0.224 OA
ATOM     15  C   UNL     1      -8.536  12.195  67.308  0.00  0.00    +0.035 C 
ATOM     16  C   UNL     1      -8.618  11.150  68.311  0.00  0.00    +0.039 C 
ATOM     17  C   UNL     1     -12.079  12.986  67.197  0.00  0.00    +0.027 C 
ATOM     18  C   UNL     1     -10.116  11.096  68.961  0.00  0.00    +0.192 C 
ATOM     19  O   UNL     1     -10.047   9.614  69.261  0.00  0.00    -0.219 OA
ATOM     20  C   UNL     1     -10.877  11.594  65.484  0.00  0.00    +0.016 A 
ATOM     21  C   UNL     1      -9.762  10.863  63.124  0.00  0.00    +0.045 A 
ENDROOT
BRANCH   9  22
ATOM     22  C   UNL     1      -9.997  16.056  67.491  0.00  0.00    +0.072 C 
BRANCH  22  23
ATOM     23  C   UNL     1      -9.928  17.232  66.515  0.00  0.00    +0.016 C 
ATOM     24  C   UNL     1     -10.518  18.444  67.233  0.00  0.00    +0.001 C 
ATOM     25  C   UNL     1      -9.127  18.647  67.820  0.00  0.00    +0.000 C 
ATOM     26  C   UNL     1      -8.600  17.973  66.558  0.00  0.00    +0.001 C 
ENDBRANCH  22  23
ENDBRANCH   9  22
TORSDOF 2
ENDMDL
