MODEL 1
REMARK VINA RESULT:      -5.7      0.000      0.000
REMARK  Name = 
REMARK  7 active torsions:
REMARK  status: ('A' for Active; 'I' for Inactive)
REMARK    1  A    between atoms: C_2  and  C_3
REMARK    2  A    between atoms: C_3  and  C_5
REMARK    3  A    between atoms: C_5  and  C_6
REMARK    4  A    between atoms: C_5  and  C_12
REMARK    5  A    between atoms: C_5  and  C_18
REMARK    6  A    between atoms: C_6  and  C_7
REMARK    7  A    between atoms: C_7  and  N_9
REMARK                            x       y       z     vdW  Elec       q    Type
REMARK                         _______ _______ _______ _____ _____    ______ ____
ROOT
ATOM      1  C   UNL     1     -10.134  15.455  67.728  0.00  0.00    +0.090 C 
ENDROOT
BRANCH   1   2
ATOM      2  C   UNL     1     -11.066  14.961  68.795  0.00  0.00    -0.012 A 
ATOM      3  C   UNL     1     -11.871  15.851  69.451  0.00  0.00    -0.004 A 
ATOM      4  C   UNL     1     -12.734  15.462  70.468  0.00  0.00    -0.000 A 
ATOM      5  C   UNL     1     -12.681  14.144  70.850  0.00  0.00    -0.000 A 
ATOM      6  C   UNL     1     -11.966  13.205  70.132  0.00  0.00    -0.000 A 
ATOM      7  C   UNL     1     -11.079  13.650  69.186  0.00  0.00    -0.004 A 
ENDBRANCH   1   2
BRANCH   1   8
ATOM      8  C   UNL     1     -10.245  16.896  67.706  0.00  0.00    -0.012 A 
ATOM      9  C   UNL     1     -10.426  17.432  66.428  0.00  0.00    -0.004 A 
ATOM     10  C   UNL     1     -10.194  18.752  66.138  0.00  0.00    -0.000 A 
ATOM     11  C   UNL     1     -10.379  19.654  67.176  0.00  0.00    -0.000 A 
ATOM     12  C   UNL     1     -10.010  19.175  68.429  0.00  0.00    -0.000 A 
ATOM     13  C   UNL     1      -9.803  17.813  68.619  0.00  0.00    -0.004 A 
ENDBRANCH   1   8
BRANCH   1  14
ATOM     14  C   UNL     1      -8.756  15.154  68.256  0.00  0.00    +0.157 C 
ATOM     15  O   UNL     1      -8.527  15.353  69.445  0.00  0.00    -0.295 OA
BRANCH  14  17
ATOM     16  C   UNL     1      -6.823  15.747  67.274  0.00  0.00    +0.008 C 
ATOM     17  C   UNL     1      -7.671  15.185  67.232  0.00  0.00    +0.065 C 
ENDBRANCH  14  17
ENDBRANCH   1  14
BRANCH   1  18
ATOM     18  C   UNL     1     -10.326  14.650  66.538  0.00  0.00    +0.031 C 
BRANCH  18  19
ATOM     19  C   UNL     1     -11.945  14.337  66.325  0.00  0.00    +0.059 C 
ATOM     20  C   UNL     1     -11.878  14.789  64.719  0.00  0.00    +0.017 C 
BRANCH  19  21
ATOM     21  N   UNL     1     -11.665  12.804  65.958  0.00  0.00    -0.272 NA
ATOM     22  C   UNL     1     -12.546  12.608  64.828  0.00  0.00    +0.090 C 
ATOM     23  C   UNL     1     -10.294  12.737  65.564  0.00  0.00    +0.090 C 
ENDBRANCH  19  21
ENDBRANCH  18  19
ENDBRANCH   1  18
TORSDOF 7
ENDMDL
MODEL 2
REMARK VINA RESULT:      -5.6      1.657      4.535
REMARK  Name = 
REMARK  7 active torsions:
REMARK  status: ('A' for Active; 'I' for Inactive)
REMARK    1  A    between atoms: C_2  and  C_3
REMARK    2  A    between atoms: C_3  and  C_5
REMARK    3  A    between atoms: C_5  and  C_6
REMARK    4  A    between atoms: C_5  and  C_12
REMARK    5  A    between atoms: C_5  and  C_18
REMARK    6  A    between atoms: C_6  and  C_7
REMARK    7  A    between atoms: C_7  and  N_9
REMARK                            x       y       z     vdW  Elec       q    Type
REMARK                         _______ _______ _______ _____ _____    ______ ____
ROOT
ATOM      1  C   UNL     1     -10.082  15.304  68.166  0.00  0.00    +0.090 C 
ENDROOT
BRANCH   1   2
ATOM      2  C   UNL     1     -10.677  14.759  66.901  0.00  0.00    -0.012 A 
ATOM      3  C   UNL     1     -12.007  14.444  66.863  0.00  0.00    -0.004 A 
ATOM      4  C   UNL     1     -12.611  13.908  65.732  0.00  0.00    -0.000 A 
ATOM      5  C   UNL     1     -11.789  13.627  64.669  0.00  0.00    -0.000 A 
ATOM      6  C   UNL     1     -10.471  14.040  64.638  0.00  0.00    -0.000 A 
ATOM      7  C   UNL     1      -9.907  14.497  65.801  0.00  0.00    -0.004 A 
ENDBRANCH   1   2
BRANCH   1   8
ATOM      8  C   UNL     1     -11.060  15.104  69.211  0.00  0.00    -0.012 A 
ATOM      9  C   UNL     1     -11.130  16.154  70.130  0.00  0.00    -0.004 A 
ATOM     10  C   UNL     1     -11.705  16.019  71.368  0.00  0.00    -0.000 A 
ATOM     11  C   UNL     1     -12.725  15.085  71.476  0.00  0.00    -0.000 A 
ATOM     12  C   UNL     1     -12.549  13.945  70.699  0.00  0.00    -0.000 A 
ATOM     13  C   UNL     1     -11.604  13.940  69.678  0.00  0.00    -0.004 A 
ENDBRANCH   1   8
BRANCH   1  14
ATOM     14  C   UNL     1      -8.942  14.371  68.482  0.00  0.00    +0.157 C 
ATOM     15  O   UNL     1      -9.159  13.164  68.502  0.00  0.00    -0.295 OA
BRANCH  14  17
ATOM     16  C   UNL     1      -6.939  14.546  69.487  0.00  0.00    +0.008 C 
ATOM     17  C   UNL     1      -7.833  14.982  69.274  0.00  0.00    +0.065 C 
ENDBRANCH  14  17
ENDBRANCH   1  14
BRANCH   1  18
ATOM     18  C   UNL     1      -9.510  16.605  67.885  0.00  0.00    +0.031 C 
BRANCH  18  19
ATOM     19  C   UNL     1     -10.713  17.664  67.440  0.00  0.00    +0.059 C 
ATOM     20  C   UNL     1     -10.026  18.901  68.328  0.00  0.00    +0.017 C 
BRANCH  19  21
ATOM     21  N   UNL     1      -9.923  18.106  66.120  0.00  0.00    -0.272 NA
ATOM     22  C   UNL     1     -10.408  19.454  65.926  0.00  0.00    +0.090 C 
ATOM     23  C   UNL     1      -8.538  18.098  66.467  0.00  0.00    +0.090 C 
ENDBRANCH  19  21
ENDBRANCH  18  19
ENDBRANCH   1  18
TORSDOF 7
ENDMDL
MODEL 3
REMARK VINA RESULT:      -5.4      2.254      5.835
REMARK  Name = 
REMARK  7 active torsions:
REMARK  status: ('A' for Active; 'I' for Inactive)
REMARK    1  A    between atoms: C_2  and  C_3
REMARK    2  A    between atoms: C_3  and  C_5
REMARK    3  A    between atoms: C_5  and  C_6
REMARK    4  A    between atoms: C_5  and  C_12
REMARK    5  A    between atoms: C_5  and  C_18
REMARK    6  A    between atoms: C_6  and  C_7
REMARK    7  A    between atoms: C_7  and  N_9
REMARK                            x       y       z     vdW  Elec       q    Type
REMARK                         _______ _______ _______ _____ _____    ______ ____
ROOT
ATOM      1  C   UNL     1     -10.718  12.951  67.349  0.00  0.00    +0.090 C 
ENDROOT
BRANCH   1   2
ATOM      2  C   UNL     1     -11.204  12.546  65.989  0.00  0.00    -0.012 A 
ATOM      3  C   UNL     1     -10.418  11.750  65.202  0.00  0.00    -0.004 A 
ATOM      4  C   UNL     1     -10.797  11.365  63.922  0.00  0.00    -0.000 A 
ATOM      5  C   UNL     1     -11.970  11.893  63.442  0.00  0.00    -0.000 A 
ATOM      6  C   UNL     1     -12.836  12.602  64.252  0.00  0.00    -0.000 A 
ATOM      7  C   UNL     1     -12.384  13.015  65.479  0.00  0.00    -0.004 A 
ENDBRANCH   1   2
BRANCH   1   8
ATOM      8  C   UNL     1     -10.342  11.738  68.040  0.00  0.00    -0.012 A 
ATOM      9  C   UNL     1     -11.426  11.003  68.527  0.00  0.00    -0.004 A 
ATOM     10  C   UNL     1     -11.296  10.044  69.498  0.00  0.00    -0.000 A 
ATOM     11  C   UNL     1     -10.076   9.384  69.555  0.00  0.00    -0.000 A 
ATOM     12  C   UNL     1      -8.976  10.180  69.255  0.00  0.00    -0.000 A 
ATOM     13  C   UNL     1      -9.157  11.414  68.639  0.00  0.00    -0.004 A 
ENDBRANCH   1   8
BRANCH   1  14
ATOM     14  C   UNL     1      -9.434  13.695  67.090  0.00  0.00    +0.157 C 
ATOM     15  O   UNL     1      -8.561  13.678  67.952  0.00  0.00    -0.295 OA
BRANCH  14  17
ATOM     16  C   UNL     1      -8.985  15.662  66.099  0.00  0.00    +0.008 C 
ATOM     17  C   UNL     1      -9.544  14.812  66.106  0.00  0.00    +0.065 C 
ENDBRANCH  14  17
ENDBRANCH   1  14
BRANCH   1  18
ATOM     18  C   UNL     1     -11.659  13.898  67.913  0.00  0.00    +0.031 C 
BRANCH  18  19
ATOM     19  C   UNL     1     -11.124  14.404  69.404  0.00  0.00    +0.059 C 
ATOM     20  C   UNL     1     -11.341  16.010  68.996  0.00  0.00    +0.017 C 
BRANCH  19  21
ATOM     21  N   UNL     1     -12.593  14.313  70.033  0.00  0.00    -0.272 NA
ATOM     22  C   UNL     1     -12.432  13.251  71.001  0.00  0.00    +0.090 C 
ATOM     23  C   UNL     1     -12.827  15.567  70.674  0.00  0.00    +0.090 C 
ENDBRANCH  19  21
ENDBRANCH  18  19
ENDBRANCH   1  18
TORSDOF 7
ENDMDL
MODEL 4
REMARK VINA RESULT:      -5.4      1.632      4.601
REMARK  Name = 
REMARK  7 active torsions:
REMARK  status: ('A' for Active; 'I' for Inactive)
REMARK    1  A    between atoms: C_2  and  C_3
REMARK    2  A    between atoms: C_3  and  C_5
REMARK    3  A    between atoms: C_5  and  C_6
REMARK    4  A    between atoms: C_5  and  C_12
REMARK    5  A    between atoms: C_5  and  C_18
REMARK    6  A    between atoms: C_6  and  C_7
REMARK    7  A    between atoms: C_7  and  N_9
REMARK                            x       y       z     vdW  Elec       q    Type
REMARK                         _______ _______ _______ _____ _____    ______ ____
ROOT
ATOM      1  C   UNL     1     -10.432  15.540  67.582  0.00  0.00    +0.090 C 
ENDROOT
BRANCH   1   2
ATOM      2  C   UNL     1     -11.044  14.561  66.624  0.00  0.00    -0.012 A 
ATOM      3  C   UNL     1     -11.482  14.995  65.404  0.00  0.00    -0.004 A 
ATOM      4  C   UNL     1     -12.083  14.144  64.484  0.00  0.00    -0.000 A 
ATOM      5  C   UNL     1     -12.299  12.851  64.892  0.00  0.00    -0.000 A 
ATOM      6  C   UNL     1     -11.766  12.359  66.067  0.00  0.00    -0.000 A 
ATOM      7  C   UNL     1     -11.246  13.252  66.968  0.00  0.00    -0.004 A 
ENDBRANCH   1   2
BRANCH   1   8
ATOM      8  C   UNL     1      -9.110  15.048  67.900  0.00  0.00    -0.012 A 
ATOM      9  C   UNL     1      -8.411  15.847  68.808  0.00  0.00    -0.004 A 
ATOM     10  C   UNL     1      -7.051  15.775  68.965  0.00  0.00    -0.000 A 
ATOM     11  C   UNL     1      -6.464  14.546  68.703  0.00  0.00    -0.000 A 
ATOM     12  C   UNL     1      -7.050  13.837  67.660  0.00  0.00    -0.000 A 
ATOM     13  C   UNL     1      -8.302  14.210  67.184  0.00  0.00    -0.004 A 
ENDBRANCH   1   8
BRANCH   1  14
ATOM     14  C   UNL     1     -10.223  16.790  66.766  0.00  0.00    +0.157 C 
ATOM     15  O   UNL     1      -9.361  16.783  65.892  0.00  0.00    -0.295 OA
BRANCH  14  17
ATOM     16  C   UNL     1     -10.527  18.996  67.069  0.00  0.00    +0.008 C 
ATOM     17  C   UNL     1     -10.654  18.054  67.432  0.00  0.00    +0.065 C 
ENDBRANCH  14  17
ENDBRANCH   1  14
BRANCH   1  18
ATOM     18  C   UNL     1     -11.405  15.853  68.609  0.00  0.00    +0.031 C 
BRANCH  18  19
ATOM     19  C   UNL     1     -11.070  14.983  69.986  0.00  0.00    +0.059 C 
ATOM     20  C   UNL     1     -11.489  16.270  70.965  0.00  0.00    +0.017 C 
BRANCH  19  21
ATOM     21  N   UNL     1     -12.554  14.388  70.047  0.00  0.00    -0.272 NA
ATOM     22  C   UNL     1     -12.317  13.064  70.579  0.00  0.00    +0.090 C 
ATOM     23  C   UNL     1     -13.268  15.201  70.978  0.00  0.00    +0.090 C 
ENDBRANCH  19  21
ENDBRANCH  18  19
ENDBRANCH   1  18
TORSDOF 7
ENDMDL
MODEL 5
REMARK VINA RESULT:      -5.3      1.742      4.209
REMARK  Name = 
REMARK  7 active torsions:
REMARK  status: ('A' for Active; 'I' for Inactive)
REMARK    1  A    between atoms: C_2  and  C_3
REMARK    2  A    between atoms: C_3  and  C_5
REMARK    3  A    between atoms: C_5  and  C_6
REMARK    4  A    between atoms: C_5  and  C_12
REMARK    5  A    between atoms: C_5  and  C_18
REMARK    6  A    between atoms: C_6  and  C_7
REMARK    7  A    between atoms: C_7  and  N_9
REMARK                            x       y       z     vdW  Elec       q    Type
REMARK                         _______ _______ _______ _____ _____    ______ ____
ROOT
ATOM      1  C   UNL     1     -10.079  15.796  67.960  0.00  0.00    +0.090 C 
ENDROOT
BRANCH   1   2
ATOM      2  C   UNL     1     -10.634  14.983  66.828  0.00  0.00    -0.012 A 
ATOM      3  C   UNL     1     -11.873  14.418  66.948  0.00  0.00    -0.004 A 
ATOM      4  C   UNL     1     -12.430  13.630  65.948  0.00  0.00    -0.000 A 
ATOM      5  C   UNL     1     -11.640  13.371  64.856  0.00  0.00    -0.000 A 
ATOM      6  C   UNL     1     -10.437  14.019  64.657  0.00  0.00    -0.000 A 
ATOM      7  C   UNL     1      -9.901  14.727  65.702  0.00  0.00    -0.004 A 
ENDBRANCH   1   2
BRANCH   1   8
ATOM      8  C   UNL     1      -9.996  17.163  67.495  0.00  0.00    -0.012 A 
ATOM      9  C   UNL     1      -9.716  18.089  68.503  0.00  0.00    -0.004 A 
ATOM     10  C   UNL     1      -9.947  19.433  68.361  0.00  0.00    -0.000 A 
ATOM     11  C   UNL     1      -9.871  19.939  67.072  0.00  0.00    -0.000 A 
ATOM     12  C   UNL     1     -10.337  19.078  66.085  0.00  0.00    -0.000 A 
ATOM     13  C   UNL     1     -10.533  17.731  66.374  0.00  0.00    -0.004 A 
ENDBRANCH   1   8
BRANCH   1  14
ATOM     14  C   UNL     1     -11.163  15.781  69.006  0.00  0.00    +0.157 C 
ATOM     15  O   UNL     1     -12.118  16.540  68.873  0.00  0.00    -0.295 OA
BRANCH  14  17
ATOM     16  C   UNL     1     -11.293  15.298  71.197  0.00  0.00    +0.008 C 
ATOM     17  C   UNL     1     -10.733  15.289  70.348  0.00  0.00    +0.065 C 
ENDBRANCH  14  17
ENDBRANCH   1  14
BRANCH   1  18
ATOM     18  C   UNL     1      -8.935  15.100  68.512  0.00  0.00    +0.031 C 
BRANCH  18  19
ATOM     19  C   UNL     1      -7.531  15.760  67.915  0.00  0.00    +0.059 C 
ATOM     20  C   UNL     1      -6.856  15.843  69.440  0.00  0.00    +0.017 C 
BRANCH  19  21
ATOM     21  N   UNL     1      -6.889  14.318  67.654  0.00  0.00    -0.272 NA
ATOM     22  C   UNL     1      -5.508  14.541  68.022  0.00  0.00    +0.090 C 
ATOM     23  C   UNL     1      -7.532  13.428  68.567  0.00  0.00    +0.090 C 
ENDBRANCH  19  21
ENDBRANCH  18  19
ENDBRANCH   1  18
TORSDOF 7
ENDMDL
MODEL 6
REMARK VINA RESULT:      -5.3      1.871      5.133
REMARK  Name = 
REMARK  7 active torsions:
REMARK  status: ('A' for Active; 'I' for Inactive)
REMARK    1  A    between atoms: C_2  and  C_3
REMARK    2  A    between atoms: C_3  and  C_5
REMARK    3  A    between atoms: C_5  and  C_6
REMARK    4  A    between atoms: C_5  and  C_12
REMARK    5  A    between atoms: C_5  and  C_18
REMARK    6  A    between atoms: C_6  and  C_7
REMARK    7  A    between atoms: C_7  and  N_9
REMARK                            x       y       z     vdW  Elec       q    Type
REMARK                         _______ _______ _______ _____ _____    ______ ____
ROOT
ATOM      1  C   UNL     1     -10.093  15.560  67.618  0.00  0.00    +0.090 C 
ENDROOT
BRANCH   1   2
ATOM      2  C   UNL     1     -10.145  17.054  67.491  0.00  0.00    -0.012 A 
ATOM      3  C   UNL     1     -10.404  17.618  66.273  0.00  0.00    -0.004 A 
ATOM      4  C   UNL     1     -10.437  18.994  66.084  0.00  0.00    -0.000 A 
ATOM      5  C   UNL     1     -10.110  19.773  67.167  0.00  0.00    -0.000 A 
ATOM      6  C   UNL     1      -9.960  19.236  68.431  0.00  0.00    -0.000 A 
ATOM      7  C   UNL     1      -9.866  17.873  68.550  0.00  0.00    -0.004 A 
ENDBRANCH   1   2
BRANCH   1   8
ATOM      8  C   UNL     1     -10.880  15.208  68.780  0.00  0.00    -0.012 A 
ATOM      9  C   UNL     1     -10.962  13.834  69.014  0.00  0.00    -0.004 A 
ATOM     10  C   UNL     1     -11.924  13.274  69.815  0.00  0.00    -0.000 A 
ATOM     11  C   UNL     1     -12.406  14.067  70.846  0.00  0.00    -0.000 A 
ATOM     12  C   UNL     1     -12.505  15.420  70.536  0.00  0.00    -0.000 A 
ATOM     13  C   UNL     1     -11.856  15.924  69.414  0.00  0.00    -0.004 A 
ENDBRANCH   1   8
BRANCH   1  14
ATOM     14  C   UNL     1     -10.864  15.050  66.428  0.00  0.00    +0.157 C 
ATOM     15  O   UNL     1     -12.077  14.899  66.535  0.00  0.00    -0.295 OA
BRANCH  14  17
ATOM     16  C   UNL     1     -10.427  13.675  64.705  0.00  0.00    +0.008 C 
ATOM     17  C   UNL     1     -10.058  14.261  65.450  0.00  0.00    +0.065 C 
ENDBRANCH  14  17
ENDBRANCH   1  14
BRANCH   1  18
ATOM     18  C   UNL     1      -8.719  15.129  67.460  0.00  0.00    +0.031 C 
BRANCH  18  19
ATOM     19  C   UNL     1      -7.937  15.191  68.926  0.00  0.00    +0.059 C 
ATOM     20  C   UNL     1      -7.205  13.713  68.659  0.00  0.00    +0.017 C 
BRANCH  19  21
ATOM     21  N   UNL     1      -6.692  15.977  68.300  0.00  0.00    -0.272 NA
ATOM     22  C   UNL     1      -6.341  16.876  69.378  0.00  0.00    +0.090 C 
ATOM     23  C   UNL     1      -5.673  15.000  68.088  0.00  0.00    +0.090 C 
ENDBRANCH  19  21
ENDBRANCH  18  19
ENDBRANCH   1  18
TORSDOF 7
ENDMDL
MODEL 7
REMARK VINA RESULT:      -5.3      1.436      4.652
REMARK  Name = 
REMARK  7 active torsions:
REMARK  status: ('A' for Active; 'I' for Inactive)
REMARK    1  A    between atoms: C_2  and  C_3
REMARK    2  A    between atoms: C_3  and  C_5
REMARK    3  A    between atoms: C_5  and  C_6
REMARK    4  A    between atoms: C_5  and  C_12
REMARK    5  A    between atoms: C_5  and  C_18
REMARK    6  A    between atoms: C_6  and  C_7
REMARK    7  A    between atoms: C_7  and  N_9
REMARK                            x       y       z     vdW  Elec       q    Type
REMARK                         _______ _______ _______ _____ _____    ______ ____
ROOT
ATOM      1  C   UNL     1      -9.949  15.773  68.030  0.00  0.00    +0.090 C 
ENDROOT
BRANCH   1   2
ATOM      2  C   UNL     1     -10.026  17.229  67.674  0.00  0.00    -0.012 A 
ATOM      3  C   UNL     1      -9.872  18.171  68.652  0.00  0.00    -0.004 A 
ATOM      4  C   UNL     1      -9.961  19.533  68.393  0.00  0.00    -0.000 A 
ATOM      5  C   UNL     1     -10.299  19.895  67.112  0.00  0.00    -0.000 A 
ATOM      6  C   UNL     1     -10.345  18.974  66.083  0.00  0.00    -0.000 A 
ATOM      7  C   UNL     1     -10.322  17.641  66.404  0.00  0.00    -0.004 A 
ENDBRANCH   1   2
BRANCH   1   8
ATOM      8  C   UNL     1     -10.416  15.033  66.879  0.00  0.00    -0.012 A 
ATOM      9  C   UNL     1      -9.980  13.706  66.844  0.00  0.00    -0.004 A 
ATOM     10  C   UNL     1      -9.995  12.950  65.700  0.00  0.00    -0.000 A 
ATOM     11  C   UNL     1     -10.971  13.265  64.765  0.00  0.00    -0.000 A 
ATOM     12  C   UNL     1     -11.262  14.622  64.669  0.00  0.00    -0.000 A 
ATOM     13  C   UNL     1     -10.838  15.495  65.664  0.00  0.00    -0.004 A 
ENDBRANCH   1   8
BRANCH   1  14
ATOM     14  C   UNL     1      -8.474  15.485  68.136  0.00  0.00    +0.157 C 
ATOM     15  O   UNL     1      -7.991  15.295  69.248  0.00  0.00    -0.295 OA
BRANCH  14  17
ATOM     16  C   UNL     1      -6.696  16.342  67.061  0.00  0.00    +0.008 C 
ATOM     17  C   UNL     1      -7.652  15.999  67.001  0.00  0.00    +0.065 C 
ENDBRANCH  14  17
ENDBRANCH   1  14
BRANCH   1  18
ATOM     18  C   UNL     1     -10.522  15.588  69.348  0.00  0.00    +0.031 C 
BRANCH  18  19
ATOM     19  C   UNL     1     -12.145  15.255  69.215  0.00  0.00    +0.059 C 
ATOM     20  C   UNL     1     -11.951  13.755  69.924  0.00  0.00    +0.017 C 
BRANCH  19  21
ATOM     21  N   UNL     1     -12.466  15.937  70.626  0.00  0.00    -0.272 NA
ATOM     22  C   UNL     1     -13.638  15.202  71.048  0.00  0.00    +0.090 C 
ATOM     23  C   UNL     1     -11.346  15.653  71.466  0.00  0.00    +0.090 C 
ENDBRANCH  19  21
ENDBRANCH  18  19
ENDBRANCH   1  18
TORSDOF 7
ENDMDL
MODEL 8
REMARK VINA RESULT:      -5.3      1.960      4.469
REMARK  Name = 
REMARK  7 active torsions:
REMARK  status: ('A' for Active; 'I' for Inactive)
REMARK    1  A    between atoms: C_2  and  C_3
REMARK    2  A    between atoms: C_3  and  C_5
REMARK    3  A    between atoms: C_5  and  C_6
REMARK    4  A    between atoms: C_5  and  C_12
REMARK    5  A    between atoms: C_5  and  C_18
REMARK    6  A    between atoms: C_6  and  C_7
REMARK    7  A    between atoms: C_7  and  N_9
REMARK                            x       y       z     vdW  Elec       q    Type
REMARK                         _______ _______ _______ _____ _____    ______ ____
ROOT
ATOM      1  C   UNL     1     -10.286  15.562  67.717  0.00  0.00    +0.090 C 
ENDROOT
BRANCH   1   2
ATOM      2  C   UNL     1     -11.147  14.970  68.794  0.00  0.00    -0.012 A 
ATOM      3  C   UNL     1     -11.900  15.794  69.583  0.00  0.00    -0.004 A 
ATOM      4  C   UNL     1     -12.696  15.311  70.615  0.00  0.00    -0.000 A 
ATOM      5  C   UNL     1     -12.627  13.963  70.866  0.00  0.00    -0.000 A 
ATOM      6  C   UNL     1     -11.969  13.096  70.015  0.00  0.00    -0.000 A 
ATOM      7  C   UNL     1     -11.144  13.628  69.058  0.00  0.00    -0.004 A 
ENDBRANCH   1   2
BRANCH   1   8
ATOM      8  C   UNL     1      -8.924  15.168  68.004  0.00  0.00    -0.012 A 
ATOM      9  C   UNL     1      -8.458  14.118  67.209  0.00  0.00    -0.004 A 
ATOM     10  C   UNL     1      -7.364  13.363  67.544  0.00  0.00    -0.000 A 
ATOM     11  C   UNL     1      -6.387  13.994  68.301  0.00  0.00    -0.000 A 
ATOM     12  C   UNL     1      -6.877  14.903  69.233  0.00  0.00    -0.000 A 
ATOM     13  C   UNL     1      -8.191  15.350  69.144  0.00  0.00    -0.004 A 
ENDBRANCH   1   8
BRANCH   1  14
ATOM     14  C   UNL     1     -10.676  14.819  66.466  0.00  0.00    +0.157 C 
ATOM     15  O   UNL     1     -10.061  15.050  65.430  0.00  0.00    -0.295 OA
BRANCH  14  17
ATOM     16  C   UNL     1     -12.567  13.923  65.646  0.00  0.00    +0.008 C 
ATOM     17  C   UNL     1     -12.081  14.314  66.449  0.00  0.00    +0.065 C 
ENDBRANCH  14  17
ENDBRANCH   1  14
BRANCH   1  18
ATOM     18  C   UNL     1     -10.663  16.948  67.532  0.00  0.00    +0.031 C 
BRANCH  18  19
ATOM     19  C   UNL     1      -9.340  17.834  67.054  0.00  0.00    +0.059 C 
ATOM     20  C   UNL     1     -10.295  18.896  66.188  0.00  0.00    +0.017 C 
BRANCH  19  21
ATOM     21  N   UNL     1      -9.407  18.758  68.359  0.00  0.00    -0.272 NA
ATOM     22  C   UNL     1      -8.009  19.052  68.583  0.00  0.00    +0.090 C 
ATOM     23  C   UNL     1     -10.128  19.930  67.976  0.00  0.00    +0.090 C 
ENDBRANCH  19  21
ENDBRANCH  18  19
ENDBRANCH   1  18
TORSDOF 7
ENDMDL
MODEL 9
REMARK VINA RESULT:      -5.2      1.286      4.382
REMARK  Name = 
REMARK  7 active torsions:
REMARK  status: ('A' for Active; 'I' for Inactive)
REMARK    1  A    between atoms: C_2  and  C_3
REMARK    2  A    between atoms: C_3  and  C_5
REMARK    3  A    between atoms: C_5  and  C_6
REMARK    4  A    between atoms: C_5  and  C_12
REMARK    5  A    between atoms: C_5  and  C_18
REMARK    6  A    between atoms: C_6  and  C_7
REMARK    7  A    between atoms: C_7  and  N_9
REMARK                            x       y       z     vdW  Elec       q    Type
REMARK                         _______ _______ _______ _____ _____    ______ ____
ROOT
ATOM      1  C   UNL     1     -10.337  14.701  67.845  0.00  0.00    +0.090 C 
ENDROOT
BRANCH   1   2
ATOM      2  C   UNL     1      -8.874  14.701  68.179  0.00  0.00    -0.012 A 
ATOM      3  C   UNL     1      -7.990  14.088  67.335  0.00  0.00    -0.004 A 
ATOM      4  C   UNL     1      -6.628  14.028  67.602  0.00  0.00    -0.000 A 
ATOM      5  C   UNL     1      -6.213  14.543  68.805  0.00  0.00    -0.000 A 
ATOM      6  C   UNL     1      -7.062  15.267  69.619  0.00  0.00    -0.000 A 
ATOM      7  C   UNL     1      -8.405  15.235  69.348  0.00  0.00    -0.004 A 
ENDBRANCH   1   2
BRANCH   1   8
ATOM      8  C   UNL     1     -11.011  13.986  68.906  0.00  0.00    -0.012 A 
ATOM      9  C   UNL     1     -10.906  12.596  68.809  0.00  0.00    -0.004 A 
ATOM     10  C   UNL     1     -11.746  11.740  69.474  0.00  0.00    -0.000 A 
ATOM     11  C   UNL     1     -12.271  12.199  70.673  0.00  0.00    -0.000 A 
ATOM     12  C   UNL     1     -12.557  13.560  70.695  0.00  0.00    -0.000 A 
ATOM     13  C   UNL     1     -12.036  14.395  69.712  0.00  0.00    -0.004 A 
ENDBRANCH   1   8
BRANCH   1  14
ATOM     14  C   UNL     1     -10.759  16.141  67.984  0.00  0.00    +0.157 C 
ATOM     15  O   UNL     1     -11.774  16.396  68.624  0.00  0.00    -0.295 OA
BRANCH  14  17
ATOM     16  C   UNL     1     -10.269  18.063  66.928  0.00  0.00    +0.008 C 
ATOM     17  C   UNL     1     -10.262  17.046  66.907  0.00  0.00    +0.065 C 
ENDBRANCH  14  17
ENDBRANCH   1  14
BRANCH   1  18
ATOM     18  C   UNL     1     -10.493  14.337  66.452  0.00  0.00    +0.031 C 
BRANCH  18  19
ATOM     19  C   UNL     1     -12.087  13.984  66.137  0.00  0.00    +0.059 C 
ATOM     20  C   UNL     1     -12.022  14.752  64.655  0.00  0.00    +0.017 C 
BRANCH  19  21
ATOM     21  N   UNL     1     -11.711  12.574  65.480  0.00  0.00    -0.272 NA
ATOM     22  C   UNL     1     -12.742  12.435  64.474  0.00  0.00    +0.090 C 
ATOM     23  C   UNL     1     -10.425  12.746  64.883  0.00  0.00    +0.090 C 
ENDBRANCH  19  21
ENDBRANCH  18  19
ENDBRANCH   1  18
TORSDOF 7
ENDMDL
