MODEL 1
REMARK VINA RESULT:      -7.4      0.000      0.000
REMARK  Name = 
REMARK  7 active torsions:
REMARK  status: ('A' for Active; 'I' for Inactive)
REMARK    1  A    between atoms: C_2  and  C_3
REMARK    2  A    between atoms: C_3  and  C_5
REMARK    3  A    between atoms: C_5  and  O_7
REMARK    4  A    between atoms: O_7  and  C_8
REMARK    5  A    between atoms: C_18  and  C_19
REMARK    6  A    between atoms: C_19  and  C_20
REMARK    7  A    between atoms: C_20  and  C_21
REMARK                            x       y       z     vdW  Elec       q    Type
REMARK                         _______ _______ _______ _____ _____    ______ ____
ROOT
ATOM      1  C   UNL     1     -11.967  12.808  67.560  0.00  0.00    +0.173 C 
ATOM      2  C   UNL     1     -10.599  13.337  68.492  0.00  0.00    +0.062 C 
ATOM      3  C   UNL     1      -9.465  13.013  67.423  0.00  0.00    -0.024 C 
ATOM      4  C   UNL     1      -8.267  13.785  67.850  0.00  0.00    -0.009 C 
ATOM      5  C   UNL     1      -8.501  15.100  67.946  0.00  0.00    -0.027 C 
ATOM      6  C   UNL     1      -9.740  15.183  66.903  0.00  0.00    +0.022 C 
ATOM      7  C   UNL     1      -9.864  16.812  67.042  0.00  0.00    +0.005 C 
ATOM      8  C   UNL     1      -9.182  11.726  67.458  0.00  0.00    -0.030 C 
ATOM      9  C   UNL     1     -10.310  10.966  68.360  0.00  0.00    +0.025 C 
ATOM     10  C   UNL     1      -9.944   9.522  67.629  0.00  0.00    +0.005 C 
ATOM     11  C   UNL     1     -10.989  14.933  68.050  0.00  0.00    +0.012 C 
ATOM     12  C   UNL     1     -11.425  11.294  67.202  0.00  0.00    +0.048 C 
ENDROOT
BRANCH   1  13
ATOM     13  O   UNL     1     -11.393  13.370  66.226  0.00  0.00    -0.452 OA
BRANCH  13  14
ATOM     14  C   UNL     1     -12.398  13.417  65.295  0.00  0.00    +0.316 C 
ATOM     15  O   UNL     1     -13.428  13.993  65.598  0.00  0.00    -0.250 OA
BRANCH  14  16
ATOM     16  C   UNL     1     -11.898  13.406  63.754  0.00  0.00    +0.099 C 
ATOM     17  C   UNL     1     -10.346  13.055  64.223  0.00  0.00    +0.012 C 
BRANCH  16  19
ATOM     18  C   UNL     1     -10.997  11.232  63.515  0.00  0.00    +0.001 C 
ATOM     19  C   UNL     1     -12.210  11.796  63.499  0.00  0.00    +0.011 C 
ENDBRANCH  16  19
ENDBRANCH  14  16
ENDBRANCH  13  14
ENDBRANCH   1  13
BRANCH  11  20
ATOM     20  C   UNL     1     -10.241  15.573  69.335  0.00  0.00    +0.004 C 
BRANCH  20  21
ATOM     21  C   UNL     1     -11.199  16.408  70.125  0.00  0.00    +0.044 C 
BRANCH  21  22
ATOM     22  C   UNL     1     -11.593  15.324  71.333  0.00  0.00    +0.171 C 
ATOM     23  O   UNL     1     -11.772  16.440  72.423  0.00  0.00    -0.452 OA
ATOM     24  C   UNL     1     -12.748  15.894  73.278  0.00  0.00    +0.319 C 
ATOM     25  O   UNL     1     -13.684  16.509  73.795  0.00  0.00    -0.250 OA
ATOM     26  C   UNL     1     -12.807  14.437  73.187  0.00  0.00    +0.142 C 
ATOM     27  C   UNL     1     -13.758  14.105  71.842  0.00  0.00    +0.167 C 
ATOM     28  O   UNL     1     -12.683  13.171  71.243  0.00  0.00    -0.222 OA
ATOM     29  C   UNL     1     -13.213  15.416  70.947  0.00  0.00    +0.077 C 
ENDBRANCH  21  22
ENDBRANCH  20  21
ENDBRANCH  11  20
TORSDOF 7
ENDMDL
MODEL 2
REMARK VINA RESULT:      -6.7      2.820      5.584
REMARK  Name = 
REMARK  7 active torsions:
REMARK  status: ('A' for Active; 'I' for Inactive)
REMARK    1  A    between atoms: C_2  and  C_3
REMARK    2  A    between atoms: C_3  and  C_5
REMARK    3  A    between atoms: C_5  and  O_7
REMARK    4  A    between atoms: O_7  and  C_8
REMARK    5  A    between atoms: C_18  and  C_19
REMARK    6  A    between atoms: C_19  and  C_20
REMARK    7  A    between atoms: C_20  and  C_21
REMARK                            x       y       z     vdW  Elec       q    Type
REMARK                         _______ _______ _______ _____ _____    ______ ____
ROOT
ATOM      1  C   UNL     1      -8.993  12.192  66.903  0.00  0.00    +0.173 C 
ATOM      2  C   UNL     1      -9.831  13.668  66.530  0.00  0.00    +0.062 C 
ATOM      3  C   UNL     1     -11.315  13.095  66.566  0.00  0.00    -0.024 C 
ATOM      4  C   UNL     1     -12.209  14.277  66.697  0.00  0.00    -0.009 C 
ATOM      5  C   UNL     1     -11.935  15.021  67.778  0.00  0.00    -0.027 C 
ATOM      6  C   UNL     1     -11.251  13.860  68.680  0.00  0.00    +0.022 C 
ATOM      7  C   UNL     1     -11.053  14.853  69.969  0.00  0.00    +0.005 C 
ATOM      8  C   UNL     1     -11.578  12.483  65.429  0.00  0.00    -0.030 C 
ATOM      9  C   UNL     1     -10.187  12.312  64.592  0.00  0.00    +0.025 C 
ATOM     10  C   UNL     1     -10.852  11.072  63.710  0.00  0.00    +0.005 C 
ATOM     11  C   UNL     1      -9.638  14.120  68.159  0.00  0.00    +0.012 C 
ATOM     12  C   UNL     1      -9.660  11.251  65.727  0.00  0.00    +0.048 C 
ENDROOT
BRANCH   1  13
ATOM     13  O   UNL     1     -10.069  11.733  67.932  0.00  0.00    -0.452 OA
BRANCH  13  14
ATOM     14  C   UNL     1      -9.649  10.569  68.524  0.00  0.00    +0.316 C 
ATOM     15  O   UNL     1      -8.610  10.596  69.160  0.00  0.00    -0.250 OA
BRANCH  14  16
ATOM     16  C   UNL     1     -10.839   9.559  68.955  0.00  0.00    +0.099 C 
ATOM     17  C   UNL     1     -10.317   9.559  70.530  0.00  0.00    +0.012 C 
BRANCH  16  19
ATOM     18  C   UNL     1     -12.074  10.690  70.627  0.00  0.00    +0.001 C 
ATOM     19  C   UNL     1     -11.942  10.752  69.297  0.00  0.00    +0.011 C 
ENDBRANCH  16  19
ENDBRANCH  14  16
ENDBRANCH  13  14
ENDBRANCH   1  13
BRANCH  11  20
ATOM     20  C   UNL     1      -9.763  15.701  67.834  0.00  0.00    +0.004 C 
BRANCH  20  21
ATOM     21  C   UNL     1      -8.512  16.411  68.245  0.00  0.00    +0.044 C 
BRANCH  21  22
ATOM     22  C   UNL     1      -8.998  17.994  68.025  0.00  0.00    +0.171 C 
ATOM     23  O   UNL     1      -7.631  18.436  67.389  0.00  0.00    -0.452 OA
ATOM     24  C   UNL     1      -8.011  19.467  66.508  0.00  0.00    +0.319 C 
ATOM     25  O   UNL     1      -7.562  19.653  65.375  0.00  0.00    -0.250 OA
ATOM     26  C   UNL     1      -9.288  20.071  66.885  0.00  0.00    +0.142 C 
ATOM     27  C   UNL     1     -10.472  19.058  66.256  0.00  0.00    +0.167 C 
ATOM     28  O   UNL     1     -11.181  18.946  67.625  0.00  0.00    -0.222 OA
ATOM     29  C   UNL     1      -9.608  17.642  66.512  0.00  0.00    +0.077 C 
ENDBRANCH  21  22
ENDBRANCH  20  21
ENDBRANCH  11  20
TORSDOF 7
ENDMDL
MODEL 3
REMARK VINA RESULT:      -6.3      4.304      6.136
REMARK  Name = 
REMARK  7 active torsions:
REMARK  status: ('A' for Active; 'I' for Inactive)
REMARK    1  A    between atoms: C_2  and  C_3
REMARK    2  A    between atoms: C_3  and  C_5
REMARK    3  A    between atoms: C_5  and  O_7
REMARK    4  A    between atoms: O_7  and  C_8
REMARK    5  A    between atoms: C_18  and  C_19
REMARK    6  A    between atoms: C_19  and  C_20
REMARK    7  A    between atoms: C_20  and  C_21
REMARK                            x       y       z     vdW  Elec       q    Type
REMARK                         _______ _______ _______ _____ _____    ______ ____
ROOT
ATOM      1  C   UNL     1     -10.652  17.057  67.712  0.00  0.00    +0.173 C 
ATOM      2  C   UNL     1      -9.359  17.022  68.873  0.00  0.00    +0.062 C 
ATOM      3  C   UNL     1      -9.091  15.453  68.858  0.00  0.00    -0.024 C 
ATOM      4  C   UNL     1      -7.743  15.261  69.458  0.00  0.00    -0.009 C 
ATOM      5  C   UNL     1      -6.784  15.937  68.810  0.00  0.00    -0.027 C 
ATOM      6  C   UNL     1      -7.512  16.029  67.365  0.00  0.00    +0.022 C 
ATOM      7  C   UNL     1      -6.230  16.774  66.666  0.00  0.00    +0.005 C 
ATOM      8  C   UNL     1      -9.986  14.847  69.613  0.00  0.00    -0.030 C 
ATOM      9  C   UNL     1     -11.158  15.916  69.997  0.00  0.00    +0.025 C 
ATOM     10  C   UNL     1     -12.210  14.673  70.317  0.00  0.00    +0.005 C 
ATOM     11  C   UNL     1      -8.309  17.523  67.631  0.00  0.00    +0.012 C 
ATOM     12  C   UNL     1     -11.626  15.936  68.425  0.00  0.00    +0.048 C 
ENDROOT
BRANCH   1  13
ATOM     13  O   UNL     1      -9.996  15.968  66.811  0.00  0.00    -0.452 OA
BRANCH  13  14
ATOM     14  C   UNL     1     -10.640  15.947  65.600  0.00  0.00    +0.316 C 
ATOM     15  O   UNL     1     -10.741  16.997  64.991  0.00  0.00    -0.250 OA
BRANCH  14  16
ATOM     16  C   UNL     1     -10.521  14.548  64.792  0.00  0.00    +0.099 C 
ATOM     17  C   UNL     1     -10.048  13.752  66.169  0.00  0.00    +0.012 C 
BRANCH  16  19
ATOM     18  C   UNL     1     -12.008  13.152  65.991  0.00  0.00    +0.001 C 
ATOM     19  C   UNL     1     -12.097  14.089  65.040  0.00  0.00    +0.011 C 
ENDBRANCH  16  19
ENDBRANCH  14  16
ENDBRANCH  13  14
ENDBRANCH   1  13
BRANCH  11  20
ATOM     20  C   UNL     1      -7.240  18.162  68.664  0.00  0.00    +0.004 C 
BRANCH  20  21
ATOM     21  C   UNL     1      -7.204  19.650  68.512  0.00  0.00    +0.044 C 
BRANCH  21  22
ATOM     22  C   UNL     1      -5.562  19.914  68.664  0.00  0.00    +0.171 C 
ATOM     23  O   UNL     1      -5.742  21.204  69.541  0.00  0.00    -0.452 OA
ATOM     24  C   UNL     1      -4.593  21.197  70.354  0.00  0.00    +0.319 C 
ATOM     25  O   UNL     1      -4.551  21.487  71.552  0.00  0.00    -0.250 OA
ATOM     26  C   UNL     1      -3.505  20.421  69.763  0.00  0.00    +0.142 C 
ATOM     27  C   UNL     1      -3.826  18.819  70.154  0.00  0.00    +0.167 C 
ATOM     28  O   UNL     1      -3.700  18.376  68.679  0.00  0.00    -0.222 OA
ATOM     29  C   UNL     1      -5.493  18.969  70.037  0.00  0.00    +0.077 C 
ENDBRANCH  21  22
ENDBRANCH  20  21
ENDBRANCH  11  20
TORSDOF 7
ENDMDL
MODEL 4
REMARK VINA RESULT:      -6.3      3.779      6.599
REMARK  Name = 
REMARK  7 active torsions:
REMARK  status: ('A' for Active; 'I' for Inactive)
REMARK    1  A    between atoms: C_2  and  C_3
REMARK    2  A    between atoms: C_3  and  C_5
REMARK    3  A    between atoms: C_5  and  O_7
REMARK    4  A    between atoms: O_7  and  C_8
REMARK    5  A    between atoms: C_18  and  C_19
REMARK    6  A    between atoms: C_19  and  C_20
REMARK    7  A    between atoms: C_20  and  C_21
REMARK                            x       y       z     vdW  Elec       q    Type
REMARK                         _______ _______ _______ _____ _____    ______ ____
ROOT
ATOM      1  C   UNL     1     -10.451  14.699  69.489  0.00  0.00    +0.173 C 
ATOM      2  C   UNL     1      -9.580  15.271  68.098  0.00  0.00    +0.062 C 
ATOM      3  C   UNL     1     -10.828  15.515  67.142  0.00  0.00    -0.024 C 
ATOM      4  C   UNL     1     -10.343  16.407  66.054  0.00  0.00    -0.009 C 
ATOM      5  C   UNL     1      -9.834  17.559  66.512  0.00  0.00    -0.027 C 
ATOM      6  C   UNL     1     -10.643  17.618  67.916  0.00  0.00    +0.022 C 
ATOM      7  C   UNL     1     -10.014  19.077  68.320  0.00  0.00    +0.005 C 
ATOM      8  C   UNL     1     -11.212  14.369  66.617  0.00  0.00    -0.030 C 
ATOM      9  C   UNL     1     -10.444  13.155  67.393  0.00  0.00    +0.025 C 
ATOM     10  C   UNL     1     -11.610  12.081  66.900  0.00  0.00    +0.005 C 
ATOM     11  C   UNL     1      -9.478  16.790  68.860  0.00  0.00    +0.012 C 
ATOM     12  C   UNL     1     -11.306  13.503  68.745  0.00  0.00    +0.048 C 
ENDROOT
BRANCH   1  13
ATOM     13  O   UNL     1     -11.619  15.710  69.289  0.00  0.00    -0.452 OA
BRANCH  13  14
ATOM     14  C   UNL     1     -12.388  15.730  70.424  0.00  0.00    +0.316 C 
ATOM     15  O   UNL     1     -13.590  15.881  70.295  0.00  0.00    -0.250 OA
BRANCH  14  16
ATOM     16  C   UNL     1     -11.809  14.848  71.653  0.00  0.00    +0.099 C 
ATOM     17  C   UNL     1     -11.972  16.128  72.696  0.00  0.00    +0.012 C 
BRANCH  16  19
ATOM     18  C   UNL     1     -13.147  12.923  71.975  0.00  0.00    +0.001 C 
ATOM     19  C   UNL     1     -13.283  14.246  72.123  0.00  0.00    +0.011 C 
ENDBRANCH  16  19
ENDBRANCH  14  16
ENDBRANCH  13  14
ENDBRANCH   1  13
BRANCH  11  20
ATOM     20  C   UNL     1      -8.164  17.227  68.023  0.00  0.00    +0.004 C 
BRANCH  20  21
ATOM     21  C   UNL     1      -6.993  17.376  68.943  0.00  0.00    +0.044 C 
BRANCH  21  22
ATOM     22  C   UNL     1      -6.296  18.749  68.297  0.00  0.00    +0.171 C 
ATOM     23  O   UNL     1      -6.778  19.675  69.470  0.00  0.00    -0.452 OA
ATOM     24  C   UNL     1      -5.771  20.657  69.534  0.00  0.00    +0.319 C 
ATOM     25  O   UNL     1      -5.289  21.134  70.563  0.00  0.00    -0.250 OA
ATOM     26  C   UNL     1      -5.042  20.780  68.273  0.00  0.00    +0.142 C 
ATOM     27  C   UNL     1      -3.891  19.556  68.293  0.00  0.00    +0.167 C 
ATOM     28  O   UNL     1      -4.340  19.036  66.909  0.00  0.00    -0.222 OA
ATOM     29  C   UNL     1      -4.863  18.451  69.099  0.00  0.00    +0.077 C 
ENDBRANCH  21  22
ENDBRANCH  20  21
ENDBRANCH  11  20
TORSDOF 7
ENDMDL
MODEL 5
REMARK VINA RESULT:      -6.3      3.989      7.175
REMARK  Name = 
REMARK  7 active torsions:
REMARK  status: ('A' for Active; 'I' for Inactive)
REMARK    1  A    between atoms: C_2  and  C_3
REMARK    2  A    between atoms: C_3  and  C_5
REMARK    3  A    between atoms: C_5  and  O_7
REMARK    4  A    between atoms: O_7  and  C_8
REMARK    5  A    between atoms: C_18  and  C_19
REMARK    6  A    between atoms: C_19  and  C_20
REMARK    7  A    between atoms: C_20  and  C_21
REMARK                            x       y       z     vdW  Elec       q    Type
REMARK                         _______ _______ _______ _____ _____    ______ ____
ROOT
ATOM      1  C   UNL     1      -6.667  17.261  66.476  0.00  0.00    +0.173 C 
ATOM      2  C   UNL     1      -7.992  17.351  67.596  0.00  0.00    +0.062 C 
ATOM      3  C   UNL     1      -7.657  18.775  68.222  0.00  0.00    -0.024 C 
ATOM      4  C   UNL     1      -8.904  19.233  68.893  0.00  0.00    -0.009 C 
ATOM      5  C   UNL     1      -9.953  19.288  68.062  0.00  0.00    -0.027 C 
ATOM      6  C   UNL     1      -9.132  19.479  66.677  0.00  0.00    +0.022 C 
ATOM      7  C   UNL     1     -10.498  19.621  65.782  0.00  0.00    +0.005 C 
ATOM      8  C   UNL     1      -6.706  18.646  69.125  0.00  0.00    -0.030 C 
ATOM      9  C   UNL     1      -6.072  17.147  69.008  0.00  0.00    +0.025 C 
ATOM     10  C   UNL     1      -4.685  17.656  69.765  0.00  0.00    +0.005 C 
ATOM     11  C   UNL     1      -8.985  17.815  66.294  0.00  0.00    +0.012 C 
ATOM     12  C   UNL     1      -5.447  17.548  67.545  0.00  0.00    +0.048 C 
ENDROOT
BRANCH   1  13
ATOM     13  O   UNL     1      -6.753  18.773  66.110  0.00  0.00    -0.452 OA
BRANCH  13  14
ATOM     14  C   UNL     1      -5.814  19.052  65.150  0.00  0.00    +0.316 C 
ATOM     15  O   UNL     1      -6.132  18.906  63.983  0.00  0.00    -0.250 OA
BRANCH  14  16
ATOM     16  C   UNL     1      -4.740  20.193  65.562  0.00  0.00    +0.099 C 
ATOM     17  C   UNL     1      -4.947  20.963  64.107  0.00  0.00    +0.012 C 
BRANCH  16  19
ATOM     18  C   UNL     1      -5.268  21.536  67.437  0.00  0.00    +0.001 C 
ATOM     19  C   UNL     1      -5.848  21.200  66.279  0.00  0.00    +0.011 C 
ENDBRANCH  16  19
ENDBRANCH  14  16
ENDBRANCH  13  14
ENDBRANCH   1  13
BRANCH  11  20
ATOM     20  C   UNL     1     -10.338  17.301  67.019  0.00  0.00    +0.004 C 
BRANCH  20  21
ATOM     21  C   UNL     1     -10.885  16.108  66.302  0.00  0.00    +0.044 C 
BRANCH  21  22
ATOM     22  C   UNL     1     -10.780  14.970  67.520  0.00  0.00    +0.171 C 
ATOM     23  O   UNL     1     -12.045  14.177  67.034  0.00  0.00    -0.452 OA
ATOM     24  C   UNL     1     -11.760  12.855  67.424  0.00  0.00    +0.319 C 
ATOM     25  O   UNL     1     -11.989  11.839  66.764  0.00  0.00    -0.250 OA
ATOM     26  C   UNL     1     -10.788  12.800  68.515  0.00  0.00    +0.142 C 
ATOM     27  C   UNL     1      -9.281  12.942  67.787  0.00  0.00    +0.167 C 
ATOM     28  O   UNL     1      -8.876  14.101  68.725  0.00  0.00    -0.222 OA
ATOM     29  C   UNL     1      -9.792  14.000  66.589  0.00  0.00    +0.077 C 
ENDBRANCH  21  22
ENDBRANCH  20  21
ENDBRANCH  11  20
TORSDOF 7
ENDMDL
MODEL 6
REMARK VINA RESULT:      -6.2      2.820      5.621
REMARK  Name = 
REMARK  7 active torsions:
REMARK  status: ('A' for Active; 'I' for Inactive)
REMARK    1  A    between atoms: C_2  and  C_3
REMARK    2  A    between atoms: C_3  and  C_5
REMARK    3  A    between atoms: C_5  and  O_7
REMARK    4  A    between atoms: O_7  and  C_8
REMARK    5  A    between atoms: C_18  and  C_19
REMARK    6  A    between atoms: C_19  and  C_20
REMARK    7  A    between atoms: C_20  and  C_21
REMARK                            x       y       z     vdW  Elec       q    Type
REMARK                         _______ _______ _______ _____ _____    ______ ____
ROOT
ATOM      1  C   UNL     1      -8.784  11.484  67.765  0.00  0.00    +0.173 C 
ATOM      2  C   UNL     1      -9.599  12.702  66.831  0.00  0.00    +0.062 C 
ATOM      3  C   UNL     1     -10.931  11.888  66.521  0.00  0.00    -0.024 C 
ATOM      4  C   UNL     1     -11.940  12.896  66.100  0.00  0.00    -0.009 C 
ATOM      5  C   UNL     1     -12.141  13.849  67.020  0.00  0.00    -0.027 C 
ATOM      6  C   UNL     1     -11.687  12.999  68.324  0.00  0.00    +0.022 C 
ATOM      7  C   UNL     1     -12.059  14.216  69.358  0.00  0.00    +0.005 C 
ATOM      8  C   UNL     1     -10.715  11.054  65.523  0.00  0.00    -0.030 C 
ATOM      9  C   UNL     1      -9.111  10.995  65.228  0.00  0.00    +0.025 C 
ATOM     10  C   UNL     1      -9.287   9.525  64.477  0.00  0.00    +0.005 C 
ATOM     11  C   UNL     1     -10.034  13.451  68.296  0.00  0.00    +0.012 C 
ATOM     12  C   UNL     1      -8.894  10.253  66.675  0.00  0.00    +0.048 C 
ENDROOT
BRANCH   1  13
ATOM     13  O   UNL     1     -10.091  11.022  68.476  0.00  0.00    -0.452 OA
BRANCH  13  14
ATOM     14  C   UNL     1      -9.792   9.989  69.327  0.00  0.00    +0.316 C 
ATOM     15  O   UNL     1      -8.747  10.049  69.951  0.00  0.00    -0.250 OA
BRANCH  14  16
ATOM     16  C   UNL     1     -11.079   9.244  69.969  0.00  0.00    +0.099 C 
ATOM     17  C   UNL     1     -10.230   8.890  71.350  0.00  0.00    +0.012 C 
BRANCH  16  19
ATOM     18  C   UNL     1     -12.980  10.270  70.933  0.00  0.00    +0.001 C 
ATOM     19  C   UNL     1     -11.710  10.605  70.678  0.00  0.00    +0.011 C 
ENDBRANCH  16  19
ENDBRANCH  14  16
ENDBRANCH  13  14
ENDBRANCH   1  13
BRANCH  11  20
ATOM     20  C   UNL     1     -10.213  14.905  67.610  0.00  0.00    +0.004 C 
BRANCH  20  21
ATOM     21  C   UNL     1      -9.160  15.844  68.108  0.00  0.00    +0.044 C 
BRANCH  21  22
ATOM     22  C   UNL     1      -9.347  17.090  67.013  0.00  0.00    +0.171 C 
ATOM     23  O   UNL     1     -10.549  17.736  67.791  0.00  0.00    -0.452 OA
ATOM     24  C   UNL     1     -10.419  19.106  67.494  0.00  0.00    +0.319 C 
ATOM     25  O   UNL     1     -10.587  20.037  68.285  0.00  0.00    -0.250 OA
ATOM     26  C   UNL     1      -9.666  19.333  66.262  0.00  0.00    +0.142 C 
ATOM     27  C   UNL     1      -8.046  19.245  66.699  0.00  0.00    +0.167 C 
ATOM     28  O   UNL     1      -7.748  18.210  65.591  0.00  0.00    -0.222 OA
ATOM     29  C   UNL     1      -8.268  18.047  67.852  0.00  0.00    +0.077 C 
ENDBRANCH  21  22
ENDBRANCH  20  21
ENDBRANCH  11  20
TORSDOF 7
ENDMDL
MODEL 7
REMARK VINA RESULT:      -6.2      2.542      4.997
REMARK  Name = 
REMARK  7 active torsions:
REMARK  status: ('A' for Active; 'I' for Inactive)
REMARK    1  A    between atoms: C_2  and  C_3
REMARK    2  A    between atoms: C_3  and  C_5
REMARK    3  A    between atoms: C_5  and  O_7
REMARK    4  A    between atoms: O_7  and  C_8
REMARK    5  A    between atoms: C_18  and  C_19
REMARK    6  A    between atoms: C_19  and  C_20
REMARK    7  A    between atoms: C_20  and  C_21
REMARK                            x       y       z     vdW  Elec       q    Type
REMARK                         _______ _______ _______ _____ _____    ______ ____
ROOT
ATOM      1  C   UNL     1      -9.304  11.327  66.542  0.00  0.00    +0.173 C 
ATOM      2  C   UNL     1      -9.584  12.211  65.072  0.00  0.00    +0.062 C 
ATOM      3  C   UNL     1     -10.583  11.182  64.382  0.00  0.00    -0.024 C 
ATOM      4  C   UNL     1     -11.277  11.942  63.307  0.00  0.00    -0.009 C 
ATOM      5  C   UNL     1     -11.917  13.026  63.766  0.00  0.00    -0.027 C 
ATOM      6  C   UNL     1     -12.139  12.526  65.292  0.00  0.00    +0.022 C 
ATOM      7  C   UNL     1     -12.988  13.867  65.703  0.00  0.00    +0.005 C 
ATOM      8  C   UNL     1      -9.894  10.200  63.836  0.00  0.00    -0.030 C 
ATOM      9  C   UNL     1      -8.348  10.295  64.350  0.00  0.00    +0.025 C 
ATOM     10  C   UNL     1      -8.111   8.693  63.984  0.00  0.00    +0.005 C 
ATOM     11  C   UNL     1     -10.689  13.178  65.933  0.00  0.00    +0.012 C 
ATOM     12  C   UNL     1      -8.849   9.897  65.861  0.00  0.00    +0.048 C 
ENDROOT
BRANCH   1  13
ATOM     13  O   UNL     1     -10.784  10.850  66.646  0.00  0.00    -0.452 OA
BRANCH  13  14
ATOM     14  C   UNL     1     -10.966  10.230  67.855  0.00  0.00    +0.316 C 
ATOM     15  O   UNL     1     -10.960   9.012  67.877  0.00  0.00    -0.250 OA
BRANCH  14  16
ATOM     16  C   UNL     1     -10.432  11.067  69.135  0.00  0.00    +0.099 C 
ATOM     17  C   UNL     1     -11.817  11.979  69.161  0.00  0.00    +0.012 C 
BRANCH  16  19
ATOM     18  C   UNL     1     -12.113  10.705  70.760  0.00  0.00    +0.001 C 
ATOM     19  C   UNL     1     -11.063  10.035  70.272  0.00  0.00    +0.011 C 
ENDBRANCH  16  19
ENDBRANCH  14  16
ENDBRANCH  13  14
ENDBRANCH   1  13
BRANCH  11  20
ATOM     20  C   UNL     1     -10.538  14.426  64.915  0.00  0.00    +0.004 C 
BRANCH  20  21
ATOM     21  C   UNL     1      -9.715  15.506  65.543  0.00  0.00    +0.044 C 
BRANCH  21  22
ATOM     22  C   UNL     1      -9.975  15.162  67.156  0.00  0.00    +0.171 C 
ATOM     23  O   UNL     1      -8.445  15.155  67.511  0.00  0.00    -0.452 OA
ATOM     24  C   UNL     1      -8.430  15.587  68.851  0.00  0.00    +0.319 C 
ATOM     25  O   UNL     1      -7.616  16.366  69.352  0.00  0.00    -0.250 OA
ATOM     26  C   UNL     1      -9.708  15.353  69.520  0.00  0.00    +0.142 C 
ATOM     27  C   UNL     1     -10.690  16.646  69.085  0.00  0.00    +0.167 C 
ATOM     28  O   UNL     1     -11.820  15.701  68.618  0.00  0.00    -0.222 OA
ATOM     29  C   UNL     1     -10.073  16.785  67.531  0.00  0.00    +0.077 C 
ENDBRANCH  21  22
ENDBRANCH  20  21
ENDBRANCH  11  20
TORSDOF 7
ENDMDL
MODEL 8
REMARK VINA RESULT:      -6.2      4.000      7.065
REMARK  Name = 
REMARK  7 active torsions:
REMARK  status: ('A' for Active; 'I' for Inactive)
REMARK    1  A    between atoms: C_2  and  C_3
REMARK    2  A    between atoms: C_3  and  C_5
REMARK    3  A    between atoms: C_5  and  O_7
REMARK    4  A    between atoms: O_7  and  C_8
REMARK    5  A    between atoms: C_18  and  C_19
REMARK    6  A    between atoms: C_19  and  C_20
REMARK    7  A    between atoms: C_20  and  C_21
REMARK                            x       y       z     vdW  Elec       q    Type
REMARK                         _______ _______ _______ _____ _____    ______ ____
ROOT
ATOM      1  C   UNL     1     -10.115  15.112  69.304  0.00  0.00    +0.173 C 
ATOM      2  C   UNL     1      -9.314  15.802  67.924  0.00  0.00    +0.062 C 
ATOM      3  C   UNL     1     -10.598  16.014  67.007  0.00  0.00    -0.024 C 
ATOM      4  C   UNL     1     -10.195  16.985  65.954  0.00  0.00    -0.009 C 
ATOM      5  C   UNL     1      -9.745  18.142  66.457  0.00  0.00    -0.027 C 
ATOM      6  C   UNL     1     -10.522  18.085  67.879  0.00  0.00    +0.022 C 
ATOM      7  C   UNL     1      -9.973  19.559  68.340  0.00  0.00    +0.005 C 
ATOM      8  C   UNL     1     -10.924  14.872  66.435  0.00  0.00    -0.030 C 
ATOM      9  C   UNL     1     -10.065  13.672  67.135  0.00  0.00    +0.025 C 
ATOM     10  C   UNL     1     -11.175  12.553  66.616  0.00  0.00    +0.005 C 
ATOM     11  C   UNL     1      -9.286  17.286  68.756  0.00  0.00    +0.012 C 
ATOM     12  C   UNL     1     -10.913  13.903  68.520  0.00  0.00    +0.048 C 
ENDROOT
BRANCH   1  13
ATOM     13  O   UNL     1     -11.347  16.058  69.178  0.00  0.00    -0.452 OA
BRANCH  13  14
ATOM     14  C   UNL     1     -12.121  15.928  70.302  0.00  0.00    +0.316 C 
ATOM     15  O   UNL     1     -13.330  15.871  70.157  0.00  0.00    -0.250 OA
BRANCH  14  16
ATOM     16  C   UNL     1     -11.413  15.142  71.528  0.00  0.00    +0.099 C 
ATOM     17  C   UNL     1     -11.993  16.248  72.620  0.00  0.00    +0.012 C 
BRANCH  16  19
ATOM     18  C   UNL     1     -13.070  14.462  73.075  0.00  0.00    +0.001 C 
ATOM     19  C   UNL     1     -12.698  14.135  71.832  0.00  0.00    +0.011 C 
ENDBRANCH  16  19
ENDBRANCH  14  16
ENDBRANCH  13  14
ENDBRANCH   1  13
BRANCH  11  20
ATOM     20  C   UNL     1      -8.021  17.843  67.913  0.00  0.00    +0.004 C 
BRANCH  20  21
ATOM     21  C   UNL     1      -6.789  17.823  68.761  0.00  0.00    +0.044 C 
BRANCH  21  22
ATOM     22  C   UNL     1      -6.197  19.352  68.440  0.00  0.00    +0.171 C 
ATOM     23  O   UNL     1      -4.700  18.879  68.395  0.00  0.00    -0.452 OA
ATOM     24  C   UNL     1      -4.113  19.775  67.482  0.00  0.00    +0.319 C 
ATOM     25  O   UNL     1      -3.283  19.486  66.616  0.00  0.00    -0.250 OA
ATOM     26  C   UNL     1      -4.870  21.020  67.367  0.00  0.00    +0.142 C 
ATOM     27  C   UNL     1      -6.117  20.694  66.289  0.00  0.00    +0.167 C 
ATOM     28  O   UNL     1      -7.181  21.225  67.276  0.00  0.00    -0.222 OA
ATOM     29  C   UNL     1      -6.341  19.110  66.796  0.00  0.00    +0.077 C 
ENDBRANCH  21  22
ENDBRANCH  20  21
ENDBRANCH  11  20
TORSDOF 7
ENDMDL
MODEL 9
REMARK VINA RESULT:      -6.2      3.018      5.551
REMARK  Name = 
REMARK  7 active torsions:
REMARK  status: ('A' for Active; 'I' for Inactive)
REMARK    1  A    between atoms: C_2  and  C_3
REMARK    2  A    between atoms: C_3  and  C_5
REMARK    3  A    between atoms: C_5  and  O_7
REMARK    4  A    between atoms: O_7  and  C_8
REMARK    5  A    between atoms: C_18  and  C_19
REMARK    6  A    between atoms: C_19  and  C_20
REMARK    7  A    between atoms: C_20  and  C_21
REMARK                            x       y       z     vdW  Elec       q    Type
REMARK                         _______ _______ _______ _____ _____    ______ ____
ROOT
ATOM      1  C   UNL     1     -11.396  13.755  66.864  0.00  0.00    +0.173 C 
ATOM      2  C   UNL     1     -11.500  12.021  66.930  0.00  0.00    +0.062 C 
ATOM      3  C   UNL     1     -10.431  11.692  65.798  0.00  0.00    -0.024 C 
ATOM      4  C   UNL     1     -10.053  10.267  65.992  0.00  0.00    -0.009 C 
ATOM      5  C   UNL     1      -9.574  10.016  67.217  0.00  0.00    -0.027 C 
ATOM      6  C   UNL     1      -9.048  11.511  67.561  0.00  0.00    +0.022 C 
ATOM      7  C   UNL     1      -8.421  11.056  69.006  0.00  0.00    +0.005 C 
ATOM      8  C   UNL     1     -10.990  11.831  64.612  0.00  0.00    -0.030 C 
ATOM      9  C   UNL     1     -12.437  12.562  64.796  0.00  0.00    +0.025 C 
ATOM     10  C   UNL     1     -12.414  13.045  63.209  0.00  0.00    +0.005 C 
ATOM     11  C   UNL     1     -10.490  12.071  68.299  0.00  0.00    +0.012 C 
ATOM     12  C   UNL     1     -11.662  13.935  65.248  0.00  0.00    +0.048 C 
ENDROOT
BRANCH   1  13
ATOM     13  O   UNL     1      -9.854  13.746  66.648  0.00  0.00    -0.452 OA
BRANCH  13  14
ATOM     14  C   UNL     1      -9.358  14.990  66.945  0.00  0.00    +0.316 C 
ATOM     15  O   UNL     1      -8.724  15.571  66.081  0.00  0.00    -0.250 OA
BRANCH  14  16
ATOM     16  C   UNL     1     -10.234  15.834  68.014  0.00  0.00    +0.099 C 
ATOM     17  C   UNL     1      -9.120  15.546  69.209  0.00  0.00    +0.012 C 
BRANCH  16  19
ATOM     18  C   UNL     1     -10.562  18.145  67.624  0.00  0.00    +0.001 C 
ATOM     19  C   UNL     1      -9.528  17.298  67.676  0.00  0.00    +0.011 C 
ENDBRANCH  16  19
ENDBRANCH  14  16
ENDBRANCH  13  14
ENDBRANCH   1  13
BRANCH  11  20
ATOM     20  C   UNL     1     -11.019  10.648  68.859  0.00  0.00    +0.004 C 
BRANCH  20  21
ATOM     21  C   UNL     1     -12.175  10.857  69.784  0.00  0.00    +0.044 C 
BRANCH  21  22
ATOM     22  C   UNL     1     -11.649   9.976  71.102  0.00  0.00    +0.171 C 
ATOM     23  O   UNL     1     -13.037   9.272  71.320  0.00  0.00    -0.452 OA
ATOM     24  C   UNL     1     -12.677   8.027  71.868  0.00  0.00    +0.319 C 
ATOM     25  O   UNL     1     -13.190   6.939  71.594  0.00  0.00    -0.250 OA
ATOM     26  C   UNL     1     -11.358   8.062  72.498  0.00  0.00    +0.142 C 
ATOM     27  C   UNL     1     -10.254   7.863  71.248  0.00  0.00    +0.167 C 
ATOM     28  O   UNL     1      -9.464   9.122  71.673  0.00  0.00    -0.222 OA
ATOM     29  C   UNL     1     -11.149   8.723  70.120  0.00  0.00    +0.077 C 
ENDBRANCH  21  22
ENDBRANCH  20  21
ENDBRANCH  11  20
TORSDOF 7
ENDMDL
