MODEL 1
REMARK VINA RESULT:      -7.1      0.000      0.000
REMARK  Name = 
REMARK  5 active torsions:
REMARK  status: ('A' for Active; 'I' for Inactive)
REMARK    1  A    between atoms: C_8  and  O_9
REMARK    2  A    between atoms: O_9  and  C_10
REMARK    3  A    between atoms: C_10  and  C_12
REMARK    4  A    between atoms: C_12  and  C_14
REMARK    5  A    between atoms: C_12  and  C_20
REMARK                            x       y       z     vdW  Elec       q    Type
REMARK                         _______ _______ _______ _____ _____    ______ ____
ROOT
ATOM      1  C   UNL     1     -10.442  14.331  66.477  0.00  0.00    +0.252 C 
ATOM      2  O   UNL     1      -9.306  13.716  67.030  0.00  0.00    -0.205 OA
ENDROOT
BRANCH   1   3
ATOM      3  C   UNL     1     -11.452  14.355  67.583  0.00  0.00    +0.019 A 
ATOM      4  C   UNL     1     -11.574  13.210  68.357  0.00  0.00    -0.001 A 
ATOM      5  C   UNL     1     -11.845  13.262  69.719  0.00  0.00    -0.000 A 
ATOM      6  C   UNL     1     -11.773  14.485  70.374  0.00  0.00    -0.000 A 
ATOM      7  C   UNL     1     -12.057  15.592  69.581  0.00  0.00    -0.000 A 
ATOM      8  C   UNL     1     -11.800  15.539  68.217  0.00  0.00    -0.001 A 
ENDBRANCH   1   3
BRANCH   1   9
ATOM      9  C   UNL     1     -10.931  13.438  65.407  0.00  0.00    +0.019 A 
ATOM     10  C   UNL     1     -12.292  13.326  65.149  0.00  0.00    -0.001 A 
ATOM     11  C   UNL     1     -12.778  12.446  64.201  0.00  0.00    -0.000 A 
ATOM     12  C   UNL     1     -11.847  11.757  63.443  0.00  0.00    -0.000 A 
ATOM     13  C   UNL     1     -10.650  11.430  64.066  0.00  0.00    -0.000 A 
ATOM     14  C   UNL     1     -10.177  12.354  64.969  0.00  0.00    -0.001 A 
ENDBRANCH   1   9
BRANCH   1  15
ATOM     15  C   UNL     1     -10.066  15.671  66.018  0.00  0.00    +0.353 C 
ATOM     16  O   UNL     1     -10.592  16.135  64.961  0.00  0.00    -0.247 OA
BRANCH  15  17
ATOM     17  O   UNL     1      -9.166  16.529  66.645  0.00  0.00    -0.444 OA
BRANCH  17  21
ATOM     18  C   UNL     1      -6.889  20.482  66.755  0.00  0.00    +0.171 C 
ATOM     19  N   UNL     1      -7.892  19.688  67.210  0.00  0.00    +0.304 N 
ATOM     20  C   UNL     1      -7.965  18.507  66.397  0.00  0.00    +0.153 C 
ATOM     21  C   UNL     1      -9.572  18.033  66.455  0.00  0.00    +0.224 C 
ATOM     22  C   UNL     1      -9.694  18.259  68.112  0.00  0.00    +0.058 C 
ATOM     23  C   UNL     1     -10.035  19.736  68.236  0.00  0.00    +0.065 C 
ATOM     24  C   UNL     1      -8.353  17.909  68.658  0.00  0.00    +0.065 C 
ATOM     25  C   UNL     1      -9.117  20.441  67.242  0.00  0.00    +0.109 C 
ATOM     26  C   UNL     1      -7.544  19.202  68.548  0.00  0.00    +0.109 C 
ENDBRANCH  17  21
ENDBRANCH  15  17
ENDBRANCH   1  15
TORSDOF 5
ENDMDL
MODEL 2
REMARK VINA RESULT:      -6.9      1.047      3.617
REMARK  Name = 
REMARK  5 active torsions:
REMARK  status: ('A' for Active; 'I' for Inactive)
REMARK    1  A    between atoms: C_8  and  O_9
REMARK    2  A    between atoms: O_9  and  C_10
REMARK    3  A    between atoms: C_10  and  C_12
REMARK    4  A    between atoms: C_12  and  C_14
REMARK    5  A    between atoms: C_12  and  C_20
REMARK                            x       y       z     vdW  Elec       q    Type
REMARK                         _______ _______ _______ _____ _____    ______ ____
ROOT
ATOM      1  C   UNL     1     -11.457  14.430  65.476  0.00  0.00    +0.252 C 
ATOM      2  O   UNL     1     -12.779  14.445  64.997  0.00  0.00    -0.205 OA
ENDROOT
BRANCH   1   3
ATOM      3  C   UNL     1     -10.753  13.397  64.650  0.00  0.00    +0.019 A 
ATOM      4  C   UNL     1      -9.664  12.757  65.227  0.00  0.00    -0.001 A 
ATOM      5  C   UNL     1      -9.381  11.418  64.987  0.00  0.00    -0.000 A 
ATOM      6  C   UNL     1     -10.326  10.635  64.335  0.00  0.00    -0.000 A 
ATOM      7  C   UNL     1     -11.149  11.325  63.452  0.00  0.00    -0.000 A 
ATOM      8  C   UNL     1     -11.425  12.667  63.682  0.00  0.00    -0.001 A 
ENDBRANCH   1   3
BRANCH   1   9
ATOM      9  C   UNL     1     -11.518  13.959  66.874  0.00  0.00    +0.019 A 
ATOM     10  C   UNL     1     -11.787  12.625  67.158  0.00  0.00    -0.001 A 
ATOM     11  C   UNL     1     -11.917  12.175  68.459  0.00  0.00    -0.000 A 
ATOM     12  C   UNL     1     -11.663  13.085  69.470  0.00  0.00    -0.000 A 
ATOM     13  C   UNL     1     -11.987  14.411  69.216  0.00  0.00    -0.000 A 
ATOM     14  C   UNL     1     -11.800  14.832  67.920  0.00  0.00    -0.001 A 
ENDBRANCH   1   9
BRANCH   1  15
ATOM     15  C   UNL     1     -10.891  15.772  65.316  0.00  0.00    +0.353 C 
ATOM     16  O   UNL     1     -11.304  16.509  64.370  0.00  0.00    -0.247 OA
BRANCH  15  17
ATOM     17  O   UNL     1      -9.919  16.353  66.127  0.00  0.00    -0.444 OA
BRANCH  17  21
ATOM     18  C   UNL     1      -6.893  19.667  66.949  0.00  0.00    +0.171 C 
ATOM     19  N   UNL     1      -8.099  19.090  67.184  0.00  0.00    +0.304 N 
ATOM     20  C   UNL     1      -8.300  18.021  66.247  0.00  0.00    +0.153 C 
ATOM     21  C   UNL     1      -9.962  17.920  66.047  0.00  0.00    +0.224 C 
ATOM     22  C   UNL     1     -10.278  18.041  67.690  0.00  0.00    +0.058 C 
ATOM     23  C   UNL     1     -10.310  19.544  67.925  0.00  0.00    +0.065 C 
ATOM     24  C   UNL     1      -9.139  17.357  68.362  0.00  0.00    +0.065 C 
ATOM     25  C   UNL     1      -9.126  20.095  67.139  0.00  0.00    +0.109 C 
ATOM     26  C   UNL     1      -8.066  18.437  68.496  0.00  0.00    +0.109 C 
ENDBRANCH  17  21
ENDBRANCH  15  17
ENDBRANCH   1  15
TORSDOF 5
ENDMDL
MODEL 3
REMARK VINA RESULT:      -6.8      1.886      4.798
REMARK  Name = 
REMARK  5 active torsions:
REMARK  status: ('A' for Active; 'I' for Inactive)
REMARK    1  A    between atoms: C_8  and  O_9
REMARK    2  A    between atoms: O_9  and  C_10
REMARK    3  A    between atoms: C_10  and  C_12
REMARK    4  A    between atoms: C_12  and  C_14
REMARK    5  A    between atoms: C_12  and  C_20
REMARK                            x       y       z     vdW  Elec       q    Type
REMARK                         _______ _______ _______ _____ _____    ______ ____
ROOT
ATOM      1  C   UNL     1     -11.645  15.380  69.373  0.00  0.00    +0.252 C 
ATOM      2  O   UNL     1     -12.435  16.314  68.679  0.00  0.00    -0.205 OA
ENDROOT
BRANCH   1   3
ATOM      3  C   UNL     1     -11.862  14.079  68.662  0.00  0.00    +0.019 A 
ATOM      4  C   UNL     1     -11.704  14.074  67.283  0.00  0.00    -0.001 A 
ATOM      5  C   UNL     1     -11.168  12.987  66.603  0.00  0.00    -0.000 A 
ATOM      6  C   UNL     1     -10.568  11.966  67.331  0.00  0.00    -0.000 A 
ATOM      7  C   UNL     1     -11.076  11.784  68.612  0.00  0.00    -0.000 A 
ATOM      8  C   UNL     1     -11.624  12.865  69.290  0.00  0.00    -0.001 A 
ENDBRANCH   1   3
BRANCH   1   9
ATOM      9  C   UNL     1     -12.207  15.276  70.734  0.00  0.00    +0.019 A 
ATOM     10  C   UNL     1     -13.582  15.214  70.926  0.00  0.00    -0.001 A 
ATOM     11  C   UNL     1     -14.135  15.186  72.194  0.00  0.00    -0.000 A 
ATOM     12  C   UNL     1     -13.259  15.114  73.263  0.00  0.00    -0.000 A 
ATOM     13  C   UNL     1     -12.033  15.748  73.112  0.00  0.00    -0.000 A 
ATOM     14  C   UNL     1     -11.496  15.714  71.846  0.00  0.00    -0.001 A 
ENDBRANCH   1   9
BRANCH   1  15
ATOM     15  C   UNL     1     -10.251  15.829  69.329  0.00  0.00    +0.353 C 
ATOM     16  O   UNL     1      -9.322  14.984  69.504  0.00  0.00    -0.247 OA
BRANCH  15  17
ATOM     17  O   UNL     1      -9.817  17.132  69.097  0.00  0.00    -0.444 OA
BRANCH  17  21
ATOM     18  C   UNL     1      -7.107  20.423  67.472  0.00  0.00    +0.171 C 
ATOM     19  N   UNL     1      -7.755  19.242  67.303  0.00  0.00    +0.304 N 
ATOM     20  C   UNL     1      -8.326  18.836  68.556  0.00  0.00    +0.153 C 
ATOM     21  C   UNL     1      -8.368  17.160  68.497  0.00  0.00    +0.224 C 
ATOM     22  C   UNL     1      -8.965  17.121  66.930  0.00  0.00    +0.058 C 
ATOM     23  C   UNL     1      -7.708  17.207  66.079  0.00  0.00    +0.065 C 
ATOM     24  C   UNL     1      -9.847  18.315  66.814  0.00  0.00    +0.065 C 
ATOM     25  C   UNL     1      -6.848  18.276  66.745  0.00  0.00    +0.109 C 
ATOM     26  C   UNL     1      -8.905  19.452  66.418  0.00  0.00    +0.109 C 
ENDBRANCH  17  21
ENDBRANCH  15  17
ENDBRANCH   1  15
TORSDOF 5
ENDMDL
MODEL 4
REMARK VINA RESULT:      -6.8      3.135      5.460
REMARK  Name = 
REMARK  5 active torsions:
REMARK  status: ('A' for Active; 'I' for Inactive)
REMARK    1  A    between atoms: C_8  and  O_9
REMARK    2  A    between atoms: O_9  and  C_10
REMARK    3  A    between atoms: C_10  and  C_12
REMARK    4  A    between atoms: C_12  and  C_14
REMARK    5  A    between atoms: C_12  and  C_20
REMARK                            x       y       z     vdW  Elec       q    Type
REMARK                         _______ _______ _______ _____ _____    ______ ____
ROOT
ATOM      1  C   UNL     1      -9.955  15.248  67.651  0.00  0.00    +0.252 C 
ATOM      2  O   UNL     1      -9.400  16.338  66.957  0.00  0.00    -0.205 OA
ENDROOT
BRANCH   1   3
ATOM      3  C   UNL     1      -8.781  14.480  68.177  0.00  0.00    +0.019 A 
ATOM      4  C   UNL     1      -8.917  13.103  68.278  0.00  0.00    -0.001 A 
ATOM      5  C   UNL     1      -7.860  12.235  68.036  0.00  0.00    -0.000 A 
ATOM      6  C   UNL     1      -6.696  12.733  67.462  0.00  0.00    -0.000 A 
ATOM      7  C   UNL     1      -6.429  14.069  67.745  0.00  0.00    -0.000 A 
ATOM      8  C   UNL     1      -7.483  14.936  68.001  0.00  0.00    -0.001 A 
ENDBRANCH   1   3
BRANCH   1   9
ATOM      9  C   UNL     1     -10.655  14.419  66.650  0.00  0.00    +0.019 A 
ATOM     10  C   UNL     1     -10.098  14.210  65.394  0.00  0.00    -0.001 A 
ATOM     11  C   UNL     1     -10.766  13.495  64.417  0.00  0.00    -0.000 A 
ATOM     12  C   UNL     1     -11.966  12.905  64.776  0.00  0.00    -0.000 A 
ATOM     13  C   UNL     1     -12.735  13.572  65.720  0.00  0.00    -0.000 A 
ATOM     14  C   UNL     1     -12.033  14.233  66.701  0.00  0.00    -0.001 A 
ENDBRANCH   1   9
BRANCH   1  15
ATOM     15  C   UNL     1     -10.820  15.769  68.714  0.00  0.00    +0.353 C 
ATOM     16  O   UNL     1     -11.250  16.959  68.635  0.00  0.00    -0.247 OA
BRANCH  15  17
ATOM     17  O   UNL     1     -11.245  15.069  69.841  0.00  0.00    -0.444 OA
BRANCH  17  21
ATOM     18  C   UNL     1     -12.404  15.227  74.250  0.00  0.00    +0.171 C 
ATOM     19  N   UNL     1     -12.745  15.039  72.950  0.00  0.00    +0.304 N 
ATOM     20  C   UNL     1     -11.626  15.374  72.116  0.00  0.00    +0.153 C 
ATOM     21  C   UNL     1     -12.296  15.889  70.667  0.00  0.00    +0.224 C 
ATOM     22  C   UNL     1     -13.400  14.628  70.604  0.00  0.00    +0.058 C 
ATOM     23  C   UNL     1     -14.567  15.148  71.429  0.00  0.00    +0.065 C 
ATOM     24  C   UNL     1     -12.706  13.464  71.221  0.00  0.00    +0.065 C 
ATOM     25  C   UNL     1     -13.931  15.797  72.654  0.00  0.00    +0.109 C 
ATOM     26  C   UNL     1     -12.969  13.608  72.720  0.00  0.00    +0.109 C 
ENDBRANCH  17  21
ENDBRANCH  15  17
ENDBRANCH   1  15
TORSDOF 5
ENDMDL
MODEL 5
REMARK VINA RESULT:      -6.7      1.907      3.965
REMARK  Name = 
REMARK  5 active torsions:
REMARK  status: ('A' for Active; 'I' for Inactive)
REMARK    1  A    between atoms: C_8  and  O_9
REMARK    2  A    between atoms: O_9  and  C_10
REMARK    3  A    between atoms: C_10  and  C_12
REMARK    4  A    between atoms: C_12  and  C_14
REMARK    5  A    between atoms: C_12  and  C_20
REMARK                            x       y       z     vdW  Elec       q    Type
REMARK                         _______ _______ _______ _____ _____    ______ ____
ROOT
ATOM      1  C   UNL     1      -9.526  16.345  67.230  0.00  0.00    +0.252 C 
ATOM      2  O   UNL     1      -9.453  15.864  68.549  0.00  0.00    -0.205 OA
ENDROOT
BRANCH   1   3
ATOM      3  C   UNL     1     -10.190  17.684  67.338  0.00  0.00    +0.019 A 
ATOM      4  C   UNL     1      -9.946  18.424  68.487  0.00  0.00    -0.001 A 
ATOM      5  C   UNL     1      -9.838  19.809  68.466  0.00  0.00    -0.000 A 
ATOM      6  C   UNL     1      -9.749  20.460  67.242  0.00  0.00    -0.000 A 
ATOM      7  C   UNL     1     -10.380  19.811  66.186  0.00  0.00    -0.000 A 
ATOM      8  C   UNL     1     -10.500  18.428  66.209  0.00  0.00    -0.001 A 
ENDBRANCH   1   3
BRANCH   1   9
ATOM      9  C   UNL     1     -10.421  15.431  66.493  0.00  0.00    +0.019 A 
ATOM     10  C   UNL     1     -11.420  14.732  67.160  0.00  0.00    -0.001 A 
ATOM     11  C   UNL     1     -12.225  13.819  66.504  0.00  0.00    -0.000 A 
ATOM     12  C   UNL     1     -12.065  13.707  65.133  0.00  0.00    -0.000 A 
ATOM     13  C   UNL     1     -10.786  13.909  64.633  0.00  0.00    -0.000 A 
ATOM     14  C   UNL     1     -10.034  14.859  65.285  0.00  0.00    -0.001 A 
ENDBRANCH   1   9
BRANCH   1  15
ATOM     15  C   UNL     1      -8.166  16.424  66.690  0.00  0.00    +0.353 C 
ATOM     16  O   UNL     1      -7.357  15.472  66.910  0.00  0.00    -0.247 OA
BRANCH  15  17
ATOM     17  O   UNL     1      -7.647  17.464  65.924  0.00  0.00    -0.444 OA
BRANCH  17  21
ATOM     18  C   UNL     1      -5.106  20.538  68.141  0.00  0.00    +0.171 C 
ATOM     19  N   UNL     1      -5.417  19.871  67.000  0.00  0.00    +0.304 N 
ATOM     20  C   UNL     1      -6.377  18.846  67.301  0.00  0.00    +0.153 C 
ATOM     21  C   UNL     1      -6.106  17.644  66.162  0.00  0.00    +0.224 C 
ATOM     22  C   UNL     1      -5.988  18.727  64.887  0.00  0.00    +0.058 C 
ATOM     23  C   UNL     1      -4.526  19.143  64.922  0.00  0.00    +0.065 C 
ATOM     24  C   UNL     1      -6.931  19.831  65.217  0.00  0.00    +0.065 C 
ATOM     25  C   UNL     1      -4.212  19.371  66.397  0.00  0.00    +0.109 C 
ATOM     26  C   UNL     1      -6.116  20.784  66.091  0.00  0.00    +0.109 C 
ENDBRANCH  17  21
ENDBRANCH  15  17
ENDBRANCH   1  15
TORSDOF 5
ENDMDL
MODEL 6
REMARK VINA RESULT:      -6.7      2.066      3.450
REMARK  Name = 
REMARK  5 active torsions:
REMARK  status: ('A' for Active; 'I' for Inactive)
REMARK    1  A    between atoms: C_8  and  O_9
REMARK    2  A    between atoms: O_9  and  C_10
REMARK    3  A    between atoms: C_10  and  C_12
REMARK    4  A    between atoms: C_12  and  C_14
REMARK    5  A    between atoms: C_12  and  C_20
REMARK                            x       y       z     vdW  Elec       q    Type
REMARK                         _______ _______ _______ _____ _____    ______ ____
ROOT
ATOM      1  C   UNL     1     -10.158  11.704  67.223  0.00  0.00    +0.252 C 
ATOM      2  O   UNL     1      -9.064  10.856  66.975  0.00  0.00    -0.205 OA
ENDROOT
BRANCH   1   3
ATOM      3  C   UNL     1     -11.043  10.938  68.159  0.00  0.00    +0.019 A 
ATOM      4  C   UNL     1     -10.679   9.630  68.450  0.00  0.00    -0.001 A 
ATOM      5  C   UNL     1     -10.879   9.069  69.705  0.00  0.00    -0.000 A 
ATOM      6  C   UNL     1     -11.245   9.893  70.762  0.00  0.00    -0.000 A 
ATOM      7  C   UNL     1     -11.969  11.023  70.399  0.00  0.00    -0.000 A 
ATOM      8  C   UNL     1     -11.782  11.580  69.141  0.00  0.00    -0.001 A 
ENDBRANCH   1   3
BRANCH   1   9
ATOM      9  C   UNL     1     -10.863  11.875  65.937  0.00  0.00    +0.019 A 
ATOM     10  C   UNL     1     -10.166  11.815  64.737  0.00  0.00    -0.001 A 
ATOM     11  C   UNL     1     -10.792  12.041  63.525  0.00  0.00    -0.000 A 
ATOM     12  C   UNL     1     -12.163  12.224  63.547  0.00  0.00    -0.000 A 
ATOM     13  C   UNL     1     -12.695  12.848  64.668  0.00  0.00    -0.000 A 
ATOM     14  C   UNL     1     -12.071  12.561  65.861  0.00  0.00    -0.001 A 
ENDBRANCH   1   9
BRANCH   1  15
ATOM     15  C   UNL     1      -9.655  12.951  67.806  0.00  0.00    +0.353 C 
ATOM     16  O   UNL     1      -8.587  12.928  68.489  0.00  0.00    -0.247 OA
BRANCH  15  17
ATOM     17  O   UNL     1     -10.238  14.209  67.678  0.00  0.00    -0.444 OA
BRANCH  17  21
ATOM     18  C   UNL     1     -10.457  18.766  67.658  0.00  0.00    +0.171 C 
ATOM     19  N   UNL     1      -9.910  17.612  67.197  0.00  0.00    +0.304 N 
ATOM     20  C   UNL     1     -10.413  16.512  67.969  0.00  0.00    +0.153 C 
ATOM     21  C   UNL     1      -9.198  15.356  67.930  0.00  0.00    +0.224 C 
ATOM     22  C   UNL     1      -8.928  15.538  66.285  0.00  0.00    +0.058 C 
ATOM     23  C   UNL     1      -7.947  16.698  66.222  0.00  0.00    +0.065 C 
ATOM     24  C   UNL     1     -10.260  15.851  65.698  0.00  0.00    +0.065 C 
ATOM     25  C   UNL     1      -8.477  17.723  67.219  0.00  0.00    +0.109 C 
ATOM     26  C   UNL     1     -10.394  17.367  65.835  0.00  0.00    +0.109 C 
ENDBRANCH  17  21
ENDBRANCH  15  17
ENDBRANCH   1  15
TORSDOF 5
ENDMDL
MODEL 7
REMARK VINA RESULT:      -6.6      2.846      5.713
REMARK  Name = 
REMARK  5 active torsions:
REMARK  status: ('A' for Active; 'I' for Inactive)
REMARK    1  A    between atoms: C_8  and  O_9
REMARK    2  A    between atoms: O_9  and  C_10
REMARK    3  A    between atoms: C_10  and  C_12
REMARK    4  A    between atoms: C_12  and  C_14
REMARK    5  A    between atoms: C_12  and  C_20
REMARK                            x       y       z     vdW  Elec       q    Type
REMARK                         _______ _______ _______ _____ _____    ______ ____
ROOT
ATOM      1  C   UNL     1     -10.241  15.174  67.565  0.00  0.00    +0.252 C 
ATOM      2  O   UNL     1     -10.809  15.666  66.377  0.00  0.00    -0.205 OA
ENDROOT
BRANCH   1   3
ATOM      3  C   UNL     1      -8.800  15.581  67.509  0.00  0.00    +0.019 A 
ATOM      4  C   UNL     1      -8.340  16.125  66.318  0.00  0.00    -0.001 A 
ATOM      5  C   UNL     1      -7.392  17.141  66.287  0.00  0.00    -0.000 A 
ATOM      6  C   UNL     1      -7.055  17.786  67.471  0.00  0.00    -0.000 A 
ATOM      7  C   UNL     1      -7.182  17.009  68.617  0.00  0.00    -0.000 A 
ATOM      8  C   UNL     1      -8.120  15.985  68.648  0.00  0.00    -0.001 A 
ENDBRANCH   1   3
BRANCH   1   9
ATOM      9  C   UNL     1     -10.321  13.702  67.495  0.00  0.00    +0.019 A 
ATOM     10  C   UNL     1      -9.204  12.921  67.769  0.00  0.00    -0.001 A 
ATOM     11  C   UNL     1      -9.236  11.544  67.643  0.00  0.00    -0.000 A 
ATOM     12  C   UNL     1     -10.455  10.966  67.336  0.00  0.00    -0.000 A 
ATOM     13  C   UNL     1     -11.313  11.703  66.531  0.00  0.00    -0.000 A 
ATOM     14  C   UNL     1     -11.284  13.065  66.719  0.00  0.00    -0.001 A 
ENDBRANCH   1   9
BRANCH   1  15
ATOM     15  C   UNL     1     -10.958  15.764  68.699  0.00  0.00    +0.353 C 
ATOM     16  O   UNL     1     -11.372  16.959  68.616  0.00  0.00    -0.247 OA
BRANCH  15  17
ATOM     17  O   UNL     1     -11.254  15.127  69.902  0.00  0.00    -0.444 OA
BRANCH  17  21
ATOM     18  C   UNL     1     -12.417  15.218  74.313  0.00  0.00    +0.171 C 
ATOM     19  N   UNL     1     -12.757  15.051  73.009  0.00  0.00    +0.304 N 
ATOM     20  C   UNL     1     -11.636  15.397  72.182  0.00  0.00    +0.153 C 
ATOM     21  C   UNL     1     -12.304  15.936  70.741  0.00  0.00    +0.224 C 
ATOM     22  C   UNL     1     -13.410  14.678  70.656  0.00  0.00    +0.058 C 
ATOM     23  C   UNL     1     -14.577  15.188  71.488  0.00  0.00    +0.065 C 
ATOM     24  C   UNL     1     -12.719  13.503  71.255  0.00  0.00    +0.065 C 
ATOM     25  C   UNL     1     -13.941  15.816  72.723  0.00  0.00    +0.109 C 
ATOM     26  C   UNL     1     -12.984  13.625  72.756  0.00  0.00    +0.109 C 
ENDBRANCH  17  21
ENDBRANCH  15  17
ENDBRANCH   1  15
TORSDOF 5
ENDMDL
MODEL 8
REMARK VINA RESULT:      -6.6      1.346      2.056
REMARK  Name = 
REMARK  5 active torsions:
REMARK  status: ('A' for Active; 'I' for Inactive)
REMARK    1  A    between atoms: C_8  and  O_9
REMARK    2  A    between atoms: O_9  and  C_10
REMARK    3  A    between atoms: C_10  and  C_12
REMARK    4  A    between atoms: C_12  and  C_14
REMARK    5  A    between atoms: C_12  and  C_20
REMARK                            x       y       z     vdW  Elec       q    Type
REMARK                         _______ _______ _______ _____ _____    ______ ____
ROOT
ATOM      1  C   UNL     1     -10.441  13.791  68.199  0.00  0.00    +0.252 C 
ATOM      2  O   UNL     1      -9.893  12.569  68.626  0.00  0.00    -0.205 OA
ENDROOT
BRANCH   1   3
ATOM      3  C   UNL     1     -11.653  13.998  69.055  0.00  0.00    +0.019 A 
ATOM      4  C   UNL     1     -12.029  12.953  69.887  0.00  0.00    -0.001 A 
ATOM      5  C   UNL     1     -12.571  13.169  71.148  0.00  0.00    -0.000 A 
ATOM      6  C   UNL     1     -12.533  14.450  71.687  0.00  0.00    -0.000 A 
ATOM      7  C   UNL     1     -12.553  15.479  70.752  0.00  0.00    -0.000 A 
ATOM      8  C   UNL     1     -12.024  15.263  69.487  0.00  0.00    -0.001 A 
ENDBRANCH   1   3
BRANCH   1   9
ATOM      9  C   UNL     1     -10.876  13.595  66.801  0.00  0.00    +0.019 A 
ATOM     10  C   UNL     1     -12.096  14.098  66.365  0.00  0.00    -0.001 A 
ATOM     11  C   UNL     1     -12.555  13.868  65.081  0.00  0.00    -0.000 A 
ATOM     12  C   UNL     1     -11.702  13.207  64.214  0.00  0.00    -0.000 A 
ATOM     13  C   UNL     1     -10.854  12.258  64.771  0.00  0.00    -0.000 A 
ATOM     14  C   UNL     1     -10.383  12.547  66.031  0.00  0.00    -0.001 A 
ENDBRANCH   1   9
BRANCH   1  15
ATOM     15  C   UNL     1      -9.431  14.838  68.375  0.00  0.00    +0.353 C 
ATOM     16  O   UNL     1      -8.644  14.778  69.367  0.00  0.00    -0.247 OA
BRANCH  15  17
ATOM     17  O   UNL     1      -9.227  15.930  67.535  0.00  0.00    -0.444 OA
BRANCH  17  21
ATOM     18  C   UNL     1     -10.553  19.949  65.830  0.00  0.00    +0.171 C 
ATOM     19  N   UNL     1      -9.763  19.228  66.667  0.00  0.00    +0.304 N 
ATOM     20  C   UNL     1     -10.187  17.856  66.649  0.00  0.00    +0.153 C 
ATOM     21  C   UNL     1      -9.786  17.254  68.163  0.00  0.00    +0.224 C 
ATOM     22  C   UNL     1      -8.262  17.954  68.159  0.00  0.00    +0.058 C 
ATOM     23  C   UNL     1      -8.525  19.356  68.690  0.00  0.00    +0.065 C 
ATOM     24  C   UNL     1      -7.819  17.929  66.738  0.00  0.00    +0.065 C 
ATOM     25  C   UNL     1      -9.789  19.821  67.976  0.00  0.00    +0.109 C 
ATOM     26  C   UNL     1      -8.399  19.206  66.131  0.00  0.00    +0.109 C 
ENDBRANCH  17  21
ENDBRANCH  15  17
ENDBRANCH   1  15
TORSDOF 5
ENDMDL
MODEL 9
REMARK VINA RESULT:      -6.6      1.484      3.958
REMARK  Name = 
REMARK  5 active torsions:
REMARK  status: ('A' for Active; 'I' for Inactive)
REMARK    1  A    between atoms: C_8  and  O_9
REMARK    2  A    between atoms: O_9  and  C_10
REMARK    3  A    between atoms: C_10  and  C_12
REMARK    4  A    between atoms: C_12  and  C_14
REMARK    5  A    between atoms: C_12  and  C_20
REMARK                            x       y       z     vdW  Elec       q    Type
REMARK                         _______ _______ _______ _____ _____    ______ ____
ROOT
ATOM      1  C   UNL     1     -11.307  14.002  67.392  0.00  0.00    +0.252 C 
ATOM      2  O   UNL     1     -12.536  13.835  66.731  0.00  0.00    -0.205 OA
ENDROOT
BRANCH   1   3
ATOM      3  C   UNL     1     -10.614  12.679  67.272  0.00  0.00    +0.019 A 
ATOM      4  C   UNL     1     -11.186  11.737  66.429  0.00  0.00    -0.001 A 
ATOM      5  C   UNL     1     -10.419  10.861  65.669  0.00  0.00    -0.000 A 
ATOM      6  C   UNL     1      -9.049  11.073  65.575  0.00  0.00    -0.000 A 
ATOM      7  C   UNL     1      -8.476  11.699  66.676  0.00  0.00    -0.000 A 
ATOM      8  C   UNL     1      -9.243  12.565  67.445  0.00  0.00    -0.001 A 
ENDBRANCH   1   3
BRANCH   1   9
ATOM      9  C   UNL     1     -11.620  14.246  68.814  0.00  0.00    +0.019 A 
ATOM     10  C   UNL     1     -11.998  13.196  69.643  0.00  0.00    -0.001 A 
ATOM     11  C   UNL     1     -12.362  13.410  70.960  0.00  0.00    -0.000 A 
ATOM     12  C   UNL     1     -12.232  14.697  71.450  0.00  0.00    -0.000 A 
ATOM     13  C   UNL     1     -12.443  15.735  70.551  0.00  0.00    -0.000 A 
ATOM     14  C   UNL     1     -12.025  15.499  69.262  0.00  0.00    -0.001 A 
ENDBRANCH   1   9
BRANCH   1  15
ATOM     15  C   UNL     1     -10.575  15.092  66.740  0.00  0.00    +0.353 C 
ATOM     16  O   UNL     1     -10.663  15.232  65.483  0.00  0.00    -0.247 OA
BRANCH  15  17
ATOM     17  O   UNL     1      -9.770  16.034  67.377  0.00  0.00    -0.444 OA
BRANCH  17  21
ATOM     18  C   UNL     1      -6.703  19.406  67.563  0.00  0.00    +0.171 C 
ATOM     19  N   UNL     1      -7.986  18.990  67.415  0.00  0.00    +0.304 N 
ATOM     20  C   UNL     1      -8.010  17.556  67.337  0.00  0.00    +0.153 C 
ATOM     21  C   UNL     1      -9.354  17.191  66.401  0.00  0.00    +0.224 C 
ATOM     22  C   UNL     1     -10.344  18.284  67.200  0.00  0.00    +0.058 C 
ATOM     23  C   UNL     1     -10.080  19.589  66.466  0.00  0.00    +0.065 C 
ATOM     24  C   UNL     1      -9.870  18.288  68.612  0.00  0.00    +0.065 C 
ATOM     25  C   UNL     1      -8.568  19.638  66.271  0.00  0.00    +0.109 C 
ATOM     26  C   UNL     1      -8.734  19.311  68.634  0.00  0.00    +0.109 C 
ENDBRANCH  17  21
ENDBRANCH  15  17
ENDBRANCH   1  15
TORSDOF 5
ENDMDL
