MODEL 1
REMARK VINA RESULT:      -7.7      0.000      0.000
REMARK  Name = 
REMARK  3 active torsions:
REMARK  status: ('A' for Active; 'I' for Inactive)
REMARK    1  A    between atoms: C_3  and  C_4
REMARK    2  A    between atoms: C_20  and  C_21
REMARK    3  A    between atoms: C_24  and  N_25
REMARK                            x       y       z     vdW  Elec       q    Type
REMARK                         _______ _______ _______ _____ _____    ______ ____
ROOT
ATOM      1  C   UNL     1     -10.140  15.625  68.284  0.00  0.00    +0.179 C 
ATOM      2  C   UNL     1     -10.138  14.304  67.615  0.00  0.00    +0.037 C 
ATOM      3  C   UNL     1     -11.374  14.442  66.594  0.00  0.00    +0.007 C 
ATOM      4  C   UNL     1     -10.623  13.565  65.345  0.00  0.00    +0.019 C 
ATOM      5  C   UNL     1     -10.296  12.248  66.183  0.00  0.00    -0.045 C 
ATOM      6  C   UNL     1     -11.276  12.041  67.430  0.00  0.00    +0.040 C 
ATOM      7  C   UNL     1     -10.340  11.194  65.363  0.00  0.00    -0.033 C 
ATOM      8  C   UNL     1     -10.671  11.333  63.934  0.00  0.00    -0.024 C 
ATOM      9  C   UNL     1      -9.813  10.710  63.122  0.00  0.00    +0.033 C 
ATOM     10  C   UNL     1      -8.755   9.990  63.852  0.00  0.00    +0.173 C 
ATOM     11  C   UNL     1      -9.088   9.186  65.071  0.00  0.00    +0.074 C 
ATOM     12  O   UNL     1      -7.529  10.095  63.544  0.00  0.00    -0.291 OA
ATOM     13  C   UNL     1     -11.629  12.374  63.500  0.00  0.00    +0.026 C 
ATOM     14  C   UNL     1     -10.273   9.792  65.822  0.00  0.00    +0.034 C 
ATOM     15  C   UNL     1     -12.070  13.051  64.800  0.00  0.00    +0.009 C 
ATOM     16  C   UNL     1     -10.859  15.843  65.976  0.00  0.00    +0.004 C 
ATOM     17  C   UNL     1      -8.847  14.307  66.890  0.00  0.00    +0.003 C 
ATOM     18  C   UNL     1     -10.558  13.168  68.387  0.00  0.00    +0.012 C 
ATOM     19  C   UNL     1      -9.998  16.445  67.004  0.00  0.00    +0.043 C 
ATOM     20  O   UNL     1      -8.994  15.765  69.032  0.00  0.00    -0.212 OA
ENDROOT
BRANCH   6  21
ATOM     21  C   UNL     1     -10.403  10.831  68.037  0.00  0.00    -0.019 A 
ATOM     22  C   UNL     1      -9.146  11.129  68.513  0.00  0.00    -0.003 A 
ATOM     23  C   UNL     1      -8.451  10.190  69.265  0.00  0.00    +0.014 A 
ATOM     24  C   UNL     1      -9.220   9.315  69.995  0.00  0.00    +0.048 A 
ATOM     25  C   UNL     1     -10.447   8.961  69.457  0.00  0.00    +0.014 A 
ATOM     26  C   UNL     1     -11.158  10.004  68.866  0.00  0.00    -0.003 A 
BRANCH  24  27
ATOM     27  N   UNL     1      -8.741   8.770  71.231  0.00  0.00    -0.304 N 
ATOM     28  C   UNL     1      -7.578   7.885  71.231  0.00  0.00    +0.112 C 
ATOM     29  C   UNL     1      -9.742   8.437  72.243  0.00  0.00    +0.112 C 
ENDBRANCH  24  27
ENDBRANCH   6  21
BRANCH   1  32
ATOM     30  C   UNL     1     -12.529  15.562  71.286  0.00  0.00    +0.090 C 
ATOM     31  C   UNL     1     -12.062  15.938  69.976  0.00  0.00    -0.088 C 
ATOM     32  C   UNL     1     -11.364  15.906  69.000  0.00  0.00    -0.062 C 
ENDBRANCH   1  32
TORSDOF 3
ENDMDL
MODEL 2
REMARK VINA RESULT:      -6.7      2.540      5.797
REMARK  Name = 
REMARK  3 active torsions:
REMARK  status: ('A' for Active; 'I' for Inactive)
REMARK    1  A    between atoms: C_3  and  C_4
REMARK    2  A    between atoms: C_20  and  C_21
REMARK    3  A    between atoms: C_24  and  N_25
REMARK                            x       y       z     vdW  Elec       q    Type
REMARK                         _______ _______ _______ _____ _____    ______ ____
ROOT
ATOM      1  C   UNL     1      -9.283   8.434  69.489  0.00  0.00    +0.179 C 
ATOM      2  C   UNL     1      -9.662   9.515  68.551  0.00  0.00    +0.037 C 
ATOM      3  C   UNL     1      -8.481   9.446  67.461  0.00  0.00    +0.007 C 
ATOM      4  C   UNL     1      -9.492   9.788  66.137  0.00  0.00    +0.019 C 
ATOM      5  C   UNL     1     -10.115  11.145  66.695  0.00  0.00    -0.045 C 
ATOM      6  C   UNL     1      -9.170  11.877  67.758  0.00  0.00    +0.040 C 
ATOM      7  C   UNL     1     -10.388  11.950  65.665  0.00  0.00    -0.033 C 
ATOM      8  C   UNL     1     -10.096  11.561  64.274  0.00  0.00    -0.024 C 
ATOM      9  C   UNL     1     -11.123  11.742  63.440  0.00  0.00    +0.033 C 
ATOM     10  C   UNL     1     -12.299  12.332  64.103  0.00  0.00    +0.173 C 
ATOM     11  C   UNL     1     -12.136  13.460  65.074  0.00  0.00    +0.074 C 
ATOM     12  O   UNL     1     -13.467  11.859  63.955  0.00  0.00    -0.291 OA
ATOM     13  C   UNL     1      -8.918  10.714  63.981  0.00  0.00    +0.026 C 
ATOM     14  C   UNL     1     -10.801  13.360  65.811  0.00  0.00    +0.034 C 
ATOM     15  C   UNL     1      -8.256  10.496  65.344  0.00  0.00    +0.009 C 
ATOM     16  C   UNL     1      -8.636   7.855  67.222  0.00  0.00    +0.004 C 
ATOM     17  C   UNL     1     -10.939   9.023  67.984  0.00  0.00    +0.003 C 
ATOM     18  C   UNL     1      -9.522  10.870  69.008  0.00  0.00    +0.012 C 
ATOM     19  C   UNL     1      -9.261   7.324  68.441  0.00  0.00    +0.043 C 
ATOM     20  O   UNL     1     -10.317   8.199  70.365  0.00  0.00    -0.212 OA
ENDROOT
BRANCH   6  21
ATOM     21  C   UNL     1     -10.302  12.944  68.174  0.00  0.00    -0.019 A 
ATOM     22  C   UNL     1     -11.383  12.479  68.889  0.00  0.00    -0.003 A 
ATOM     23  C   UNL     1     -12.258  13.381  69.483  0.00  0.00    +0.014 A 
ATOM     24  C   UNL     1     -11.717  14.588  69.855  0.00  0.00    +0.048 A 
ATOM     25  C   UNL     1     -10.685  15.080  69.072  0.00  0.00    +0.014 A 
ATOM     26  C   UNL     1      -9.754  14.132  68.655  0.00  0.00    -0.003 A 
BRANCH  24  27
ATOM     27  N   UNL     1     -12.237  15.312  70.978  0.00  0.00    -0.304 N 
ATOM     28  C   UNL     1     -11.460  15.391  72.213  0.00  0.00    +0.112 C 
ATOM     29  C   UNL     1     -13.683  15.264  71.188  0.00  0.00    +0.112 C 
ENDBRANCH  24  27
ENDBRANCH   6  21
BRANCH   1  32
ATOM     30  C   UNL     1      -6.715   8.276  72.336  0.00  0.00    +0.090 C 
ATOM     31  C   UNL     1      -7.191   8.513  70.997  0.00  0.00    -0.088 C 
ATOM     32  C   UNL     1      -7.998   8.641  70.117  0.00  0.00    -0.062 C 
ENDBRANCH   1  32
TORSDOF 3
ENDMDL
MODEL 3
REMARK VINA RESULT:      -6.7      4.579      7.887
REMARK  Name = 
REMARK  3 active torsions:
REMARK  status: ('A' for Active; 'I' for Inactive)
REMARK    1  A    between atoms: C_3  and  C_4
REMARK    2  A    between atoms: C_20  and  C_21
REMARK    3  A    between atoms: C_24  and  N_25
REMARK                            x       y       z     vdW  Elec       q    Type
REMARK                         _______ _______ _______ _____ _____    ______ ____
ROOT
ATOM      1  C   UNL     1     -10.453  17.552  67.239  0.00  0.00    +0.179 C 
ATOM      2  C   UNL     1      -9.073  17.850  67.684  0.00  0.00    +0.037 C 
ATOM      3  C   UNL     1      -8.541  18.814  66.510  0.00  0.00    +0.007 C 
ATOM      4  C   UNL     1      -7.649  19.822  67.550  0.00  0.00    +0.019 C 
ATOM      5  C   UNL     1      -6.771  18.685  68.240  0.00  0.00    -0.045 C 
ATOM      6  C   UNL     1      -6.602  17.384  67.327  0.00  0.00    +0.040 C 
ATOM      7  C   UNL     1      -5.581  19.197  68.565  0.00  0.00    -0.033 C 
ATOM      8  C   UNL     1      -5.227  20.596  68.264  0.00  0.00    -0.024 C 
ATOM      9  C   UNL     1      -4.716  21.255  69.308  0.00  0.00    +0.033 C 
ATOM     10  C   UNL     1      -4.584  20.411  70.508  0.00  0.00    +0.173 C 
ATOM     11  C   UNL     1      -4.066  19.011  70.397  0.00  0.00    +0.074 C 
ATOM     12  O   UNL     1      -4.985  20.792  71.649  0.00  0.00    -0.291 OA
ATOM     13  C   UNL     1      -5.762  21.243  67.045  0.00  0.00    +0.026 C 
ATOM     14  C   UNL     1      -4.444  18.391  69.052  0.00  0.00    +0.034 C 
ATOM     15  C   UNL     1      -6.582  20.147  66.361  0.00  0.00    +0.009 C 
ATOM     16  C   UNL     1      -9.819  19.801  66.582  0.00  0.00    +0.004 C 
ATOM     17  C   UNL     1      -9.291  18.610  68.937  0.00  0.00    +0.003 C 
ATOM     18  C   UNL     1      -8.108  16.789  67.613  0.00  0.00    +0.012 C 
ATOM     19  C   UNL     1     -10.909  19.007  67.166  0.00  0.00    +0.043 C 
ATOM     20  O   UNL     1     -11.138  16.920  68.251  0.00  0.00    -0.212 OA
ENDROOT
BRANCH   6  21
ATOM     21  C   UNL     1      -5.933  16.522  68.511  0.00  0.00    -0.019 A 
ATOM     22  C   UNL     1      -6.767  16.031  69.490  0.00  0.00    -0.003 A 
ATOM     23  C   UNL     1      -6.292  15.085  70.391  0.00  0.00    +0.014 A 
ATOM     24  C   UNL     1      -5.295  14.260  69.928  0.00  0.00    +0.048 A 
ATOM     25  C   UNL     1      -4.414  14.800  69.006  0.00  0.00    +0.014 A 
ATOM     26  C   UNL     1      -4.997  15.607  68.031  0.00  0.00    -0.003 A 
BRANCH  24  27
ATOM     27  N   UNL     1      -5.161  12.920  70.421  0.00  0.00    -0.304 N 
ATOM     28  C   UNL     1      -6.063  11.877  69.940  0.00  0.00    +0.112 C 
ATOM     29  C   UNL     1      -4.763  12.763  71.819  0.00  0.00    +0.112 C 
ENDBRANCH  24  27
ENDBRANCH   6  21
BRANCH   1  32
ATOM     30  C   UNL     1     -10.584  14.526  64.882  0.00  0.00    +0.090 C 
ATOM     31  C   UNL     1     -10.628  15.919  65.249  0.00  0.00    -0.088 C 
ATOM     32  C   UNL     1     -10.512  16.879  65.961  0.00  0.00    -0.062 C 
ENDBRANCH   1  32
TORSDOF 3
ENDMDL
MODEL 4
REMARK VINA RESULT:      -6.4      2.460      4.466
REMARK  Name = 
REMARK  3 active torsions:
REMARK  status: ('A' for Active; 'I' for Inactive)
REMARK    1  A    between atoms: C_3  and  C_4
REMARK    2  A    between atoms: C_20  and  C_21
REMARK    3  A    between atoms: C_24  and  N_25
REMARK                            x       y       z     vdW  Elec       q    Type
REMARK                         _______ _______ _______ _____ _____    ______ ____
ROOT
ATOM      1  C   UNL     1     -11.655  13.830  66.866  0.00  0.00    +0.179 C 
ATOM      2  C   UNL     1     -10.695  12.871  67.458  0.00  0.00    +0.037 C 
ATOM      3  C   UNL     1      -9.758  12.512  66.199  0.00  0.00    +0.007 C 
ATOM      4  C   UNL     1      -8.325  12.429  67.111  0.00  0.00    +0.019 C 
ATOM      5  C   UNL     1      -8.823  11.365  68.188  0.00  0.00    -0.045 C 
ATOM      6  C   UNL     1     -10.005  10.434  67.647  0.00  0.00    +0.040 C 
ATOM      7  C   UNL     1      -7.780  10.630  68.582  0.00  0.00    -0.033 C 
ATOM      8  C   UNL     1      -6.429  10.834  68.028  0.00  0.00    -0.024 C 
ATOM      9  C   UNL     1      -5.478  10.936  68.960  0.00  0.00    +0.033 C 
ATOM     10  C   UNL     1      -5.999  10.776  70.328  0.00  0.00    +0.173 C 
ATOM     11  C   UNL     1      -7.000   9.708  70.638  0.00  0.00    +0.074 C 
ATOM     12  O   UNL     1      -5.700  11.580  71.263  0.00  0.00    -0.291 OA
ATOM     13  C   UNL     1      -6.271  11.256  66.619  0.00  0.00    +0.026 C 
ATOM     14  C   UNL     1      -7.896   9.427  69.432  0.00  0.00    +0.034 C 
ATOM     15  C   UNL     1      -7.701  11.331  66.080  0.00  0.00    +0.009 C 
ATOM     16  C   UNL     1      -9.477  14.057  65.819  0.00  0.00    +0.004 C 
ATOM     17  C   UNL     1      -9.966  13.704  68.442  0.00  0.00    +0.003 C 
ATOM     18  C   UNL     1     -11.187  11.567  67.803  0.00  0.00    +0.012 C 
ATOM     19  C   UNL     1     -10.601  14.821  66.378  0.00  0.00    +0.043 C 
ATOM     20  O   UNL     1     -12.393  14.421  67.865  0.00  0.00    -0.212 OA
ENDROOT
BRANCH   6  21
ATOM     21  C   UNL     1     -10.295   9.795  69.097  0.00  0.00    -0.019 A 
ATOM     22  C   UNL     1     -11.022  10.548  69.991  0.00  0.00    -0.003 A 
ATOM     23  C   UNL     1     -11.510   9.962  71.153  0.00  0.00    +0.014 A 
ATOM     24  C   UNL     1     -11.785   8.617  71.078  0.00  0.00    +0.048 A 
ATOM     25  C   UNL     1     -10.986   7.860  70.236  0.00  0.00    +0.014 A 
ATOM     26  C   UNL     1     -10.680   8.458  69.014  0.00  0.00    -0.003 A 
BRANCH  24  27
ATOM     27  N   UNL     1     -12.825   8.034  71.874  0.00  0.00    -0.304 N 
ATOM     28  C   UNL     1     -13.096   6.601  71.776  0.00  0.00    +0.112 C 
ATOM     29  C   UNL     1     -14.013   8.850  72.116  0.00  0.00    +0.112 C 
ENDBRANCH  24  27
ENDBRANCH   6  21
BRANCH   1  32
ATOM     30  C   UNL     1     -12.229  12.073  63.504  0.00  0.00    +0.090 C 
ATOM     31  C   UNL     1     -12.593  12.651  64.772  0.00  0.00    -0.088 C 
ATOM     32  C   UNL     1     -12.440  13.269  65.790  0.00  0.00    -0.062 C 
ENDBRANCH   1  32
TORSDOF 3
ENDMDL
MODEL 5
REMARK VINA RESULT:      -6.2      4.484      7.950
REMARK  Name = 
REMARK  3 active torsions:
REMARK  status: ('A' for Active; 'I' for Inactive)
REMARK    1  A    between atoms: C_3  and  C_4
REMARK    2  A    between atoms: C_20  and  C_21
REMARK    3  A    between atoms: C_24  and  N_25
REMARK                            x       y       z     vdW  Elec       q    Type
REMARK                         _______ _______ _______ _____ _____    ______ ____
ROOT
ATOM      1  C   UNL     1      -4.835  14.256  69.372  0.00  0.00    +0.179 C 
ATOM      2  C   UNL     1      -5.645  15.406  68.908  0.00  0.00    +0.037 C 
ATOM      3  C   UNL     1      -5.381  16.493  70.065  0.00  0.00    +0.007 C 
ATOM      4  C   UNL     1      -5.350  17.822  69.005  0.00  0.00    +0.019 C 
ATOM      5  C   UNL     1      -6.766  17.573  68.316  0.00  0.00    -0.045 C 
ATOM      6  C   UNL     1      -7.776  16.747  69.242  0.00  0.00    +0.040 C 
ATOM      7  C   UNL     1      -7.291  18.752  67.972  0.00  0.00    -0.033 C 
ATOM      8  C   UNL     1      -6.602  20.024  68.253  0.00  0.00    -0.024 C 
ATOM      9  C   UNL     1      -6.528  20.838  67.197  0.00  0.00    +0.033 C 
ATOM     10  C   UNL     1      -7.196  20.289  66.005  0.00  0.00    +0.173 C 
ATOM     11  C   UNL     1      -8.528  19.615  66.125  0.00  0.00    +0.074 C 
ATOM     12  O   UNL     1      -6.642  20.279  64.864  0.00  0.00    -0.291 OA
ATOM     13  C   UNL     1      -5.771  20.155  69.471  0.00  0.00    +0.026 C 
ATOM     14  C   UNL     1      -8.673  18.925  67.481  0.00  0.00    +0.034 C 
ATOM     15  C   UNL     1      -5.914  18.804  70.177  0.00  0.00    +0.009 C 
ATOM     16  C   UNL     1      -3.774  16.348  69.998  0.00  0.00    +0.004 C 
ATOM     17  C   UNL     1      -4.968  15.795  67.650  0.00  0.00    +0.003 C 
ATOM     18  C   UNL     1      -7.074  15.284  68.979  0.00  0.00    +0.012 C 
ATOM     19  C   UNL     1      -3.512  15.016  69.434  0.00  0.00    +0.043 C 
ATOM     20  O   UNL     1      -4.760  13.312  68.376  0.00  0.00    -0.212 OA
ENDROOT
BRANCH   6  21
ATOM     21  C   UNL     1      -8.851  16.550  68.059  0.00  0.00    -0.019 A 
ATOM     22  C   UNL     1      -8.507  15.717  67.019  0.00  0.00    -0.003 A 
ATOM     23  C   UNL     1      -9.475  15.317  66.106  0.00  0.00    +0.014 A 
ATOM     24  C   UNL     1     -10.762  15.244  66.585  0.00  0.00    +0.048 A 
ATOM     25  C   UNL     1     -11.113  16.149  67.573  0.00  0.00    +0.014 A 
ATOM     26  C   UNL     1     -10.143  16.368  68.549  0.00  0.00    -0.003 A 
BRANCH  24  27
ATOM     27  N   UNL     1     -11.695  14.299  66.045  0.00  0.00    -0.304 N 
ATOM     28  C   UNL     1     -11.687  12.918  66.523  0.00  0.00    +0.112 C 
ATOM     29  C   UNL     1     -12.038  14.437  64.631  0.00  0.00    +0.112 C 
ENDBRANCH  24  27
ENDBRANCH   6  21
BRANCH   1  32
ATOM     30  C   UNL     1      -4.905  14.062  73.204  0.00  0.00    +0.090 C 
ATOM     31  C   UNL     1      -5.311  13.751  71.857  0.00  0.00    -0.088 C 
ATOM     32  C   UNL     1      -5.250  13.743  70.658  0.00  0.00    -0.062 C 
ENDBRANCH   1  32
TORSDOF 3
ENDMDL
MODEL 6
REMARK VINA RESULT:      -6.2      6.405      9.970
REMARK  Name = 
REMARK  3 active torsions:
REMARK  status: ('A' for Active; 'I' for Inactive)
REMARK    1  A    between atoms: C_3  and  C_4
REMARK    2  A    between atoms: C_20  and  C_21
REMARK    3  A    between atoms: C_24  and  N_25
REMARK                            x       y       z     vdW  Elec       q    Type
REMARK                         _______ _______ _______ _____ _____    ______ ____
ROOT
ATOM      1  C   UNL     1      -5.515  20.376  64.093  0.00  0.00    +0.179 C 
ATOM      2  C   UNL     1      -5.387  19.956  65.507  0.00  0.00    +0.037 C 
ATOM      3  C   UNL     1      -3.856  19.464  65.576  0.00  0.00    +0.007 C 
ATOM      4  C   UNL     1      -3.585  20.069  67.142  0.00  0.00    +0.019 C 
ATOM      5  C   UNL     1      -4.796  19.328  67.866  0.00  0.00    -0.045 C 
ATOM      6  C   UNL     1      -5.252  17.992  67.112  0.00  0.00    +0.040 C 
ATOM      7  C   UNL     1      -4.449  19.068  69.129  0.00  0.00    -0.033 C 
ATOM      8  C   UNL     1      -3.123  19.427  69.663  0.00  0.00    -0.024 C 
ATOM      9  C   UNL     1      -3.174  20.079  70.827  0.00  0.00    +0.033 C 
ATOM     10  C   UNL     1      -4.549  20.247  71.329  0.00  0.00    +0.173 C 
ATOM     11  C   UNL     1      -5.526  19.115  71.256  0.00  0.00    +0.074 C 
ATOM     12  O   UNL     1      -4.984  21.362  71.748  0.00  0.00    -0.291 OA
ATOM     13  C   UNL     1      -1.940  19.388  68.775  0.00  0.00    +0.026 C 
ATOM     14  C   UNL     1      -5.247  18.227  70.044  0.00  0.00    +0.034 C 
ATOM     15  C   UNL     1      -2.487  18.900  67.432  0.00  0.00    +0.009 C 
ATOM     16  C   UNL     1      -3.270  20.813  64.907  0.00  0.00    +0.004 C 
ATOM     17  C   UNL     1      -5.570  21.228  66.244  0.00  0.00    +0.003 C 
ATOM     18  C   UNL     1      -6.069  18.757  65.908  0.00  0.00    +0.012 C 
ATOM     19  C   UNL     1      -4.376  21.392  64.132  0.00  0.00    +0.043 C 
ATOM     20  O   UNL     1      -6.703  21.045  63.916  0.00  0.00    -0.212 OA
ENDROOT
BRANCH   6  21
ATOM     21  C   UNL     1      -6.569  17.814  68.022  0.00  0.00    -0.019 A 
ATOM     22  C   UNL     1      -7.620  18.674  67.796  0.00  0.00    -0.003 A 
ATOM     23  C   UNL     1      -8.859  18.416  68.369  0.00  0.00    +0.014 A 
ATOM     24  C   UNL     1      -9.153  17.092  68.597  0.00  0.00    +0.048 A 
ATOM     25  C   UNL     1      -8.090  16.260  68.908  0.00  0.00    +0.014 A 
ATOM     26  C   UNL     1      -6.931  16.476  68.165  0.00  0.00    -0.003 A 
BRANCH  24  27
ATOM     27  N   UNL     1     -10.507  16.622  68.555  0.00  0.00    -0.304 N 
ATOM     28  C   UNL     1     -11.203  16.304  69.800  0.00  0.00    +0.112 C 
ATOM     29  C   UNL     1     -10.878  15.765  67.431  0.00  0.00    +0.112 C 
ENDBRANCH  24  27
ENDBRANCH   6  21
BRANCH   1  32
ATOM     30  C   UNL     1      -4.675  18.843  60.677  0.00  0.00    +0.090 C 
ATOM     31  C   UNL     1      -4.944  18.851  62.093  0.00  0.00    -0.088 C 
ATOM     32  C   UNL     1      -5.281  19.305  63.152  0.00  0.00    -0.062 C 
ENDBRANCH   1  32
TORSDOF 3
ENDMDL
MODEL 7
REMARK VINA RESULT:      -6.2      2.597      6.853
REMARK  Name = 
REMARK  3 active torsions:
REMARK  status: ('A' for Active; 'I' for Inactive)
REMARK    1  A    between atoms: C_3  and  C_4
REMARK    2  A    between atoms: C_20  and  C_21
REMARK    3  A    between atoms: C_24  and  N_25
REMARK                            x       y       z     vdW  Elec       q    Type
REMARK                         _______ _______ _______ _____ _____    ______ ____
ROOT
ATOM      1  C   UNL     1      -6.762   9.710  64.816  0.00  0.00    +0.179 C 
ATOM      2  C   UNL     1      -7.801   9.725  65.871  0.00  0.00    +0.037 C 
ATOM      3  C   UNL     1      -8.648   8.401  65.529  0.00  0.00    +0.007 C 
ATOM      4  C   UNL     1      -8.922   7.986  67.155  0.00  0.00    +0.019 C 
ATOM      5  C   UNL     1      -9.569   9.367  67.618  0.00  0.00    -0.045 C 
ATOM      6  C   UNL     1     -10.240  10.178  66.413  0.00  0.00    +0.040 C 
ATOM      7  C   UNL     1     -10.459   9.125  68.583  0.00  0.00    -0.033 C 
ATOM      8  C   UNL     1     -10.743   7.758  69.056  0.00  0.00    -0.024 C 
ATOM      9  C   UNL     1     -10.710   7.633  70.385  0.00  0.00    +0.033 C 
ATOM     10  C   UNL     1     -10.439   8.908  71.072  0.00  0.00    +0.173 C 
ATOM     11  C   UNL     1     -11.113  10.167  70.625  0.00  0.00    +0.074 C 
ATOM     12  O   UNL     1      -9.571   9.009  71.991  0.00  0.00    -0.291 OA
ATOM     13  C   UNL     1     -10.678   6.625  68.106  0.00  0.00    +0.026 C 
ATOM     14  C   UNL     1     -11.386  10.141  69.122  0.00  0.00    +0.034 C 
ATOM     15  C   UNL     1     -10.335   7.273  66.763  0.00  0.00    +0.009 C 
ATOM     16  C   UNL     1      -7.348   7.444  65.460  0.00  0.00    +0.004 C 
ATOM     17  C   UNL     1      -7.009   9.544  67.110  0.00  0.00    +0.003 C 
ATOM     18  C   UNL     1      -8.826  10.727  65.780  0.00  0.00    +0.012 C 
ATOM     19  C   UNL     1      -6.213   8.329  65.161  0.00  0.00    +0.043 C 
ATOM     20  O   UNL     1      -5.803  10.655  65.098  0.00  0.00    -0.212 OA
ENDROOT
BRANCH   6  21
ATOM     21  C   UNL     1     -10.466  11.501  67.303  0.00  0.00    -0.019 A 
ATOM     22  C   UNL     1      -9.350  12.214  67.678  0.00  0.00    -0.003 A 
ATOM     23  C   UNL     1      -9.493  13.482  68.228  0.00  0.00    +0.014 A 
ATOM     24  C   UNL     1     -10.599  14.192  67.825  0.00  0.00    +0.048 A 
ATOM     25  C   UNL     1     -11.739  13.462  67.533  0.00  0.00    +0.014 A 
ATOM     26  C   UNL     1     -11.521  12.279  66.829  0.00  0.00    -0.003 A 
BRANCH  24  27
ATOM     27  N   UNL     1     -10.569  15.624  67.757  0.00  0.00    -0.304 N 
ATOM     28  C   UNL     1     -10.383  16.286  66.468  0.00  0.00    +0.112 C 
ATOM     29  C   UNL     1      -9.956  16.329  68.881  0.00  0.00    +0.112 C 
ENDBRANCH  24  27
ENDBRANCH   6  21
BRANCH   1  32
ATOM     30  C   UNL     1      -7.215  11.185  61.302  0.00  0.00    +0.090 C 
ATOM     31  C   UNL     1      -7.370  10.220  62.361  0.00  0.00    -0.088 C 
ATOM     32  C   UNL     1      -7.302   9.783  63.477  0.00  0.00    -0.062 C 
ENDBRANCH   1  32
TORSDOF 3
ENDMDL
MODEL 8
REMARK VINA RESULT:      -6.1      4.266      7.451
REMARK  Name = 
REMARK  3 active torsions:
REMARK  status: ('A' for Active; 'I' for Inactive)
REMARK    1  A    between atoms: C_3  and  C_4
REMARK    2  A    between atoms: C_20  and  C_21
REMARK    3  A    between atoms: C_24  and  N_25
REMARK                            x       y       z     vdW  Elec       q    Type
REMARK                         _______ _______ _______ _____ _____    ______ ____
ROOT
ATOM      1  C   UNL     1     -10.033  15.302  67.123  0.00  0.00    +0.179 C 
ATOM      2  C   UNL     1      -8.836  16.051  67.568  0.00  0.00    +0.037 C 
ATOM      3  C   UNL     1      -8.600  17.068  66.343  0.00  0.00    +0.007 C 
ATOM      4  C   UNL     1      -8.112  18.364  67.330  0.00  0.00    +0.019 C 
ATOM      5  C   UNL     1      -6.941  17.609  68.105  0.00  0.00    -0.045 C 
ATOM      6  C   UNL     1      -6.335  16.381  67.278  0.00  0.00    +0.040 C 
ATOM      7  C   UNL     1      -5.988  18.492  68.413  0.00  0.00    -0.033 C 
ATOM      8  C   UNL     1      -6.088  19.911  68.030  0.00  0.00    -0.024 C 
ATOM      9  C   UNL     1      -5.850  20.756  69.037  0.00  0.00    +0.033 C 
ATOM     10  C   UNL     1      -5.498  20.067  70.290  0.00  0.00    +0.173 C 
ATOM     11  C   UNL     1      -4.557  18.902  70.275  0.00  0.00    +0.074 C 
ATOM     12  O   UNL     1      -6.037  20.362  71.399  0.00  0.00    -0.291 OA
ATOM     13  C   UNL     1      -6.759  20.284  66.764  0.00  0.00    +0.026 C 
ATOM     14  C   UNL     1      -4.671  18.120  68.967  0.00  0.00    +0.034 C 
ATOM     15  C   UNL     1      -7.164  18.947  66.139  0.00  0.00    +0.009 C 
ATOM     16  C   UNL     1     -10.127  17.595  66.333  0.00  0.00    +0.004 C 
ATOM     17  C   UNL     1      -9.328  16.768  68.767  0.00  0.00    +0.003 C 
ATOM     18  C   UNL     1      -7.582  15.352  67.579  0.00  0.00    +0.012 C 
ATOM     19  C   UNL     1     -10.926  16.528  66.951  0.00  0.00    +0.043 C 
ATOM     20  O   UNL     1     -10.515  14.541  68.162  0.00  0.00    -0.212 OA
ENDROOT
BRANCH   6  21
ATOM     21  C   UNL     1      -5.467  15.845  68.524  0.00  0.00    -0.019 A 
ATOM     22  C   UNL     1      -6.151  15.327  69.600  0.00  0.00    -0.003 A 
ATOM     23  C   UNL     1      -5.462  14.631  70.587  0.00  0.00    +0.014 A 
ATOM     24  C   UNL     1      -4.323  13.979  70.179  0.00  0.00    +0.048 A 
ATOM     25  C   UNL     1      -3.602  14.563  69.151  0.00  0.00    +0.014 A 
ATOM     26  C   UNL     1      -4.369  15.091  68.114  0.00  0.00    -0.003 A 
BRANCH  24  27
ATOM     27  N   UNL     1      -3.892  12.776  70.829  0.00  0.00    -0.304 N 
ATOM     28  C   UNL     1      -3.527  11.610  70.028  0.00  0.00    +0.112 C 
ATOM     29  C   UNL     1      -4.526  12.447  72.105  0.00  0.00    +0.112 C 
ENDBRANCH  24  27
ENDBRANCH   6  21
BRANCH   1  32
ATOM     30  C   UNL     1     -10.999  12.941  64.255  0.00  0.00    +0.090 C 
ATOM     31  C   UNL     1     -10.184  13.893  64.966  0.00  0.00    -0.088 C 
ATOM     32  C   UNL     1      -9.831  14.575  65.889  0.00  0.00    -0.062 C 
ENDBRANCH   1  32
TORSDOF 3
ENDMDL
MODEL 9
REMARK VINA RESULT:      -6.1      3.109      5.793
REMARK  Name = 
REMARK  3 active torsions:
REMARK  status: ('A' for Active; 'I' for Inactive)
REMARK    1  A    between atoms: C_3  and  C_4
REMARK    2  A    between atoms: C_20  and  C_21
REMARK    3  A    between atoms: C_24  and  N_25
REMARK                            x       y       z     vdW  Elec       q    Type
REMARK                         _______ _______ _______ _____ _____    ______ ____
ROOT
ATOM      1  C   UNL     1     -11.708  13.989  64.909  0.00  0.00    +0.179 C 
ATOM      2  C   UNL     1     -11.071  12.703  65.274  0.00  0.00    +0.037 C 
ATOM      3  C   UNL     1     -10.553  12.996  66.769  0.00  0.00    +0.007 C 
ATOM      4  C   UNL     1     -10.904  11.435  67.347  0.00  0.00    +0.019 C 
ATOM      5  C   UNL     1     -10.077  10.618  66.257  0.00  0.00    -0.045 C 
ATOM      6  C   UNL     1      -8.881  11.464  65.615  0.00  0.00    +0.040 C 
ATOM      7  C   UNL     1      -9.618   9.495  66.817  0.00  0.00    -0.033 C 
ATOM      8  C   UNL     1      -9.872   9.170  68.232  0.00  0.00    -0.024 C 
ATOM      9  C   UNL     1     -10.336   7.932  68.423  0.00  0.00    +0.033 C 
ATOM     10  C   UNL     1     -10.444   7.163  67.171  0.00  0.00    +0.173 C 
ATOM     11  C   UNL     1      -9.351   7.222  66.149  0.00  0.00    +0.074 C 
ATOM     12  O   UNL     1     -11.487   6.508  66.868  0.00  0.00    -0.291 OA
ATOM     13  C   UNL     1      -9.954  10.259  69.231  0.00  0.00    +0.026 C 
ATOM     14  C   UNL     1      -8.658   8.583  66.163  0.00  0.00    +0.034 C 
ATOM     15  C   UNL     1      -9.688  11.534  68.428  0.00  0.00    +0.009 C 
ATOM     16  C   UNL     1     -11.981  13.552  67.281  0.00  0.00    +0.004 C 
ATOM     17  C   UNL     1     -12.216  11.764  65.284  0.00  0.00    +0.003 C 
ATOM     18  C   UNL     1      -9.835  12.366  64.626  0.00  0.00    +0.012 C 
ATOM     19  C   UNL     1     -12.689  14.012  66.078  0.00  0.00    +0.043 C 
ATOM     20  O   UNL     1     -12.413  13.840  63.738  0.00  0.00    -0.212 OA
ENDROOT
BRANCH   6  21
ATOM     21  C   UNL     1      -8.583  10.362  64.479  0.00  0.00    -0.019 A 
ATOM     22  C   UNL     1      -9.493  10.242  63.453  0.00  0.00    -0.003 A 
ATOM     23  C   UNL     1      -9.171   9.493  62.328  0.00  0.00    +0.014 A 
ATOM     24  C   UNL     1      -7.836   9.430  62.008  0.00  0.00    +0.048 A 
ATOM     25  C   UNL     1      -6.937   9.466  63.062  0.00  0.00    +0.014 A 
ATOM     26  C   UNL     1      -7.249  10.371  64.076  0.00  0.00    -0.003 A 
BRANCH  24  27
ATOM     27  N   UNL     1      -7.412   9.290  60.646  0.00  0.00    -0.304 N 
ATOM     28  C   UNL     1      -7.900   8.168  59.846  0.00  0.00    +0.112 C 
ATOM     29  C   UNL     1      -6.042   9.692  60.331  0.00  0.00    +0.112 C 
ENDBRANCH  24  27
ENDBRANCH   6  21
BRANCH   1  32
ATOM     30  C   UNL     1     -10.209  17.269  66.223  0.00  0.00    +0.090 C 
ATOM     31  C   UNL     1     -10.295  16.093  65.394  0.00  0.00    -0.088 C 
ATOM     32  C   UNL     1     -10.792  15.108  64.921  0.00  0.00    -0.062 C 
ENDBRANCH   1  32
TORSDOF 3
ENDMDL
