MODEL 1
REMARK VINA RESULT:      -6.4      0.000      0.000
REMARK  Name = 
REMARK  8 active torsions:
REMARK  status: ('A' for Active; 'I' for Inactive)
REMARK    1  A    between atoms: C_2  and  C_3
REMARK    2  A    between atoms: C_3  and  O_4
REMARK    3  A    between atoms: O_4  and  C_5
REMARK    4  A    between atoms: C_5  and  C_6
REMARK    5  A    between atoms: C_6  and  N_7
REMARK    6  A    between atoms: N_10  and  C_11
REMARK    7  A    between atoms: C_11  and  C_12
REMARK    8  A    between atoms: C_11  and  C_18
REMARK                            x       y       z     vdW  Elec       q    Type
REMARK                         _______ _______ _______ _____ _____    ______ ____
ROOT
ATOM      1  C   UNL     1     -11.869  13.573  67.280  0.00  0.00    +0.103 C 
ENDROOT
BRANCH   1   2
ATOM      2  C   UNL     1     -10.734  14.706  67.053  0.00  0.00    -0.004 A 
ATOM      3  C   UNL     1     -10.631  15.370  68.278  0.00  0.00    -0.002 A 
ATOM      4  C   UNL     1     -10.410  16.745  68.338  0.00  0.00    +0.011 A 
ATOM      5  C   UNL     1     -10.256  17.461  67.156  0.00  0.00    +0.058 A 
ATOM      6 CL   UNL     1     -10.718  19.159  67.049  0.00  0.00    -0.082 Cl
ATOM      7  C   UNL     1     -10.043  16.692  66.018  0.00  0.00    +0.011 A 
ATOM      8  C   UNL     1     -10.653  15.446  65.975  0.00  0.00    -0.002 A 
ENDBRANCH   1   2
BRANCH   1   9
ATOM      9  C   UNL     1     -11.452  12.655  66.019  0.00  0.00    -0.004 A 
ATOM     10  C   UNL     1     -10.275  12.507  65.519  0.00  0.00    -0.003 A 
ATOM     11  C   UNL     1     -10.015  12.262  64.196  0.00  0.00    -0.000 A 
ATOM     12  C   UNL     1     -11.070  12.290  63.316  0.00  0.00    -0.000 A 
ATOM     13  C   UNL     1     -12.353  12.401  63.815  0.00  0.00    -0.000 A 
ATOM     14  C   UNL     1     -12.558  12.614  65.173  0.00  0.00    -0.003 A 
ENDBRANCH   1   9
BRANCH   1  18
ATOM     15  N   UNL     1     -10.940  10.437  69.656  0.00  0.00    -0.268 NA
ATOM     16  C   UNL     1     -12.173  11.096  69.570  0.00  0.00    +0.090 C 
ATOM     17  C   UNL     1     -11.942  12.604  69.504  0.00  0.00    +0.090 C 
ATOM     18  N   UNL     1     -11.103  12.786  68.388  0.00  0.00    -0.264 NA
ATOM     19  C   UNL     1      -9.999  12.151  68.187  0.00  0.00    +0.090 C 
ATOM     20  C   UNL     1      -9.859  10.836  68.864  0.00  0.00    +0.090 C 
BRANCH  15  21
ATOM     21  C   UNL     1     -10.883   9.197  70.317  0.00  0.00    +0.105 C 
BRANCH  21  22
ATOM     22  C   UNL     1     -11.538   9.191  71.674  0.00  0.00    +0.160 C 
BRANCH  22  23
ATOM     23  O   UNL     1     -12.677   8.382  71.526  0.00  0.00    -0.350 OA
BRANCH  23  24
ATOM     24  C   UNL     1     -13.700   8.980  72.279  0.00  0.00    +0.178 C 
BRANCH  24  26
ATOM     25  O   UNL     1     -15.148   8.015  72.139  0.00  0.00    -0.218 OA
ATOM     26  C   UNL     1     -14.885   8.032  72.102  0.00  0.00    +0.214 C 
ENDBRANCH  24  26
ENDBRANCH  23  24
ENDBRANCH  22  23
ENDBRANCH  21  22
ENDBRANCH  15  21
ENDBRANCH   1  18
TORSDOF 8
ENDMDL
MODEL 2
REMARK VINA RESULT:      -6.3      5.147      7.954
REMARK  Name = 
REMARK  8 active torsions:
REMARK  status: ('A' for Active; 'I' for Inactive)
REMARK    1  A    between atoms: C_2  and  C_3
REMARK    2  A    between atoms: C_3  and  O_4
REMARK    3  A    between atoms: O_4  and  C_5
REMARK    4  A    between atoms: C_5  and  C_6
REMARK    5  A    between atoms: C_6  and  N_7
REMARK    6  A    between atoms: N_10  and  C_11
REMARK    7  A    between atoms: C_11  and  C_12
REMARK    8  A    between atoms: C_11  and  C_18
REMARK                            x       y       z     vdW  Elec       q    Type
REMARK                         _______ _______ _______ _____ _____    ______ ____
ROOT
ATOM      1  C   UNL     1     -10.109  14.982  68.475  0.00  0.00    +0.103 C 
ENDROOT
BRANCH   1   2
ATOM      2  C   UNL     1     -11.464  15.056  69.359  0.00  0.00    -0.004 A 
ATOM      3  C   UNL     1     -11.312  16.185  70.168  0.00  0.00    -0.002 A 
ATOM      4  C   UNL     1     -11.779  16.201  71.482  0.00  0.00    +0.011 A 
ATOM      5  C   UNL     1     -12.438  15.084  71.983  0.00  0.00    +0.058 A 
ATOM      6 CL   UNL     1     -12.389  14.688  73.700  0.00  0.00    -0.082 Cl
ATOM      7  C   UNL     1     -12.834  14.151  71.032  0.00  0.00    +0.011 A 
ATOM      8  C   UNL     1     -12.028  14.010  69.911  0.00  0.00    -0.002 A 
ENDBRANCH   1   2
BRANCH   1   9
ATOM      9  C   UNL     1     -10.842  14.746  67.056  0.00  0.00    -0.004 A 
ATOM     10  C   UNL     1     -12.050  14.349  66.860  0.00  0.00    -0.003 A 
ATOM     11  C   UNL     1     -12.462  13.605  65.784  0.00  0.00    -0.000 A 
ATOM     12  C   UNL     1     -11.503  13.150  64.912  0.00  0.00    -0.000 A 
ATOM     13  C   UNL     1     -10.201  13.588  65.060  0.00  0.00    -0.000 A 
ATOM     14  C   UNL     1      -9.849  14.371  66.153  0.00  0.00    -0.003 A 
ENDBRANCH   1   9
BRANCH   1  18
ATOM     15  N   UNL     1      -8.774  18.453  66.888  0.00  0.00    -0.268 NA
ATOM     16  C   UNL     1      -8.001  17.367  67.321  0.00  0.00    +0.090 C 
ATOM     17  C   UNL     1      -8.555  16.838  68.641  0.00  0.00    +0.090 C 
ATOM     18  N   UNL     1      -9.898  16.523  68.361  0.00  0.00    -0.264 NA
ATOM     19  C   UNL     1     -10.742  17.326  67.806  0.00  0.00    +0.090 C 
ATOM     20  C   UNL     1     -10.169  18.414  66.971  0.00  0.00    +0.090 C 
BRANCH  15  21
ATOM     21  C   UNL     1      -8.162  19.447  66.105  0.00  0.00    +0.105 C 
BRANCH  21  22
ATOM     22  C   UNL     1      -6.792  19.853  66.584  0.00  0.00    +0.160 C 
BRANCH  22  23
ATOM     23  O   UNL     1      -7.025  20.765  67.627  0.00  0.00    -0.350 OA
BRANCH  23  24
ATOM     24  C   UNL     1      -5.951  20.639  68.522  0.00  0.00    +0.178 C 
BRANCH  24  26
ATOM     25  O   UNL     1      -6.494  19.757  69.928  0.00  0.00    -0.218 OA
ATOM     26  C   UNL     1      -6.559  19.910  69.720  0.00  0.00    +0.214 C 
ENDBRANCH  24  26
ENDBRANCH  23  24
ENDBRANCH  22  23
ENDBRANCH  21  22
ENDBRANCH  15  21
ENDBRANCH   1  18
TORSDOF 8
ENDMDL
MODEL 3
REMARK VINA RESULT:      -6.2      5.300      8.480
REMARK  Name = 
REMARK  8 active torsions:
REMARK  status: ('A' for Active; 'I' for Inactive)
REMARK    1  A    between atoms: C_2  and  C_3
REMARK    2  A    between atoms: C_3  and  O_4
REMARK    3  A    between atoms: O_4  and  C_5
REMARK    4  A    between atoms: C_5  and  C_6
REMARK    5  A    between atoms: C_6  and  N_7
REMARK    6  A    between atoms: N_10  and  C_11
REMARK    7  A    between atoms: C_11  and  C_12
REMARK    8  A    between atoms: C_11  and  C_18
REMARK                            x       y       z     vdW  Elec       q    Type
REMARK                         _______ _______ _______ _____ _____    ______ ____
ROOT
ATOM      1  C   UNL     1     -11.465  15.456  67.473  0.00  0.00    +0.103 C 
ENDROOT
BRANCH   1   2
ATOM      2  C   UNL     1     -11.024  14.041  66.819  0.00  0.00    -0.004 A 
ATOM      3  C   UNL     1     -10.473  14.368  65.578  0.00  0.00    -0.002 A 
ATOM      4  C   UNL     1     -10.666  13.553  64.464  0.00  0.00    +0.011 A 
ATOM      5  C   UNL     1     -11.395  12.377  64.600  0.00  0.00    +0.058 A 
ATOM      6 CL   UNL     1     -12.313  11.708  63.252  0.00  0.00    -0.082 Cl
ATOM      7  C   UNL     1     -11.621  11.965  65.908  0.00  0.00    +0.011 A 
ATOM      8  C   UNL     1     -11.761  12.959  66.868  0.00  0.00    -0.002 A 
ENDBRANCH   1   2
BRANCH   1   9
ATOM      9  C   UNL     1     -11.442  14.953  69.007  0.00  0.00    -0.004 A 
ATOM     10  C   UNL     1     -11.579  13.746  69.432  0.00  0.00    -0.003 A 
ATOM     11  C   UNL     1     -12.143  13.401  70.633  0.00  0.00    -0.000 A 
ATOM     12  C   UNL     1     -12.708  14.400  71.389  0.00  0.00    -0.000 A 
ATOM     13  C   UNL     1     -12.545  15.713  70.991  0.00  0.00    -0.000 A 
ATOM     14  C   UNL     1     -11.934  16.004  69.778  0.00  0.00    -0.003 A 
ENDBRANCH   1   9
BRANCH   1  18
ATOM     15  N   UNL     1      -8.562  18.118  68.387  0.00  0.00    -0.268 NA
ATOM     16  C   UNL     1      -9.805  18.389  67.798  0.00  0.00    +0.090 C 
ATOM     17  C   UNL     1     -10.111  17.332  66.741  0.00  0.00    +0.090 C 
ATOM     18  N   UNL     1     -10.049  16.108  67.434  0.00  0.00    -0.264 NA
ATOM     19  C   UNL     1      -9.063  15.732  68.175  0.00  0.00    +0.090 C 
ATOM     20  C   UNL     1      -8.207  16.811  68.736  0.00  0.00    +0.090 C 
BRANCH  15  21
ATOM     21  C   UNL     1      -7.806  19.190  68.891  0.00  0.00    +0.105 C 
BRANCH  21  22
ATOM     22  C   UNL     1      -7.133  20.023  67.831  0.00  0.00    +0.160 C 
BRANCH  22  23
ATOM     23  O   UNL     1      -6.207  20.819  68.525  0.00  0.00    -0.350 OA
BRANCH  23  24
ATOM     24  C   UNL     1      -5.985  20.196  69.763  0.00  0.00    +0.178 C 
BRANCH  24  26
ATOM     25  O   UNL     1      -4.878  21.343  70.474  0.00  0.00    -0.218 OA
ATOM     26  C   UNL     1      -4.945  21.088  70.440  0.00  0.00    +0.214 C 
ENDBRANCH  24  26
ENDBRANCH  23  24
ENDBRANCH  22  23
ENDBRANCH  21  22
ENDBRANCH  15  21
ENDBRANCH   1  18
TORSDOF 8
ENDMDL
MODEL 4
REMARK VINA RESULT:      -6.2      5.011      8.148
REMARK  Name = 
REMARK  8 active torsions:
REMARK  status: ('A' for Active; 'I' for Inactive)
REMARK    1  A    between atoms: C_2  and  C_3
REMARK    2  A    between atoms: C_3  and  O_4
REMARK    3  A    between atoms: O_4  and  C_5
REMARK    4  A    between atoms: C_5  and  C_6
REMARK    5  A    between atoms: C_6  and  N_7
REMARK    6  A    between atoms: N_10  and  C_11
REMARK    7  A    between atoms: C_11  and  C_12
REMARK    8  A    between atoms: C_11  and  C_18
REMARK                            x       y       z     vdW  Elec       q    Type
REMARK                         _______ _______ _______ _____ _____    ______ ____
ROOT
ATOM      1  C   UNL     1     -11.395  15.454  67.480  0.00  0.00    +0.103 C 
ENDROOT
BRANCH   1   2
ATOM      2  C   UNL     1     -11.014  14.031  66.807  0.00  0.00    -0.004 A 
ATOM      3  C   UNL     1     -10.471  14.350  65.560  0.00  0.00    -0.002 A 
ATOM      4  C   UNL     1     -10.710  13.553  64.442  0.00  0.00    +0.011 A 
ATOM      5  C   UNL     1     -11.477  12.401  64.580  0.00  0.00    +0.058 A 
ATOM      6 CL   UNL     1     -12.439  11.777  63.240  0.00  0.00    -0.082 Cl
ATOM      7  C   UNL     1     -11.697  11.985  65.887  0.00  0.00    +0.011 A 
ATOM      8  C   UNL     1     -11.787  12.974  66.858  0.00  0.00    -0.002 A 
ENDBRANCH   1   2
BRANCH   1   9
ATOM      9  C   UNL     1     -11.402  14.927  69.006  0.00  0.00    -0.004 A 
ATOM     10  C   UNL     1     -11.562  13.716  69.411  0.00  0.00    -0.003 A 
ATOM     11  C   UNL     1     -12.148  13.361  70.598  0.00  0.00    -0.000 A 
ATOM     12  C   UNL     1     -12.712  14.356  71.360  0.00  0.00    -0.000 A 
ATOM     13  C   UNL     1     -12.525  15.672  70.985  0.00  0.00    -0.000 A 
ATOM     14  C   UNL     1     -11.891  15.973  69.786  0.00  0.00    -0.003 A 
ENDBRANCH   1   9
BRANCH   1  18
ATOM     15  N   UNL     1      -8.356  17.911  68.518  0.00  0.00    -0.268 NA
ATOM     16  C   UNL     1      -9.595  18.279  67.976  0.00  0.00    +0.090 C 
ATOM     17  C   UNL     1      -9.969  17.315  66.853  0.00  0.00    +0.090 C 
ATOM     18  N   UNL     1      -9.951  16.043  67.457  0.00  0.00    -0.264 NA
ATOM     19  C   UNL     1      -8.970  15.572  68.150  0.00  0.00    +0.090 C 
ATOM     20  C   UNL     1      -8.056  16.569  68.767  0.00  0.00    +0.090 C 
BRANCH  15  21
ATOM     21  C   UNL     1      -7.543  18.909  69.081  0.00  0.00    +0.105 C 
BRANCH  21  22
ATOM     22  C   UNL     1      -7.155  20.004  68.119  0.00  0.00    +0.160 C 
BRANCH  22  23
ATOM     23  O   UNL     1      -6.105  19.465  67.357  0.00  0.00    -0.350 OA
BRANCH  23  24
ATOM     24  C   UNL     1      -6.413  19.714  66.010  0.00  0.00    +0.178 C 
BRANCH  24  26
ATOM     25  O   UNL     1      -6.848  18.182  65.292  0.00  0.00    -0.218 OA
ATOM     26  C   UNL     1      -6.669  18.323  65.432  0.00  0.00    +0.214 C 
ENDBRANCH  24  26
ENDBRANCH  23  24
ENDBRANCH  22  23
ENDBRANCH  21  22
ENDBRANCH  15  21
ENDBRANCH   1  18
TORSDOF 8
ENDMDL
MODEL 5
REMARK VINA RESULT:      -6.1      5.301      8.412
REMARK  Name = 
REMARK  8 active torsions:
REMARK  status: ('A' for Active; 'I' for Inactive)
REMARK    1  A    between atoms: C_2  and  C_3
REMARK    2  A    between atoms: C_3  and  O_4
REMARK    3  A    between atoms: O_4  and  C_5
REMARK    4  A    between atoms: C_5  and  C_6
REMARK    5  A    between atoms: C_6  and  N_7
REMARK    6  A    between atoms: N_10  and  C_11
REMARK    7  A    between atoms: C_11  and  C_12
REMARK    8  A    between atoms: C_11  and  C_18
REMARK                            x       y       z     vdW  Elec       q    Type
REMARK                         _______ _______ _______ _____ _____    ______ ____
ROOT
ATOM      1  C   UNL     1     -10.133  14.902  68.508  0.00  0.00    +0.103 C 
ENDROOT
BRANCH   1   2
ATOM      2  C   UNL     1     -11.491  14.994  69.386  0.00  0.00    -0.004 A 
ATOM      3  C   UNL     1     -11.341  16.138  70.173  0.00  0.00    -0.002 A 
ATOM      4  C   UNL     1     -11.812  16.181  71.484  0.00  0.00    +0.011 A 
ATOM      5  C   UNL     1     -12.474  15.074  72.005  0.00  0.00    +0.058 A 
ATOM      6 CL   UNL     1     -12.431  14.712  73.730  0.00  0.00    -0.082 Cl
ATOM      7  C   UNL     1     -12.868  14.123  71.072  0.00  0.00    +0.011 A 
ATOM      8  C   UNL     1     -12.058  13.959  69.956  0.00  0.00    -0.002 A 
ENDBRANCH   1   2
BRANCH   1   9
ATOM      9  C   UNL     1     -10.862  14.665  67.087  0.00  0.00    -0.004 A 
ATOM     10  C   UNL     1     -12.067  14.260  66.888  0.00  0.00    -0.003 A 
ATOM     11  C   UNL     1     -12.472  13.515  65.811  0.00  0.00    -0.000 A 
ATOM     12  C   UNL     1     -11.509  13.068  64.939  0.00  0.00    -0.000 A 
ATOM     13  C   UNL     1     -10.211  13.515  65.090  0.00  0.00    -0.000 A 
ATOM     14  C   UNL     1      -9.866  14.297  66.185  0.00  0.00    -0.003 A 
ENDBRANCH   1   9
BRANCH   1  18
ATOM     15  N   UNL     1      -8.707  18.346  66.941  0.00  0.00    -0.268 NA
ATOM     16  C   UNL     1      -7.961  17.261  67.419  0.00  0.00    +0.090 C 
ATOM     17  C   UNL     1      -8.576  16.751  68.720  0.00  0.00    +0.090 C 
ATOM     18  N   UNL     1      -9.908  16.441  68.386  0.00  0.00    -0.264 NA
ATOM     19  C   UNL     1     -10.721  17.242  67.785  0.00  0.00    +0.090 C 
ATOM     20  C   UNL     1     -10.104  18.316  66.963  0.00  0.00    +0.090 C 
BRANCH  15  21
ATOM     21  C   UNL     1      -8.055  19.327  66.174  0.00  0.00    +0.105 C 
BRANCH  21  22
ATOM     22  C   UNL     1      -6.586  19.067  65.961  0.00  0.00    +0.160 C 
BRANCH  22  23
ATOM     23  O   UNL     1      -6.482  18.625  64.631  0.00  0.00    -0.350 OA
BRANCH  23  24
ATOM     24  C   UNL     1      -5.250  19.088  64.145  0.00  0.00    +0.178 C 
BRANCH  24  26
ATOM     25  O   UNL     1      -5.697  19.600  62.536  0.00  0.00    -0.218 OA
ATOM     26  C   UNL     1      -5.593  19.666  62.772  0.00  0.00    +0.214 C 
ENDBRANCH  24  26
ENDBRANCH  23  24
ENDBRANCH  22  23
ENDBRANCH  21  22
ENDBRANCH  15  21
ENDBRANCH   1  18
TORSDOF 8
ENDMDL
MODEL 6
REMARK VINA RESULT:      -6.0      1.040      1.564
REMARK  Name = 
REMARK  8 active torsions:
REMARK  status: ('A' for Active; 'I' for Inactive)
REMARK    1  A    between atoms: C_2  and  C_3
REMARK    2  A    between atoms: C_3  and  O_4
REMARK    3  A    between atoms: O_4  and  C_5
REMARK    4  A    between atoms: C_5  and  C_6
REMARK    5  A    between atoms: C_6  and  N_7
REMARK    6  A    between atoms: N_10  and  C_11
REMARK    7  A    between atoms: C_11  and  C_12
REMARK    8  A    between atoms: C_11  and  C_18
REMARK                            x       y       z     vdW  Elec       q    Type
REMARK                         _______ _______ _______ _____ _____    ______ ____
ROOT
ATOM      1  C   UNL     1     -11.863  13.602  67.323  0.00  0.00    +0.103 C 
ENDROOT
BRANCH   1   2
ATOM      2  C   UNL     1     -10.737  14.742  67.084  0.00  0.00    -0.004 A 
ATOM      3  C   UNL     1     -10.633  15.414  68.305  0.00  0.00    -0.002 A 
ATOM      4  C   UNL     1     -10.420  16.791  68.356  0.00  0.00    +0.011 A 
ATOM      5  C   UNL     1     -10.277  17.501  67.169  0.00  0.00    +0.058 A 
ATOM      6 CL   UNL     1     -10.751  19.195  67.054  0.00  0.00    -0.082 Cl
ATOM      7  C   UNL     1     -10.064  16.727  66.035  0.00  0.00    +0.011 A 
ATOM      8  C   UNL     1     -10.666  15.476  66.002  0.00  0.00    -0.002 A 
ENDBRANCH   1   2
BRANCH   1   9
ATOM      9  C   UNL     1     -11.428  12.667  66.081  0.00  0.00    -0.004 A 
ATOM     10  C   UNL     1     -10.250  12.534  65.582  0.00  0.00    -0.003 A 
ATOM     11  C   UNL     1      -9.987  12.266  64.263  0.00  0.00    -0.000 A 
ATOM     12  C   UNL     1     -11.044  12.252  63.386  0.00  0.00    -0.000 A 
ATOM     13  C   UNL     1     -12.329  12.347  63.885  0.00  0.00    -0.000 A 
ATOM     14  C   UNL     1     -12.535  12.584  65.238  0.00  0.00    -0.003 A 
ENDBRANCH   1   9
BRANCH   1  18
ATOM     15  N   UNL     1     -11.072  10.612  69.927  0.00  0.00    -0.268 NA
ATOM     16  C   UNL     1     -12.237  11.387  69.857  0.00  0.00    +0.090 C 
ATOM     17  C   UNL     1     -11.865  12.850  69.630  0.00  0.00    +0.090 C 
ATOM     18  N   UNL     1     -11.098  12.842  68.450  0.00  0.00    -0.264 NA
ATOM     19  C   UNL     1     -10.079  12.079  68.239  0.00  0.00    +0.090 C 
ATOM     20  C   UNL     1     -10.020  10.822  69.031  0.00  0.00    +0.090 C 
BRANCH  15  21
ATOM     21  C   UNL     1     -11.089   9.438  70.699  0.00  0.00    +0.105 C 
BRANCH  21  22
ATOM     22  C   UNL     1     -12.262   9.335  71.640  0.00  0.00    +0.160 C 
BRANCH  22  23
ATOM     23  O   UNL     1     -12.019   8.179  72.401  0.00  0.00    -0.350 OA
BRANCH  23  24
ATOM     24  C   UNL     1     -10.626   8.070  72.539  0.00  0.00    +0.178 C 
BRANCH  24  26
ATOM     25  O   UNL     1     -10.280   6.881  73.769  0.00  0.00    -0.218 OA
ATOM     26  C   UNL     1     -10.449   7.063  73.674  0.00  0.00    +0.214 C 
ENDBRANCH  24  26
ENDBRANCH  23  24
ENDBRANCH  22  23
ENDBRANCH  21  22
ENDBRANCH  15  21
ENDBRANCH   1  18
TORSDOF 8
ENDMDL
MODEL 7
REMARK VINA RESULT:      -5.9      4.660      8.166
REMARK  Name = 
REMARK  8 active torsions:
REMARK  status: ('A' for Active; 'I' for Inactive)
REMARK    1  A    between atoms: C_2  and  C_3
REMARK    2  A    between atoms: C_3  and  O_4
REMARK    3  A    between atoms: O_4  and  C_5
REMARK    4  A    between atoms: C_5  and  C_6
REMARK    5  A    between atoms: C_6  and  N_7
REMARK    6  A    between atoms: N_10  and  C_11
REMARK    7  A    between atoms: C_11  and  C_12
REMARK    8  A    between atoms: C_11  and  C_18
REMARK                            x       y       z     vdW  Elec       q    Type
REMARK                         _______ _______ _______ _____ _____    ______ ____
ROOT
ATOM      1  C   UNL     1     -12.447  13.962  69.617  0.00  0.00    +0.103 C 
ENDROOT
BRANCH   1   2
ATOM      2  C   UNL     1     -12.167  12.672  70.556  0.00  0.00    -0.004 A 
ATOM      3  C   UNL     1     -11.794  11.653  69.675  0.00  0.00    -0.002 A 
ATOM      4  C   UNL     1     -12.185  10.332  69.890  0.00  0.00    +0.011 A 
ATOM      5  C   UNL     1     -12.933  10.020  71.020  0.00  0.00    +0.058 A 
ATOM      6 CL   UNL     1     -14.069   8.672  71.021  0.00  0.00    -0.082 Cl
ATOM      7  C   UNL     1     -12.978  11.009  71.995  0.00  0.00    +0.011 A 
ATOM      8  C   UNL     1     -12.933  12.327  71.562  0.00  0.00    -0.002 A 
ENDBRANCH   1   2
BRANCH   1   9
ATOM      9  C   UNL     1     -12.475  15.044  70.814  0.00  0.00    -0.004 A 
ATOM     10  C   UNL     1     -11.609  15.185  71.756  0.00  0.00    -0.003 A 
ATOM     11  C   UNL     1     -11.898  15.629  73.021  0.00  0.00    -0.000 A 
ATOM     12  C   UNL     1     -13.217  15.828  73.347  0.00  0.00    -0.000 A 
ATOM     13  C   UNL     1     -14.174  15.731  72.355  0.00  0.00    -0.000 A 
ATOM     14  C   UNL     1     -13.816  15.309  71.081  0.00  0.00    -0.003 A 
ENDBRANCH   1   9
BRANCH   1  18
ATOM     15  N   UNL     1      -9.403  15.313  67.325  0.00  0.00    -0.268 NA
ATOM     16  C   UNL     1     -10.465  14.492  66.923  0.00  0.00    +0.090 C 
ATOM     17  C   UNL     1     -10.725  13.433  67.991  0.00  0.00    +0.090 C 
ATOM     18  N   UNL     1     -10.968  14.167  69.168  0.00  0.00    -0.264 NA
ATOM     19  C   UNL     1     -10.198  15.094  69.628  0.00  0.00    +0.090 C 
ATOM     20  C   UNL     1      -9.311  15.768  68.644  0.00  0.00    +0.090 C 
BRANCH  15  21
ATOM     21  C   UNL     1      -8.603  15.913  66.338  0.00  0.00    +0.105 C 
BRANCH  21  22
ATOM     22  C   UNL     1      -8.366  17.387  66.548  0.00  0.00    +0.160 C 
BRANCH  22  23
ATOM     23  O   UNL     1      -9.432  18.026  65.892  0.00  0.00    -0.350 OA
BRANCH  23  24
ATOM     24  C   UNL     1      -9.524  19.318  66.431  0.00  0.00    +0.178 C 
BRANCH  24  26
ATOM     25  O   UNL     1     -10.919  19.150  67.468  0.00  0.00    -0.218 OA
ATOM     26  C   UNL     1     -10.805  19.276  67.263  0.00  0.00    +0.214 C 
ENDBRANCH  24  26
ENDBRANCH  23  24
ENDBRANCH  22  23
ENDBRANCH  21  22
ENDBRANCH  15  21
ENDBRANCH   1  18
TORSDOF 8
ENDMDL
MODEL 8
REMARK VINA RESULT:      -5.8      3.671      6.124
REMARK  Name = 
REMARK  8 active torsions:
REMARK  status: ('A' for Active; 'I' for Inactive)
REMARK    1  A    between atoms: C_2  and  C_3
REMARK    2  A    between atoms: C_3  and  O_4
REMARK    3  A    between atoms: O_4  and  C_5
REMARK    4  A    between atoms: C_5  and  C_6
REMARK    5  A    between atoms: C_6  and  N_7
REMARK    6  A    between atoms: N_10  and  C_11
REMARK    7  A    between atoms: C_11  and  C_12
REMARK    8  A    between atoms: C_11  and  C_18
REMARK                            x       y       z     vdW  Elec       q    Type
REMARK                         _______ _______ _______ _____ _____    ______ ____
ROOT
ATOM      1  C   UNL     1     -11.153  11.400  66.312  0.00  0.00    +0.103 C 
ENDROOT
BRANCH   1   2
ATOM      2  C   UNL     1      -9.897  10.962  65.387  0.00  0.00    -0.004 A 
ATOM      3  C   UNL     1      -9.977  11.777  64.254  0.00  0.00    -0.002 A 
ATOM      4  C   UNL     1      -9.648  11.291  62.990  0.00  0.00    +0.011 A 
ATOM      5  C   UNL     1      -9.201   9.980  62.860  0.00  0.00    +0.058 A 
ATOM      6 CL   UNL     1      -9.478   9.062  61.381  0.00  0.00    -0.082 Cl
ATOM      7  C   UNL     1      -8.840   9.355  64.048  0.00  0.00    +0.011 A 
ATOM      8  C   UNL     1      -9.540   9.717  65.190  0.00  0.00    -0.002 A 
ENDBRANCH   1   2
BRANCH   1   9
ATOM      9  C   UNL     1     -10.521  10.897  67.710  0.00  0.00    -0.004 A 
ATOM     10  C   UNL     1      -9.547  10.071  67.871  0.00  0.00    -0.003 A 
ATOM     11  C   UNL     1      -9.414   9.220  68.938  0.00  0.00    -0.000 A 
ATOM     12  C   UNL     1     -10.447   9.156  69.842  0.00  0.00    -0.000 A 
ATOM     13  C   UNL     1     -11.491  10.054  69.731  0.00  0.00    -0.000 A 
ATOM     14  C   UNL     1     -11.554  10.918  68.645  0.00  0.00    -0.003 A 
ENDBRANCH   1   9
BRANCH   1  18
ATOM     15  N   UNL     1     -10.937  15.080  67.973  0.00  0.00    -0.268 NA
ATOM     16  C   UNL     1     -12.097  14.369  67.638  0.00  0.00    +0.090 C 
ATOM     17  C   UNL     1     -11.914  13.704  66.277  0.00  0.00    +0.090 C 
ATOM     18  N   UNL     1     -10.763  12.906  66.423  0.00  0.00    -0.264 NA
ATOM     19  C   UNL     1      -9.631  13.325  66.878  0.00  0.00    +0.090 C 
ATOM     20  C   UNL     1      -9.672  14.528  67.750  0.00  0.00    +0.090 C 
BRANCH  15  21
ATOM     21  C   UNL     1     -11.053  16.210  68.800  0.00  0.00    +0.105 C 
BRANCH  21  22
ATOM     22  C   UNL     1     -11.049  15.900  70.275  0.00  0.00    +0.160 C 
BRANCH  22  23
ATOM     23  O   UNL     1     -12.370  16.123  70.698  0.00  0.00    -0.350 OA
BRANCH  23  24
ATOM     24  C   UNL     1     -12.382  15.954  72.092  0.00  0.00    +0.178 C 
BRANCH  24  26
ATOM     25  O   UNL     1     -13.978  15.426  72.565  0.00  0.00    -0.218 OA
ATOM     26  C   UNL     1     -13.830  15.573  72.400  0.00  0.00    +0.214 C 
ENDBRANCH  24  26
ENDBRANCH  23  24
ENDBRANCH  22  23
ENDBRANCH  21  22
ENDBRANCH  15  21
ENDBRANCH   1  18
TORSDOF 8
ENDMDL
MODEL 9
REMARK VINA RESULT:      -5.8      3.810      5.360
REMARK  Name = 
REMARK  8 active torsions:
REMARK  status: ('A' for Active; 'I' for Inactive)
REMARK    1  A    between atoms: C_2  and  C_3
REMARK    2  A    between atoms: C_3  and  O_4
REMARK    3  A    between atoms: O_4  and  C_5
REMARK    4  A    between atoms: C_5  and  C_6
REMARK    5  A    between atoms: C_6  and  N_7
REMARK    6  A    between atoms: N_10  and  C_11
REMARK    7  A    between atoms: C_11  and  C_12
REMARK    8  A    between atoms: C_11  and  C_18
REMARK                            x       y       z     vdW  Elec       q    Type
REMARK                         _______ _______ _______ _____ _____    ______ ____
ROOT
ATOM      1  C   UNL     1     -11.899  12.642  67.556  0.00  0.00    +0.103 C 
ENDROOT
BRANCH   1   2
ATOM      2  C   UNL     1     -11.604  13.647  68.792  0.00  0.00    -0.004 A 
ATOM      3  C   UNL     1     -11.873  12.900  69.942  0.00  0.00    -0.002 A 
ATOM      4  C   UNL     1     -12.465  13.483  71.061  0.00  0.00    +0.011 A 
ATOM      5  C   UNL     1     -12.762  14.841  71.043  0.00  0.00    +0.058 A 
ATOM      6 CL   UNL     1     -14.103  15.497  71.981  0.00  0.00    -0.082 Cl
ATOM      7  C   UNL     1     -12.172  15.565  70.014  0.00  0.00    +0.011 A 
ATOM      8  C   UNL     1     -11.973  14.904  68.810  0.00  0.00    -0.002 A 
ENDBRANCH   1   2
BRANCH   1   9
ATOM      9  C   UNL     1     -11.220  13.565  66.418  0.00  0.00    -0.004 A 
ATOM     10  C   UNL     1     -10.426  14.562  66.596  0.00  0.00    -0.003 A 
ATOM     11  C   UNL     1     -10.344  15.652  65.769  0.00  0.00    -0.000 A 
ATOM     12  C   UNL     1     -11.251  15.749  64.742  0.00  0.00    -0.000 A 
ATOM     13  C   UNL     1     -12.092  14.683  64.488  0.00  0.00    -0.000 A 
ATOM     14  C   UNL     1     -12.106  13.588  65.343  0.00  0.00    -0.003 A 
ENDBRANCH   1   9
BRANCH   1  18
ATOM     15  N   UNL     1      -8.968  10.005  66.659  0.00  0.00    -0.268 NA
ATOM     16  C   UNL     1     -10.346   9.840  66.461  0.00  0.00    +0.090 C 
ATOM     17  C   UNL     1     -11.103  10.354  67.683  0.00  0.00    +0.090 C 
ATOM     18  N   UNL     1     -10.690  11.693  67.819  0.00  0.00    -0.264 NA
ATOM     19  C   UNL     1      -9.461  12.084  67.852  0.00  0.00    +0.090 C 
ATOM     20  C   UNL     1      -8.463  11.184  67.215  0.00  0.00    +0.090 C 
BRANCH  15  21
ATOM     21  C   UNL     1      -8.084   9.113  66.028  0.00  0.00    +0.105 C 
BRANCH  21  22
ATOM     22  C   UNL     1      -8.434   8.810  64.594  0.00  0.00    +0.160 C 
BRANCH  22  23
ATOM     23  O   UNL     1      -8.216  10.013  63.902  0.00  0.00    -0.350 OA
BRANCH  23  24
ATOM     24  C   UNL     1      -9.218  10.105  62.924  0.00  0.00    +0.178 C 
BRANCH  24  26
ATOM     25  O   UNL     1      -9.797  11.724  63.226  0.00  0.00    -0.218 OA
ATOM     26  C   UNL     1      -9.857  11.468  63.184  0.00  0.00    +0.214 C 
ENDBRANCH  24  26
ENDBRANCH  23  24
ENDBRANCH  22  23
ENDBRANCH  21  22
ENDBRANCH  15  21
ENDBRANCH   1  18
TORSDOF 8
ENDMDL
