MODEL 1
REMARK VINA RESULT:      -4.5      0.000      0.000
REMARK  Name = 
REMARK  9 active torsions:
REMARK  status: ('A' for Active; 'I' for Inactive)
REMARK    1  A    between atoms: C_2  and  N_3
REMARK    2  A    between atoms: N_3  and  C_4
REMARK    3  A    between atoms: N_3  and  C_6
REMARK    4  A    between atoms: C_6  and  S_8
REMARK    5  A    between atoms: S_8  and  S_9
REMARK    6  A    between atoms: S_9  and  C_10
REMARK    7  A    between atoms: C_10  and  N_12
REMARK    8  A    between atoms: N_12  and  C_13
REMARK    9  A    between atoms: N_12  and  C_15
REMARK                            x       y       z     vdW  Elec       q    Type
REMARK                         _______ _______ _______ _____ _____    ______ ____
ROOT
ATOM      1  S   UNL     1     -10.714  13.130  68.252  0.00  0.00    -0.027 S 
ENDROOT
BRANCH   1   2
ATOM      2  C   UNL     1     -11.224  11.844  67.110  0.00  0.00    +0.121 C 
ATOM      3  S   UNL     1     -10.846  10.277  67.434  0.00  0.00    -0.027 S 
BRANCH   2   4
ATOM      4  N   UNL     1     -11.187  12.188  65.718  0.00  0.00    -0.297 N 
BRANCH   4   6
ATOM      5  C   UNL     1     -10.469  11.894  63.482  0.00  0.00    +0.023 C 
ATOM      6  C   UNL     1     -10.185  11.485  64.921  0.00  0.00    +0.092 C 
ENDBRANCH   4   6
BRANCH   4   7
ATOM      7  C   UNL     1     -12.441  12.627  65.115  0.00  0.00    +0.092 C 
ATOM      8  C   UNL     1     -12.648  14.095  65.429  0.00  0.00    +0.023 C 
ENDBRANCH   4   7
ENDBRANCH   2   4
ENDBRANCH   1   2
BRANCH   1   9
ATOM      9  S   UNL     1     -11.972  13.227  69.937  0.00  0.00    -0.027 S 
BRANCH   9  10
ATOM     10  C   UNL     1     -11.702  14.721  70.863  0.00  0.00    +0.121 C 
ATOM     11  S   UNL     1     -11.265  16.059  70.018  0.00  0.00    -0.027 S 
BRANCH  10  12
ATOM     12  N   UNL     1     -12.571  14.945  71.979  0.00  0.00    -0.297 N 
BRANCH  12  13
ATOM     13  C   UNL     1     -12.367  16.042  72.913  0.00  0.00    +0.092 C 
ATOM     14  C   UNL     1     -12.432  15.498  74.316  0.00  0.00    +0.023 C 
ENDBRANCH  12  13
BRANCH  12  15
ATOM     15  C   UNL     1     -13.812  14.191  72.139  0.00  0.00    +0.092 C 
ATOM     16  C   UNL     1     -14.908  15.074  71.555  0.00  0.00    +0.023 C 
ENDBRANCH  12  15
ENDBRANCH  10  12
ENDBRANCH   9  10
ENDBRANCH   1   9
TORSDOF 9
ENDMDL
MODEL 2
REMARK VINA RESULT:      -4.4      3.588      7.027
REMARK  Name = 
REMARK  9 active torsions:
REMARK  status: ('A' for Active; 'I' for Inactive)
REMARK    1  A    between atoms: C_2  and  N_3
REMARK    2  A    between atoms: N_3  and  C_4
REMARK    3  A    between atoms: N_3  and  C_6
REMARK    4  A    between atoms: C_6  and  S_8
REMARK    5  A    between atoms: S_8  and  S_9
REMARK    6  A    between atoms: S_9  and  C_10
REMARK    7  A    between atoms: C_10  and  N_12
REMARK    8  A    between atoms: N_12  and  C_13
REMARK    9  A    between atoms: N_12  and  C_15
REMARK                            x       y       z     vdW  Elec       q    Type
REMARK                         _______ _______ _______ _____ _____    ______ ____
ROOT
ATOM      1  S   UNL     1     -11.300  16.035  70.206  0.00  0.00    -0.027 S 
ENDROOT
BRANCH   1   2
ATOM      2  C   UNL     1     -11.809  14.554  71.082  0.00  0.00    +0.121 C 
ATOM      3  S   UNL     1     -12.157  13.190  70.232  0.00  0.00    -0.027 S 
BRANCH   2   4
ATOM      4  N   UNL     1     -12.633  14.760  72.238  0.00  0.00    -0.297 N 
BRANCH   4   6
ATOM      5  C   UNL     1     -12.470  15.647  74.427  0.00  0.00    +0.023 C 
ATOM      6  C   UNL     1     -12.416  16.017  72.950  0.00  0.00    +0.092 C 
ENDBRANCH   4   6
BRANCH   4   7
ATOM      7  C   UNL     1     -13.947  14.127  72.232  0.00  0.00    +0.092 C 
ATOM      8  C   UNL     1     -14.946  15.079  71.605  0.00  0.00    +0.023 C 
ENDBRANCH   4   7
ENDBRANCH   2   4
ENDBRANCH   1   2
BRANCH   1   9
ATOM      9  S   UNL     1     -10.999  15.668  68.154  0.00  0.00    -0.027 S 
BRANCH   9  10
ATOM     10  C   UNL     1      -9.516  16.452  67.566  0.00  0.00    +0.121 C 
ATOM     11  S   UNL     1      -8.616  15.628  66.466  0.00  0.00    -0.027 S 
BRANCH  10  12
ATOM     12  N   UNL     1      -9.573  17.871  67.386  0.00  0.00    -0.297 N 
BRANCH  12  13
ATOM     13  C   UNL     1     -10.196  18.481  66.222  0.00  0.00    +0.092 C 
ATOM     14  C   UNL     1     -10.491  19.925  66.533  0.00  0.00    +0.023 C 
ENDBRANCH  12  13
BRANCH  12  15
ATOM     15  C   UNL     1      -9.165  18.788  68.447  0.00  0.00    +0.092 C 
ATOM     16  C   UNL     1      -7.652  18.648  68.553  0.00  0.00    +0.023 C 
ENDBRANCH  12  15
ENDBRANCH  10  12
ENDBRANCH   9  10
ENDBRANCH   1   9
TORSDOF 9
ENDMDL
MODEL 3
REMARK VINA RESULT:      -4.4      0.566      7.321
REMARK  Name = 
REMARK  9 active torsions:
REMARK  status: ('A' for Active; 'I' for Inactive)
REMARK    1  A    between atoms: C_2  and  N_3
REMARK    2  A    between atoms: N_3  and  C_4
REMARK    3  A    between atoms: N_3  and  C_6
REMARK    4  A    between atoms: C_6  and  S_8
REMARK    5  A    between atoms: S_8  and  S_9
REMARK    6  A    between atoms: S_9  and  C_10
REMARK    7  A    between atoms: C_10  and  N_12
REMARK    8  A    between atoms: N_12  and  C_13
REMARK    9  A    between atoms: N_12  and  C_15
REMARK                            x       y       z     vdW  Elec       q    Type
REMARK                         _______ _______ _______ _____ _____    ______ ____
ROOT
ATOM      1  S   UNL     1     -11.981  13.358  69.461  0.00  0.00    -0.027 S 
ENDROOT
BRANCH   1   2
ATOM      2  C   UNL     1     -12.159  14.896  70.368  0.00  0.00    +0.121 C 
ATOM      3  S   UNL     1     -11.114  16.131  70.079  0.00  0.00    -0.027 S 
BRANCH   2   4
ATOM      4  N   UNL     1     -12.572  14.774  71.737  0.00  0.00    -0.297 N 
BRANCH   4   6
ATOM      5  C   UNL     1     -12.391  15.321  74.032  0.00  0.00    +0.023 C 
ATOM      6  C   UNL     1     -12.125  15.843  72.626  0.00  0.00    +0.092 C 
ENDBRANCH   4   6
BRANCH   4   7
ATOM      7  C   UNL     1     -13.828  14.076  71.986  0.00  0.00    +0.092 C 
ATOM      8  C   UNL     1     -14.976  14.956  71.534  0.00  0.00    +0.023 C 
ENDBRANCH   4   7
ENDBRANCH   2   4
ENDBRANCH   1   2
BRANCH   1   9
ATOM      9  S   UNL     1     -10.434  13.463  68.036  0.00  0.00    -0.027 S 
BRANCH   9  10
ATOM     10  C   UNL     1     -10.557  12.146  66.847  0.00  0.00    +0.121 C 
ATOM     11  S   UNL     1     -10.946  10.655  67.415  0.00  0.00    -0.027 S 
BRANCH  10  12
ATOM     12  N   UNL     1     -11.108  12.489  65.571  0.00  0.00    -0.297 N 
BRANCH  12  13
ATOM     13  C   UNL     1     -12.427  13.086  65.430  0.00  0.00    +0.092 C 
ATOM     14  C   UNL     1     -12.282  14.427  64.759  0.00  0.00    +0.023 C 
ENDBRANCH  12  13
BRANCH  12  15
ATOM     15  C   UNL     1     -10.304  12.421  64.353  0.00  0.00    +0.092 C 
ATOM     16  C   UNL     1     -10.821  11.212  63.586  0.00  0.00    +0.023 C 
ENDBRANCH  12  15
ENDBRANCH  10  12
ENDBRANCH   9  10
ENDBRANCH   1   9
TORSDOF 9
ENDMDL
MODEL 4
REMARK VINA RESULT:      -4.3      3.808      5.229
REMARK  Name = 
REMARK  9 active torsions:
REMARK  status: ('A' for Active; 'I' for Inactive)
REMARK    1  A    between atoms: C_2  and  N_3
REMARK    2  A    between atoms: N_3  and  C_4
REMARK    3  A    between atoms: N_3  and  C_6
REMARK    4  A    between atoms: C_6  and  S_8
REMARK    5  A    between atoms: S_8  and  S_9
REMARK    6  A    between atoms: S_9  and  C_10
REMARK    7  A    between atoms: C_10  and  N_12
REMARK    8  A    between atoms: N_12  and  C_13
REMARK    9  A    between atoms: N_12  and  C_15
REMARK                            x       y       z     vdW  Elec       q    Type
REMARK                         _______ _______ _______ _____ _____    ______ ____
ROOT
ATOM      1  S   UNL     1     -10.919  16.022  67.776  0.00  0.00    -0.027 S 
ENDROOT
BRANCH   1   2
ATOM      2  C   UNL     1      -9.454  16.840  67.140  0.00  0.00    +0.121 C 
ATOM      3  S   UNL     1      -8.080  15.970  66.901  0.00  0.00    -0.027 S 
BRANCH   2   4
ATOM      4  N   UNL     1      -9.235  18.182  67.597  0.00  0.00    -0.297 N 
BRANCH   4   6
ATOM      5  C   UNL     1     -10.453  19.586  66.131  0.00  0.00    +0.023 C 
ATOM      6  C   UNL     1     -10.404  19.058  67.559  0.00  0.00    +0.092 C 
ENDBRANCH   4   6
BRANCH   4   7
ATOM      7  C   UNL     1      -8.195  18.374  68.602  0.00  0.00    +0.092 C 
ATOM      8  C   UNL     1      -7.410  19.625  68.261  0.00  0.00    +0.023 C 
ENDBRANCH   4   7
ENDBRANCH   2   4
ENDBRANCH   1   2
BRANCH   1   9
ATOM      9  S   UNL     1     -10.737  15.568  69.824  0.00  0.00    -0.027 S 
BRANCH   9  10
ATOM     10  C   UNL     1     -12.094  14.568  70.390  0.00  0.00    +0.121 C 
ATOM     11  S   UNL     1     -12.011  12.954  70.100  0.00  0.00    -0.027 S 
BRANCH  10  12
ATOM     12  N   UNL     1     -12.689  14.947  71.636  0.00  0.00    -0.297 N 
BRANCH  12  13
ATOM     13  C   UNL     1     -13.920  14.344  72.123  0.00  0.00    +0.092 C 
ATOM     14  C   UNL     1     -15.088  15.057  71.493  0.00  0.00    +0.023 C 
ENDBRANCH  12  13
BRANCH  12  15
ATOM     15  C   UNL     1     -11.997  15.832  72.570  0.00  0.00    +0.092 C 
ATOM     16  C   UNL     1     -12.382  15.345  73.961  0.00  0.00    +0.023 C 
ENDBRANCH  12  15
ENDBRANCH  10  12
ENDBRANCH   9  10
ENDBRANCH   1   9
TORSDOF 9
ENDMDL
MODEL 5
REMARK VINA RESULT:      -4.3      3.977      5.362
REMARK  Name = 
REMARK  9 active torsions:
REMARK  status: ('A' for Active; 'I' for Inactive)
REMARK    1  A    between atoms: C_2  and  N_3
REMARK    2  A    between atoms: N_3  and  C_4
REMARK    3  A    between atoms: N_3  and  C_6
REMARK    4  A    between atoms: C_6  and  S_8
REMARK    5  A    between atoms: S_8  and  S_9
REMARK    6  A    between atoms: S_9  and  C_10
REMARK    7  A    between atoms: C_10  and  N_12
REMARK    8  A    between atoms: N_12  and  C_13
REMARK    9  A    between atoms: N_12  and  C_15
REMARK                            x       y       z     vdW  Elec       q    Type
REMARK                         _______ _______ _______ _____ _____    ______ ____
ROOT
ATOM      1  S   UNL     1     -10.853  16.481  68.049  0.00  0.00    -0.027 S 
ENDROOT
BRANCH   1   2
ATOM      2  C   UNL     1      -9.303  17.126  67.416  0.00  0.00    +0.121 C 
ATOM      3  S   UNL     1      -8.089  16.085  67.035  0.00  0.00    -0.027 S 
BRANCH   2   4
ATOM      4  N   UNL     1      -8.864  18.371  67.978  0.00  0.00    -0.297 N 
BRANCH   4   6
ATOM      5  C   UNL     1      -6.987  19.313  69.069  0.00  0.00    +0.023 C 
ATOM      6  C   UNL     1      -7.458  18.701  67.757  0.00  0.00    +0.092 C 
ENDBRANCH   4   6
BRANCH   4   7
ATOM      7  C   UNL     1      -9.864  19.425  68.102  0.00  0.00    +0.092 C 
ATOM      8  C   UNL     1     -10.185  19.962  66.722  0.00  0.00    +0.023 C 
ENDBRANCH   4   7
ENDBRANCH   2   4
ENDBRANCH   1   2
BRANCH   1   9
ATOM      9  S   UNL     1     -10.624  15.620  69.956  0.00  0.00    -0.027 S 
BRANCH   9  10
ATOM     10  C   UNL     1     -12.053  14.666  70.413  0.00  0.00    +0.121 C 
ATOM     11  S   UNL     1     -12.033  13.063  70.054  0.00  0.00    -0.027 S 
BRANCH  10  12
ATOM     12  N   UNL     1     -12.688  15.019  71.647  0.00  0.00    -0.297 N 
BRANCH  12  13
ATOM     13  C   UNL     1     -13.889  14.350  72.121  0.00  0.00    +0.092 C 
ATOM     14  C   UNL     1     -15.090  15.021  71.506  0.00  0.00    +0.023 C 
ENDBRANCH  12  13
BRANCH  12  15
ATOM     15  C   UNL     1     -12.064  15.951  72.583  0.00  0.00    +0.092 C 
ATOM     16  C   UNL     1     -12.433  15.449  73.972  0.00  0.00    +0.023 C 
ENDBRANCH  12  15
ENDBRANCH  10  12
ENDBRANCH   9  10
ENDBRANCH   1   9
TORSDOF 9
ENDMDL
MODEL 6
REMARK VINA RESULT:      -4.2      3.064      6.871
REMARK  Name = 
REMARK  9 active torsions:
REMARK  status: ('A' for Active; 'I' for Inactive)
REMARK    1  A    between atoms: C_2  and  N_3
REMARK    2  A    between atoms: N_3  and  C_4
REMARK    3  A    between atoms: N_3  and  C_6
REMARK    4  A    between atoms: C_6  and  S_8
REMARK    5  A    between atoms: S_8  and  S_9
REMARK    6  A    between atoms: S_9  and  C_10
REMARK    7  A    between atoms: C_10  and  N_12
REMARK    8  A    between atoms: N_12  and  C_13
REMARK    9  A    between atoms: N_12  and  C_15
REMARK                            x       y       z     vdW  Elec       q    Type
REMARK                         _______ _______ _______ _____ _____    ______ ____
ROOT
ATOM      1  S   UNL     1     -11.346  15.908  70.305  0.00  0.00    -0.027 S 
ENDROOT
BRANCH   1   2
ATOM      2  C   UNL     1     -11.923  14.448  71.173  0.00  0.00    +0.121 C 
ATOM      3  S   UNL     1     -12.172  13.055  70.337  0.00  0.00    -0.027 S 
BRANCH   2   4
ATOM      4  N   UNL     1     -12.858  14.677  72.237  0.00  0.00    -0.297 N 
BRANCH   4   6
ATOM      5  C   UNL     1     -15.054  15.167  71.502  0.00  0.00    +0.023 C 
ATOM      6  C   UNL     1     -14.171  14.061  72.066  0.00  0.00    +0.092 C 
ENDBRANCH   4   6
BRANCH   4   7
ATOM      7  C   UNL     1     -12.301  14.881  73.570  0.00  0.00    +0.092 C 
ATOM      8  C   UNL     1     -12.511  16.326  73.973  0.00  0.00    +0.023 C 
ENDBRANCH   4   7
ENDBRANCH   2   4
ENDBRANCH   1   2
BRANCH   1   9
ATOM      9  S   UNL     1      -9.630  15.508  69.153  0.00  0.00    -0.027 S 
BRANCH   9  10
ATOM     10  C   UNL     1      -9.092  16.953  68.268  0.00  0.00    +0.121 C 
ATOM     11  S   UNL     1      -7.593  17.531  68.613  0.00  0.00    -0.027 S 
BRANCH  10  12
ATOM     12  N   UNL     1      -9.495  17.049  66.897  0.00  0.00    -0.297 N 
BRANCH  12  13
ATOM     13  C   UNL     1      -9.956  18.297  66.310  0.00  0.00    +0.092 C 
ATOM     14  C   UNL     1     -10.677  19.091  67.368  0.00  0.00    +0.023 C 
ENDBRANCH  12  13
BRANCH  12  15
ATOM     15  C   UNL     1      -9.297  15.939  65.968  0.00  0.00    +0.092 C 
ATOM     16  C   UNL     1     -10.636  15.744  65.269  0.00  0.00    +0.023 C 
ENDBRANCH  12  15
ENDBRANCH  10  12
ENDBRANCH   9  10
ENDBRANCH   1   9
TORSDOF 9
ENDMDL
MODEL 7
REMARK VINA RESULT:      -4.1      1.807      6.645
REMARK  Name = 
REMARK  9 active torsions:
REMARK  status: ('A' for Active; 'I' for Inactive)
REMARK    1  A    between atoms: C_2  and  N_3
REMARK    2  A    between atoms: N_3  and  C_4
REMARK    3  A    between atoms: N_3  and  C_6
REMARK    4  A    between atoms: C_6  and  S_8
REMARK    5  A    between atoms: S_8  and  S_9
REMARK    6  A    between atoms: S_9  and  C_10
REMARK    7  A    between atoms: C_10  and  N_12
REMARK    8  A    between atoms: N_12  and  C_13
REMARK    9  A    between atoms: N_12  and  C_15
REMARK                            x       y       z     vdW  Elec       q    Type
REMARK                         _______ _______ _______ _____ _____    ______ ____
ROOT
ATOM      1  S   UNL     1     -11.629  15.831  70.069  0.00  0.00    -0.027 S 
ENDROOT
BRANCH   1   2
ATOM      2  C   UNL     1     -12.012  14.413  71.099  0.00  0.00    +0.121 C 
ATOM      3  S   UNL     1     -12.194  12.934  70.404  0.00  0.00    -0.027 S 
BRANCH   2   4
ATOM      4  N   UNL     1     -12.887  14.660  72.209  0.00  0.00    -0.297 N 
BRANCH   4   6
ATOM      5  C   UNL     1     -15.087  15.146  71.484  0.00  0.00    +0.023 C 
ATOM      6  C   UNL     1     -14.217  14.063  72.107  0.00  0.00    +0.092 C 
ENDBRANCH   4   6
BRANCH   4   7
ATOM      7  C   UNL     1     -12.259  14.859  73.510  0.00  0.00    +0.092 C 
ATOM      8  C   UNL     1     -12.565  16.262  73.992  0.00  0.00    +0.023 C 
ENDBRANCH   4   7
ENDBRANCH   2   4
ENDBRANCH   1   2
BRANCH   1   9
ATOM      9  S   UNL     1      -9.820  15.575  69.023  0.00  0.00    -0.027 S 
BRANCH   9  10
ATOM     10  C   UNL     1     -10.090  15.516  67.267  0.00  0.00    +0.121 C 
ATOM     11  S   UNL     1      -8.969  16.242  66.310  0.00  0.00    -0.027 S 
BRANCH  10  12
ATOM     12  N   UNL     1     -10.662  14.310  66.749  0.00  0.00    -0.297 N 
BRANCH  12  13
ATOM     13  C   UNL     1      -9.846  13.186  66.319  0.00  0.00    +0.092 C 
ATOM     14  C   UNL     1      -9.933  12.100  67.360  0.00  0.00    +0.023 C 
ENDBRANCH  12  13
BRANCH  12  15
ATOM     15  C   UNL     1     -12.104  14.075  66.789  0.00  0.00    +0.092 C 
ATOM     16  C   UNL     1     -12.534  13.908  65.338  0.00  0.00    +0.023 C 
ENDBRANCH  12  15
ENDBRANCH  10  12
ENDBRANCH   9  10
ENDBRANCH   1   9
TORSDOF 9
ENDMDL
MODEL 8
REMARK VINA RESULT:      -4.1      3.726      6.561
REMARK  Name = 
REMARK  9 active torsions:
REMARK  status: ('A' for Active; 'I' for Inactive)
REMARK    1  A    between atoms: C_2  and  N_3
REMARK    2  A    between atoms: N_3  and  C_4
REMARK    3  A    between atoms: N_3  and  C_6
REMARK    4  A    between atoms: C_6  and  S_8
REMARK    5  A    between atoms: S_8  and  S_9
REMARK    6  A    between atoms: S_9  and  C_10
REMARK    7  A    between atoms: C_10  and  N_12
REMARK    8  A    between atoms: N_12  and  C_13
REMARK    9  A    between atoms: N_12  and  C_15
REMARK                            x       y       z     vdW  Elec       q    Type
REMARK                         _______ _______ _______ _____ _____    ______ ____
ROOT
ATOM      1  S   UNL     1     -10.908  15.662  70.249  0.00  0.00    -0.027 S 
ENDROOT
BRANCH   1   2
ATOM      2  C   UNL     1     -12.319  15.532  71.350  0.00  0.00    +0.121 C 
ATOM      3  S   UNL     1     -12.194  16.082  72.894  0.00  0.00    -0.027 S 
BRANCH   2   4
ATOM      4  N   UNL     1     -13.126  14.356  71.201  0.00  0.00    -0.297 N 
BRANCH   4   6
ATOM      5  C   UNL     1     -13.045  12.031  71.635  0.00  0.00    +0.023 C 
ATOM      6  C   UNL     1     -12.408  13.144  70.814  0.00  0.00    +0.092 C 
ENDBRANCH   4   6
BRANCH   4   7
ATOM      7  C   UNL     1     -14.331  14.277  72.019  0.00  0.00    +0.092 C 
ATOM      8  C   UNL     1     -15.438  15.057  71.339  0.00  0.00    +0.023 C 
ENDBRANCH   4   7
ENDBRANCH   2   4
ENDBRANCH   1   2
BRANCH   1   9
ATOM      9  S   UNL     1     -11.496  15.790  68.231  0.00  0.00    -0.027 S 
BRANCH   9  10
ATOM     10  C   UNL     1     -10.132  16.246  67.186  0.00  0.00    +0.121 C 
ATOM     11  S   UNL     1     -10.061  15.554  65.699  0.00  0.00    -0.027 S 
BRANCH  10  12
ATOM     12  N   UNL     1      -9.700  17.610  67.259  0.00  0.00    -0.297 N 
BRANCH  12  13
ATOM     13  C   UNL     1      -8.303  17.989  67.124  0.00  0.00    +0.092 C 
ATOM     14  C   UNL     1      -7.634  17.856  68.467  0.00  0.00    +0.023 C 
ENDBRANCH  12  13
BRANCH  12  15
ATOM     15  C   UNL     1     -10.661  18.709  67.297  0.00  0.00    +0.092 C 
ATOM     16  C   UNL     1     -10.096  19.781  66.374  0.00  0.00    +0.023 C 
ENDBRANCH  12  15
ENDBRANCH  10  12
ENDBRANCH   9  10
ENDBRANCH   1   9
TORSDOF 9
ENDMDL
MODEL 9
REMARK VINA RESULT:      -4.1      4.033      5.022
REMARK  Name = 
REMARK  9 active torsions:
REMARK  status: ('A' for Active; 'I' for Inactive)
REMARK    1  A    between atoms: C_2  and  N_3
REMARK    2  A    between atoms: N_3  and  C_4
REMARK    3  A    between atoms: N_3  and  C_6
REMARK    4  A    between atoms: C_6  and  S_8
REMARK    5  A    between atoms: S_8  and  S_9
REMARK    6  A    between atoms: S_9  and  C_10
REMARK    7  A    between atoms: C_10  and  N_12
REMARK    8  A    between atoms: N_12  and  C_13
REMARK    9  A    between atoms: N_12  and  C_15
REMARK                            x       y       z     vdW  Elec       q    Type
REMARK                         _______ _______ _______ _____ _____    ______ ____
ROOT
ATOM      1  S   UNL     1      -9.495  13.854  66.765  0.00  0.00    -0.027 S 
ENDROOT
BRANCH   1   2
ATOM      2  C   UNL     1     -11.041  12.943  66.770  0.00  0.00    +0.121 C 
ATOM      3  S   UNL     1     -11.569  12.252  68.165  0.00  0.00    -0.027 S 
BRANCH   2   4
ATOM      4  N   UNL     1     -11.328  12.186  65.586  0.00  0.00    -0.297 N 
BRANCH   4   6
ATOM      5  C   UNL     1     -12.072  12.645  63.386  0.00  0.00    +0.023 C 
ATOM      6  C   UNL     1     -12.514  12.603  64.843  0.00  0.00    +0.092 C 
ENDBRANCH   4   6
BRANCH   4   7
ATOM      7  C   UNL     1     -10.190  11.589  64.894  0.00  0.00    +0.092 C 
ATOM      8  C   UNL     1     -10.070  10.137  65.310  0.00  0.00    +0.023 C 
ENDBRANCH   4   7
ENDBRANCH   2   4
ENDBRANCH   1   2
BRANCH   1   9
ATOM      9  S   UNL     1      -9.717  15.771  65.924  0.00  0.00    -0.027 S 
BRANCH   9  10
ATOM     10  C   UNL     1     -10.126  16.979  67.163  0.00  0.00    +0.121 C 
ATOM     11  S   UNL     1     -10.914  16.446  68.501  0.00  0.00    -0.027 S 
BRANCH  10  12
ATOM     12  N   UNL     1      -9.168  18.021  67.379  0.00  0.00    -0.297 N 
BRANCH  12  13
ATOM     13  C   UNL     1      -8.169  17.950  68.433  0.00  0.00    +0.092 C 
ATOM     14  C   UNL     1      -7.593  19.325  68.647  0.00  0.00    +0.023 C 
ENDBRANCH  12  13
BRANCH  12  15
ATOM     15  C   UNL     1      -9.029  19.132  66.440  0.00  0.00    +0.092 C 
ATOM     16  C   UNL     1     -10.448  19.601  66.145  0.00  0.00    +0.023 C 
ENDBRANCH  12  15
ENDBRANCH  10  12
ENDBRANCH   9  10
ENDBRANCH   1   9
TORSDOF 9
ENDMDL
