MODEL 1
REMARK VINA RESULT:      -8.3      0.000      0.000
REMARK  Name = 
REMARK  2 active torsions:
REMARK  status: ('A' for Active; 'I' for Inactive)
REMARK    1  A    between atoms: C_19  and  C_20
REMARK    2  A    between atoms: C_25  and  N_26
REMARK                            x       y       z     vdW  Elec       q    Type
REMARK                         _______ _______ _______ _____ _____    ______ ____
ROOT
ATOM      1  C   UNL     1      -8.287  13.030  67.525  0.00  0.00    +0.005 C 
ATOM      2  C   UNL     1      -8.598  14.094  66.318  0.00  0.00    +0.029 C 
ATOM      3  C   UNL     1      -8.887  15.355  67.424  0.00  0.00    +0.063 C 
ATOM      4  C   UNL     1      -9.395  16.373  66.326  0.00  0.00    +0.057 C 
ATOM      5  C   UNL     1      -9.213  17.620  66.654  0.00  0.00    +0.207 C 
ATOM      6  C   UNL     1      -8.091  18.194  67.429  0.00  0.00    +0.239 C 
ATOM      7  C   UNL     1      -7.609  17.107  68.494  0.00  0.00    +0.095 C 
ATOM      8  C   UNL     1      -5.945  17.484  68.617  0.00  0.00    +0.126 C 
ATOM      9  C   UNL     1      -6.065  19.100  68.458  0.00  0.00    +0.195 C 
ATOM     10  O   UNL     1      -5.031  19.753  69.160  0.00  0.00    -0.290 OA
ATOM     11  C   UNL     1      -5.958  19.347  67.143  0.00  0.00    +0.133 C 
ATOM     12  C   UNL     1      -7.054  18.597  66.509  0.00  0.00    +0.215 C 
ATOM     13  O   UNL     1      -7.394  18.923  65.331  0.00  0.00    -0.288 OA
ATOM     14  O   UNL     1      -8.666  19.208  68.187  0.00  0.00    -0.210 OA
ATOM     15  O   UNL     1     -10.003  18.551  65.968  0.00  0.00    -0.289 OA
ATOM     16  C   UNL     1     -10.307  15.905  65.315  0.00  0.00    +0.197 C 
ATOM     17  O   UNL     1     -10.841  16.721  64.546  0.00  0.00    -0.287 OA
ATOM     18  C   UNL     1     -10.720  14.496  65.248  0.00  0.00    +0.074 A 
ATOM     19  C   UNL     1     -11.979  14.125  64.820  0.00  0.00    +0.198 A 
ATOM     20  O   UNL     1     -12.748  15.104  64.187  0.00  0.00    -0.286 OA
ATOM     21  C   UNL     1     -12.576  12.959  65.288  0.00  0.00    +0.042 A 
ATOM     22  C   UNL     1     -11.860  12.118  66.133  0.00  0.00    +0.003 A 
ATOM     23  C   UNL     1     -10.502  12.401  66.248  0.00  0.00    -0.004 A 
ATOM     24  C   UNL     1      -7.297  15.962  67.260  0.00  0.00    +0.161 C 
ATOM     25  O   UNL     1      -6.771  14.913  68.213  0.00  0.00    -0.223 OA
ATOM     26  C   UNL     1     -10.159  13.720  66.261  0.00  0.00    -0.016 A 
ENDROOT
BRANCH   8  27
ATOM     27  N   UNL     1      -5.977  17.567  70.199  0.00  0.00    -0.265 NA
ATOM     28  C   UNL     1      -5.336  18.762  70.612  0.00  0.00    +0.090 C 
ATOM     29  C   UNL     1      -5.230  16.484  70.726  0.00  0.00    +0.090 C 
ENDBRANCH   8  27
BRANCH  11  30
ATOM     30  C   UNL     1      -5.429  20.608  66.606  0.00  0.00    +0.302 C 
ATOM     31  O   UNL     1      -4.723  20.670  65.402  0.00  0.00    -0.263 OA
ATOM     32  N   UNL     1      -6.189  21.649  66.787  0.00  0.00    -0.102 NA
ENDBRANCH  11  30
TORSDOF 2
ENDMDL
MODEL 2
REMARK VINA RESULT:      -8.2      1.685      3.928
REMARK  Name = 
REMARK  2 active torsions:
REMARK  status: ('A' for Active; 'I' for Inactive)
REMARK    1  A    between atoms: C_19  and  C_20
REMARK    2  A    between atoms: C_25  and  N_26
REMARK                            x       y       z     vdW  Elec       q    Type
REMARK                         _______ _______ _______ _____ _____    ______ ____
ROOT
ATOM      1  C   UNL     1     -10.865  16.938  65.123  0.00  0.00    +0.005 C 
ATOM      2  C   UNL     1     -10.450  15.965  66.375  0.00  0.00    +0.029 C 
ATOM      3  C   UNL     1      -8.809  15.987  65.926  0.00  0.00    +0.063 C 
ATOM      4  C   UNL     1      -8.374  14.895  66.982  0.00  0.00    +0.057 C 
ATOM      5  C   UNL     1      -7.127  14.998  67.348  0.00  0.00    +0.207 C 
ATOM      6  C   UNL     1      -6.335  16.236  67.510  0.00  0.00    +0.239 C 
ATOM      7  C   UNL     1      -6.845  17.303  66.438  0.00  0.00    +0.095 C 
ATOM      8  C   UNL     1      -6.558  18.768  67.271  0.00  0.00    +0.126 C 
ATOM      9  C   UNL     1      -5.187  18.332  68.035  0.00  0.00    +0.195 C 
ATOM     10  O   UNL     1      -4.352  19.447  68.247  0.00  0.00    -0.290 OA
ATOM     11  C   UNL     1      -5.574  17.814  69.211  0.00  0.00    +0.133 C 
ATOM     12  C   UNL     1      -6.460  16.688  68.875  0.00  0.00    +0.215 C 
ATOM     13  O   UNL     1      -6.686  15.821  69.774  0.00  0.00    -0.288 OA
ATOM     14  O   UNL     1      -5.053  15.893  67.094  0.00  0.00    -0.210 OA
ATOM     15  O   UNL     1      -6.565  13.849  67.917  0.00  0.00    -0.289 OA
ATOM     16  C   UNL     1      -9.193  13.722  67.145  0.00  0.00    +0.197 C 
ATOM     17  O   UNL     1      -8.786  12.782  67.848  0.00  0.00    -0.287 OA
ATOM     18  C   UNL     1     -10.449  13.555  66.401  0.00  0.00    +0.074 A 
ATOM     19  C   UNL     1     -10.896  12.314  65.994  0.00  0.00    +0.198 A 
ATOM     20  O   UNL     1     -10.266  11.199  66.552  0.00  0.00    -0.286 OA
ATOM     21  C   UNL     1     -11.680  12.178  64.854  0.00  0.00    +0.042 A 
ATOM     22  C   UNL     1     -12.087  13.315  64.165  0.00  0.00    +0.003 A 
ATOM     23  C   UNL     1     -11.867  14.522  64.824  0.00  0.00    -0.004 A 
ATOM     24  C   UNL     1      -8.444  17.225  67.046  0.00  0.00    +0.161 C 
ATOM     25  O   UNL     1      -8.974  18.277  66.098  0.00  0.00    -0.223 OA
ATOM     26  C   UNL     1     -10.712  14.619  65.539  0.00  0.00    -0.016 A 
ENDROOT
BRANCH   8  27
ATOM     27  N   UNL     1      -5.762  19.416  66.065  0.00  0.00    -0.265 NA
ATOM     28  C   UNL     1      -6.228  20.739  65.860  0.00  0.00    +0.090 C 
ATOM     29  C   UNL     1      -6.045  18.682  64.886  0.00  0.00    +0.090 C 
ENDBRANCH   8  27
BRANCH  11  30
ATOM     30  C   UNL     1      -4.731  17.844  70.414  0.00  0.00    +0.302 C 
ATOM     31  O   UNL     1      -5.245  18.139  71.679  0.00  0.00    -0.263 OA
ATOM     32  N   UNL     1      -3.797  16.939  70.460  0.00  0.00    -0.102 NA
ENDBRANCH  11  30
TORSDOF 2
ENDMDL
MODEL 3
REMARK VINA RESULT:      -8.1      2.060      4.042
REMARK  Name = 
REMARK  2 active torsions:
REMARK  status: ('A' for Active; 'I' for Inactive)
REMARK    1  A    between atoms: C_19  and  C_20
REMARK    2  A    between atoms: C_25  and  N_26
REMARK                            x       y       z     vdW  Elec       q    Type
REMARK                         _______ _______ _______ _____ _____    ______ ____
ROOT
ATOM      1  C   UNL     1     -11.386  15.040  67.032  0.00  0.00    +0.005 C 
ATOM      2  C   UNL     1     -10.094  14.340  67.756  0.00  0.00    +0.029 C 
ATOM      3  C   UNL     1      -9.007  15.367  66.944  0.00  0.00    +0.063 C 
ATOM      4  C   UNL     1      -7.715  14.608  67.446  0.00  0.00    +0.057 C 
ATOM      5  C   UNL     1      -6.658  15.367  67.503  0.00  0.00    +0.207 C 
ATOM      6  C   UNL     1      -6.598  16.803  67.853  0.00  0.00    +0.239 C 
ATOM      7  C   UNL     1      -7.942  17.500  67.347  0.00  0.00    +0.095 C 
ATOM      8  C   UNL     1      -8.125  18.741  68.510  0.00  0.00    +0.126 C 
ATOM      9  C   UNL     1      -6.549  19.089  68.724  0.00  0.00    +0.195 C 
ATOM     10  O   UNL     1      -6.374  20.444  69.070  0.00  0.00    -0.290 OA
ATOM     11  C   UNL     1      -6.133  18.299  69.727  0.00  0.00    +0.133 C 
ATOM     12  C   UNL     1      -6.390  16.921  69.277  0.00  0.00    +0.215 C 
ATOM     13  O   UNL     1      -5.783  15.979  69.873  0.00  0.00    -0.288 OA
ATOM     14  O   UNL     1      -5.595  17.324  67.042  0.00  0.00    -0.210 OA
ATOM     15  O   UNL     1      -5.428  14.698  67.510  0.00  0.00    -0.289 OA
ATOM     16  C   UNL     1      -7.702  13.168  67.420  0.00  0.00    +0.197 C 
ATOM     17  O   UNL     1      -6.645  12.560  67.655  0.00  0.00    -0.287 OA
ATOM     18  C   UNL     1      -8.882  12.399  67.000  0.00  0.00    +0.074 A 
ATOM     19  C   UNL     1      -8.767  11.192  66.338  0.00  0.00    +0.198 A 
ATOM     20  O   UNL     1      -7.507  10.590  66.330  0.00  0.00    -0.286 OA
ATOM     21  C   UNL     1      -9.751  10.771  65.450  0.00  0.00    +0.042 A 
ATOM     22  C   UNL     1     -10.900  11.538  65.291  0.00  0.00    +0.003 A 
ATOM     23  C   UNL     1     -11.076  12.552  66.227  0.00  0.00    -0.004 A 
ATOM     24  C   UNL     1      -8.906  16.433  68.277  0.00  0.00    +0.161 C 
ATOM     25  O   UNL     1     -10.209  17.091  67.884  0.00  0.00    -0.223 OA
ATOM     26  C   UNL     1      -9.950  13.210  66.623  0.00  0.00    -0.016 A 
ENDROOT
BRANCH   8  27
ATOM     27  N   UNL     1      -8.300  19.877  67.420  0.00  0.00    -0.265 NA
ATOM     28  C   UNL     1      -9.586  20.457  67.559  0.00  0.00    +0.090 C 
ATOM     29  C   UNL     1      -8.241  19.286  66.134  0.00  0.00    +0.090 C 
ENDBRANCH   8  27
BRANCH  11  30
ATOM     30  C   UNL     1      -5.028  18.660  70.624  0.00  0.00    +0.302 C 
ATOM     31  O   UNL     1      -5.126  18.547  72.013  0.00  0.00    -0.263 OA
ATOM     32  N   UNL     1      -3.839  18.362  70.187  0.00  0.00    -0.102 NA
ENDBRANCH  11  30
TORSDOF 2
ENDMDL
MODEL 4
REMARK VINA RESULT:      -8.0      6.358      9.318
REMARK  Name = 
REMARK  2 active torsions:
REMARK  status: ('A' for Active; 'I' for Inactive)
REMARK    1  A    between atoms: C_19  and  C_20
REMARK    2  A    between atoms: C_25  and  N_26
REMARK                            x       y       z     vdW  Elec       q    Type
REMARK                         _______ _______ _______ _____ _____    ______ ____
ROOT
ATOM      1  C   UNL     1      -9.953   5.445  67.843  0.00  0.00    +0.005 C 
ATOM      2  C   UNL     1     -10.905   6.535  68.610  0.00  0.00    +0.029 C 
ATOM      3  C   UNL     1      -9.762   7.777  68.391  0.00  0.00    +0.063 C 
ATOM      4  C   UNL     1     -10.534   8.821  69.292  0.00  0.00    +0.057 C 
ATOM      5  C   UNL     1     -10.295  10.060  68.969  0.00  0.00    +0.207 C 
ATOM      6  C   UNL     1     -10.050  10.607  67.617  0.00  0.00    +0.239 C 
ATOM      7  C   UNL     1      -9.298   9.495  66.753  0.00  0.00    +0.095 C 
ATOM      8  C   UNL     1      -9.875   9.854  65.184  0.00  0.00    +0.126 C 
ATOM      9  C   UNL     1      -9.947  11.474  65.331  0.00  0.00    +0.195 C 
ATOM     10  O   UNL     1      -9.731  12.104  64.089  0.00  0.00    -0.290 OA
ATOM     11  C   UNL     1     -11.184  11.746  65.778  0.00  0.00    +0.133 C 
ATOM     12  C   UNL     1     -11.313  11.018  67.051  0.00  0.00    +0.215 C 
ATOM     13  O   UNL     1     -12.237  11.371  67.846  0.00  0.00    -0.288 OA
ATOM     14  O   UNL     1      -9.107  11.612  67.807  0.00  0.00    -0.210 OA
ATOM     15  O   UNL     1     -10.576  11.011  69.958  0.00  0.00    -0.289 OA
ATOM     16  C   UNL     1     -11.080   8.381  70.551  0.00  0.00    +0.197 C 
ATOM     17  O   UNL     1     -11.544   9.217  71.343  0.00  0.00    -0.287 OA
ATOM     18  C   UNL     1     -10.988   6.978  70.977  0.00  0.00    +0.074 A 
ATOM     19  C   UNL     1     -10.857   6.627  72.307  0.00  0.00    +0.198 A 
ATOM     20  O   UNL     1     -11.098   7.626  73.253  0.00  0.00    -0.286 OA
ATOM     21  C   UNL     1     -10.199   5.459  72.674  0.00  0.00    +0.042 A 
ATOM     22  C   UNL     1      -9.741   4.594  71.685  0.00  0.00    +0.003 A 
ATOM     23  C   UNL     1     -10.199   4.862  70.398  0.00  0.00    -0.004 A 
ATOM     24  C   UNL     1     -10.566   8.371  67.004  0.00  0.00    +0.161 C 
ATOM     25  O   UNL     1      -9.934   7.299  66.146  0.00  0.00    -0.223 OA
ATOM     26  C   UNL     1     -10.312   6.177  70.058  0.00  0.00    -0.016 A 
ENDROOT
BRANCH   8  27
ATOM     27  N   UNL     1      -8.423   9.906  64.552  0.00  0.00    -0.265 NA
ATOM     28  C   UNL     1      -8.405   9.125  63.369  0.00  0.00    +0.090 C 
ATOM     29  C   UNL     1      -7.510   9.317  65.461  0.00  0.00    +0.090 C 
ENDBRANCH   8  27
BRANCH  11  30
ATOM     30  C   UNL     1     -11.874  13.011  65.500  0.00  0.00    +0.302 C 
ATOM     31  O   UNL     1     -13.211  13.061  65.099  0.00  0.00    -0.263 OA
ATOM     32  N   UNL     1     -11.558  14.000  66.286  0.00  0.00    -0.102 NA
ENDBRANCH  11  30
TORSDOF 2
ENDMDL
MODEL 5
REMARK VINA RESULT:      -7.8      7.487     10.880
REMARK  Name = 
REMARK  2 active torsions:
REMARK  status: ('A' for Active; 'I' for Inactive)
REMARK    1  A    between atoms: C_19  and  C_20
REMARK    2  A    between atoms: C_25  and  N_26
REMARK                            x       y       z     vdW  Elec       q    Type
REMARK                         _______ _______ _______ _____ _____    ______ ____
ROOT
ATOM      1  C   UNL     1     -13.683   9.844  72.528  0.00  0.00    +0.005 C 
ATOM      2  C   UNL     1     -13.188  10.168  71.000  0.00  0.00    +0.029 C 
ATOM      3  C   UNL     1     -11.634   9.544  71.307  0.00  0.00    +0.063 C 
ATOM      4  C   UNL     1     -11.033  10.013  69.923  0.00  0.00    +0.057 C 
ATOM      5  C   UNL     1     -10.035   9.280  69.518  0.00  0.00    +0.207 C 
ATOM      6  C   UNL     1      -9.849   7.826  69.710  0.00  0.00    +0.239 C 
ATOM      7  C   UNL     1     -10.503   7.416  71.108  0.00  0.00    +0.095 C 
ATOM      8  C   UNL     1     -10.998   5.812  70.780  0.00  0.00    +0.126 C 
ATOM      9  C   UNL     1      -9.759   5.382  69.815  0.00  0.00    +0.195 C 
ATOM     10  O   UNL     1      -9.496   4.002  69.917  0.00  0.00    -0.290 OA
ATOM     11  C   UNL     1     -10.145   5.688  68.566  0.00  0.00    +0.133 C 
ATOM     12  C   UNL     1     -10.424   7.133  68.581  0.00  0.00    +0.215 C 
ATOM     13  O   UNL     1     -10.470   7.741  67.468  0.00  0.00    -0.288 OA
ATOM     14  O   UNL     1      -8.480   7.665  69.895  0.00  0.00    -0.210 OA
ATOM     15  O   UNL     1      -9.196   9.869  68.564  0.00  0.00    -0.289 OA
ATOM     16  C   UNL     1     -11.338  11.338  69.447  0.00  0.00    +0.197 C 
ATOM     17  O   UNL     1     -10.747  11.781  68.447  0.00  0.00    -0.287 OA
ATOM     18  C   UNL     1     -12.240  12.229  70.188  0.00  0.00    +0.074 A 
ATOM     19  C   UNL     1     -12.065  13.599  70.199  0.00  0.00    +0.198 A 
ATOM     20  O   UNL     1     -11.177  14.132  69.261  0.00  0.00    -0.286 OA
ATOM     21  C   UNL     1     -12.476  14.361  71.287  0.00  0.00    +0.042 A 
ATOM     22  C   UNL     1     -13.145  13.744  72.338  0.00  0.00    +0.003 A 
ATOM     23  C   UNL     1     -13.562  12.438  72.096  0.00  0.00    -0.004 A 
ATOM     24  C   UNL     1     -12.030   8.026  70.629  0.00  0.00    +0.161 C 
ATOM     25  O   UNL     1     -12.722   7.606  71.905  0.00  0.00    -0.223 OA
ATOM     26  C   UNL     1     -12.716  11.658  71.367  0.00  0.00    -0.016 A 
ENDROOT
BRANCH   8  27
ATOM     27  N   UNL     1     -10.291   5.222  72.069  0.00  0.00    -0.265 NA
ATOM     28  C   UNL     1     -11.262   4.577  72.875  0.00  0.00    +0.090 C 
ATOM     29  C   UNL     1      -9.759   6.295  72.827  0.00  0.00    +0.090 C 
ENDBRANCH   8  27
BRANCH  11  30
ATOM     30  C   UNL     1      -9.654   4.976  67.380  0.00  0.00    +0.302 C 
ATOM     31  O   UNL     1     -10.475   4.688  66.288  0.00  0.00    -0.263 OA
ATOM     32  N   UNL     1      -8.439   5.271  67.019  0.00  0.00    -0.102 NA
ENDBRANCH  11  30
TORSDOF 2
ENDMDL
MODEL 6
REMARK VINA RESULT:      -7.8      3.947      6.702
REMARK  Name = 
REMARK  2 active torsions:
REMARK  status: ('A' for Active; 'I' for Inactive)
REMARK    1  A    between atoms: C_19  and  C_20
REMARK    2  A    between atoms: C_25  and  N_26
REMARK                            x       y       z     vdW  Elec       q    Type
REMARK                         _______ _______ _______ _____ _____    ______ ____
ROOT
ATOM      1  C   UNL     1     -10.189  11.894  63.264  0.00  0.00    +0.005 C 
ATOM      2  C   UNL     1     -10.529  11.106  64.660  0.00  0.00    +0.029 C 
ATOM      3  C   UNL     1      -9.524  12.144  65.561  0.00  0.00    +0.063 C 
ATOM      4  C   UNL     1      -9.647  11.310  66.898  0.00  0.00    +0.057 C 
ATOM      5  C   UNL     1      -9.476  12.028  67.972  0.00  0.00    +0.207 C 
ATOM      6  C   UNL     1      -9.873  13.436  68.187  0.00  0.00    +0.239 C 
ATOM      7  C   UNL     1      -9.756  14.209  66.796  0.00  0.00    +0.095 C 
ATOM      8  C   UNL     1     -10.991  15.381  66.968  0.00  0.00    +0.126 C 
ATOM      9  C   UNL     1     -10.820  15.660  68.563  0.00  0.00    +0.195 C 
ATOM     10  O   UNL     1     -11.181  16.984  68.885  0.00  0.00    -0.290 OA
ATOM     11  C   UNL     1     -11.645  14.795  69.176  0.00  0.00    +0.133 C 
ATOM     12  C   UNL     1     -11.204  13.458  68.747  0.00  0.00    +0.215 C 
ATOM     13  O   UNL     1     -11.579  12.460  69.436  0.00  0.00    -0.288 OA
ATOM     14  O   UNL     1      -8.865  13.971  68.982  0.00  0.00    -0.210 OA
ATOM     15  O   UNL     1      -9.140  11.316  69.130  0.00  0.00    -0.289 OA
ATOM     16  C   UNL     1      -9.545   9.875  66.833  0.00  0.00    +0.197 C 
ATOM     17  O   UNL     1      -9.476   9.217  67.884  0.00  0.00    -0.287 OA
ATOM     18  C   UNL     1      -9.395   9.175  65.550  0.00  0.00    +0.074 A 
ATOM     19  C   UNL     1      -8.664   8.008  65.437  0.00  0.00    +0.198 A 
ATOM     20  O   UNL     1      -8.309   7.365  66.624  0.00  0.00    -0.286 OA
ATOM     21  C   UNL     1      -8.030   7.678  64.244  0.00  0.00    +0.042 A 
ATOM     22  C   UNL     1      -8.203   8.492  63.130  0.00  0.00    +0.003 A 
ATOM     23  C   UNL     1      -9.205   9.453  63.243  0.00  0.00    -0.004 A 
ATOM     24  C   UNL     1     -10.842  13.121  66.042  0.00  0.00    +0.161 C 
ATOM     25  O   UNL     1     -10.822  13.846  64.715  0.00  0.00    -0.223 OA
ATOM     26  C   UNL     1      -9.340  10.045  64.462  0.00  0.00    -0.016 A 
ENDROOT
BRANCH   8  27
ATOM     27  N   UNL     1     -10.039  16.588  66.584  0.00  0.00    -0.265 NA
ATOM     28  C   UNL     1     -10.639  17.336  65.540  0.00  0.00    +0.090 C 
ATOM     29  C   UNL     1      -8.821  16.065  66.083  0.00  0.00    +0.090 C 
ENDBRANCH   8  27
BRANCH  11  30
ATOM     30  C   UNL     1     -12.254  15.062  70.485  0.00  0.00    +0.302 C 
ATOM     31  O   UNL     1     -13.534  14.613  70.819  0.00  0.00    -0.263 OA
ATOM     32  N   UNL     1     -11.436  15.016  71.496  0.00  0.00    -0.102 NA
ENDBRANCH  11  30
TORSDOF 2
ENDMDL
MODEL 7
REMARK VINA RESULT:      -7.7      5.587      7.909
REMARK  Name = 
REMARK  2 active torsions:
REMARK  status: ('A' for Active; 'I' for Inactive)
REMARK    1  A    between atoms: C_19  and  C_20
REMARK    2  A    between atoms: C_25  and  N_26
REMARK                            x       y       z     vdW  Elec       q    Type
REMARK                         _______ _______ _______ _____ _____    ______ ____
ROOT
ATOM      1  C   UNL     1     -12.322  10.908  70.633  0.00  0.00    +0.005 C 
ATOM      2  C   UNL     1     -12.303  11.920  69.344  0.00  0.00    +0.029 C 
ATOM      3  C   UNL     1     -10.630  11.701  69.121  0.00  0.00    +0.063 C 
ATOM      4  C   UNL     1     -10.503  12.815  68.008  0.00  0.00    +0.057 C 
ATOM      5  C   UNL     1      -9.513  12.614  67.185  0.00  0.00    +0.207 C 
ATOM      6  C   UNL     1      -8.998  11.317  66.697  0.00  0.00    +0.239 C 
ATOM      7  C   UNL     1      -9.185  10.234  67.855  0.00  0.00    +0.095 C 
ATOM      8  C   UNL     1      -9.416   8.809  66.936  0.00  0.00    +0.126 C 
ATOM      9  C   UNL     1      -8.399   9.158  65.713  0.00  0.00    +0.195 C 
ATOM     10  O   UNL     1      -7.848   7.982  65.165  0.00  0.00    -0.290 OA
ATOM     11  C   UNL     1      -9.140   9.794  64.792  0.00  0.00    +0.133 C 
ATOM     12  C   UNL     1      -9.689  10.977  65.475  0.00  0.00    +0.215 C 
ATOM     13  O   UNL     1     -10.134  11.924  64.757  0.00  0.00    -0.288 OA
ATOM     14  O   UNL     1      -7.623  11.498  66.593  0.00  0.00    -0.210 OA
ATOM     15  O   UNL     1      -9.077  13.738  66.473  0.00  0.00    -0.289 OA
ATOM     16  C   UNL     1     -11.176  14.074  68.206  0.00  0.00    +0.197 C 
ATOM     17  O   UNL     1     -10.957  15.015  67.426  0.00  0.00    -0.287 OA
ATOM     18  C   UNL     1     -12.022  14.313  69.383  0.00  0.00    +0.074 A 
ATOM     19  C   UNL     1     -12.127  15.562  69.964  0.00  0.00    +0.198 A 
ATOM     20  O   UNL     1     -11.629  16.644  69.235  0.00  0.00    -0.286 OA
ATOM     21  C   UNL     1     -12.394  15.695  71.322  0.00  0.00    +0.042 A 
ATOM     22  C   UNL     1     -12.640  14.559  72.084  0.00  0.00    +0.003 A 
ATOM     23  C   UNL     1     -12.836  13.385  71.361  0.00  0.00    -0.004 A 
ATOM     24  C   UNL     1     -10.873  10.515  67.915  0.00  0.00    +0.161 C 
ATOM     25  O   UNL     1     -11.123   9.458  68.967  0.00  0.00    -0.223 OA
ATOM     26  C   UNL     1     -12.062  13.224  70.251  0.00  0.00    -0.016 A 
ENDROOT
BRANCH   8  27
ATOM     27  N   UNL     1      -8.303   8.001  67.723  0.00  0.00    -0.265 NA
ATOM     28  C   UNL     1      -8.844   6.759  68.142  0.00  0.00    +0.090 C 
ATOM     29  C   UNL     1      -7.954   8.724  68.890  0.00  0.00    +0.090 C 
ENDBRANCH   8  27
BRANCH  11  30
ATOM     30  C   UNL     1      -8.831   9.765  63.357  0.00  0.00    +0.302 C 
ATOM     31  O   UNL     1      -9.812   9.936  62.378  0.00  0.00    -0.263 OA
ATOM     32  N   UNL     1      -7.699  10.311  63.022  0.00  0.00    -0.102 NA
ENDBRANCH  11  30
TORSDOF 2
ENDMDL
MODEL 8
REMARK VINA RESULT:      -7.5      3.933      7.626
REMARK  Name = 
REMARK  2 active torsions:
REMARK  status: ('A' for Active; 'I' for Inactive)
REMARK    1  A    between atoms: C_19  and  C_20
REMARK    2  A    between atoms: C_25  and  N_26
REMARK                            x       y       z     vdW  Elec       q    Type
REMARK                         _______ _______ _______ _____ _____    ______ ____
ROOT
ATOM      1  C   UNL     1      -6.627  15.287  67.249  0.00  0.00    +0.005 C 
ATOM      2  C   UNL     1      -7.951  15.603  68.161  0.00  0.00    +0.029 C 
ATOM      3  C   UNL     1      -8.919  14.563  67.224  0.00  0.00    +0.063 C 
ATOM      4  C   UNL     1     -10.270  14.977  67.931  0.00  0.00    +0.057 C 
ATOM      5  C   UNL     1     -11.179  14.044  67.895  0.00  0.00    +0.207 C 
ATOM      6  C   UNL     1     -10.972  12.582  67.965  0.00  0.00    +0.239 C 
ATOM      7  C   UNL     1      -9.580  12.238  67.263  0.00  0.00    +0.095 C 
ATOM      8  C   UNL     1      -9.096  10.859  68.154  0.00  0.00    +0.126 C 
ATOM      9  C   UNL     1     -10.570  10.204  68.379  0.00  0.00    +0.195 C 
ATOM     10  O   UNL     1     -10.489   8.799  68.466  0.00  0.00    -0.290 OA
ATOM     11  C   UNL     1     -11.023  10.713  69.536  0.00  0.00    +0.133 C 
ATOM     12  C   UNL     1     -11.035  12.172  69.348  0.00  0.00    +0.215 C 
ATOM     13  O   UNL     1     -11.736  12.868  70.145  0.00  0.00    -0.288 OA
ATOM     14  O   UNL     1     -11.941  12.046  67.122  0.00  0.00    -0.210 OA
ATOM     15  O   UNL     1     -12.497  14.472  68.096  0.00  0.00    -0.289 OA
ATOM     16  C   UNL     1     -10.522  16.372  68.184  0.00  0.00    +0.197 C 
ATOM     17  O   UNL     1     -11.641  16.730  68.587  0.00  0.00    -0.287 OA
ATOM     18  C   UNL     1      -9.526  17.402  67.859  0.00  0.00    +0.074 A 
ATOM     19  C   UNL     1      -9.893  18.669  67.449  0.00  0.00    +0.198 A 
ATOM     20  O   UNL     1     -11.231  19.028  67.624  0.00  0.00    -0.286 OA
ATOM     21  C   UNL     1      -9.072  19.411  66.608  0.00  0.00    +0.042 A 
ATOM     22  C   UNL     1      -7.830  18.903  66.244  0.00  0.00    +0.003 A 
ATOM     23  C   UNL     1      -7.410  17.783  66.956  0.00  0.00    -0.004 A 
ATOM     24  C   UNL     1      -8.729  13.273  68.329  0.00  0.00    +0.161 C 
ATOM     25  O   UNL     1      -7.374  12.939  67.749  0.00  0.00    -0.223 OA
ATOM     26  C   UNL     1      -8.374  16.875  67.277  0.00  0.00    -0.016 A 
ENDROOT
BRANCH   8  27
ATOM     27  N   UNL     1      -8.830   9.989  66.857  0.00  0.00    -0.265 NA
ATOM     28  C   UNL     1      -7.520   9.451  66.922  0.00  0.00    +0.090 C 
ATOM     29  C   UNL     1      -8.883  10.836  65.722  0.00  0.00    +0.090 C 
ENDBRANCH   8  27
BRANCH  11  30
ATOM     30  C   UNL     1     -11.973  10.005  70.403  0.00  0.00    +0.302 C 
ATOM     31  O   UNL     1     -11.647   9.609  71.703  0.00  0.00    -0.263 OA
ATOM     32  N   UNL     1     -13.211  10.391  70.302  0.00  0.00    -0.102 NA
ENDBRANCH  11  30
TORSDOF 2
ENDMDL
MODEL 9
REMARK VINA RESULT:      -7.4      3.023      7.156
REMARK  Name = 
REMARK  2 active torsions:
REMARK  status: ('A' for Active; 'I' for Inactive)
REMARK    1  A    between atoms: C_19  and  C_20
REMARK    2  A    between atoms: C_25  and  N_26
REMARK                            x       y       z     vdW  Elec       q    Type
REMARK                         _______ _______ _______ _____ _____    ______ ____
ROOT
ATOM      1  C   UNL     1      -9.679  19.674  68.362  0.00  0.00    +0.005 C 
ATOM      2  C   UNL     1      -8.914  18.737  67.256  0.00  0.00    +0.029 C 
ATOM      3  C   UNL     1      -8.717  17.471  68.376  0.00  0.00    +0.063 C 
ATOM      4  C   UNL     1      -7.798  16.604  67.427  0.00  0.00    +0.057 C 
ATOM      5  C   UNL     1      -7.859  15.326  67.675  0.00  0.00    +0.207 C 
ATOM      6  C   UNL     1      -9.035  14.551  68.127  0.00  0.00    +0.239 C 
ATOM      7  C   UNL     1      -9.932  15.493  69.052  0.00  0.00    +0.095 C 
ATOM      8  C   UNL     1     -11.493  14.869  68.738  0.00  0.00    +0.126 C 
ATOM      9  C   UNL     1     -11.087  13.299  68.587  0.00  0.00    +0.195 C 
ATOM     10  O   UNL     1     -12.147  12.463  68.989  0.00  0.00    -0.290 OA
ATOM     11  C   UNL     1     -10.821  13.115  67.284  0.00  0.00    +0.133 C 
ATOM     12  C   UNL     1      -9.733  14.053  66.965  0.00  0.00    +0.215 C 
ATOM     13  O   UNL     1      -9.062  13.848  65.907  0.00  0.00    -0.288 OA
ATOM     14  O   UNL     1      -8.516  13.590  68.988  0.00  0.00    -0.210 OA
ATOM     15  O   UNL     1      -6.787  14.563  67.197  0.00  0.00    -0.289 OA
ATOM     16  C   UNL     1      -6.747  17.258  66.691  0.00  0.00    +0.197 C 
ATOM     17  O   UNL     1      -5.917  16.574  66.069  0.00  0.00    -0.287 OA
ATOM     18  C   UNL     1      -6.556  18.713  66.757  0.00  0.00    +0.074 A 
ATOM     19  C   UNL     1      -5.304  19.289  66.671  0.00  0.00    +0.198 A 
ATOM     20  O   UNL     1      -4.258  18.471  66.239  0.00  0.00    -0.286 OA
ATOM     21  C   UNL     1      -5.033  20.501  67.298  0.00  0.00    +0.042 A 
ATOM     22  C   UNL     1      -6.060  21.178  67.947  0.00  0.00    +0.003 A 
ATOM     23  C   UNL     1      -7.342  20.693  67.705  0.00  0.00    -0.004 A 
ATOM     24  C   UNL     1     -10.100  16.649  67.800  0.00  0.00    +0.161 C 
ATOM     25  O   UNL     1     -11.006  17.553  68.605  0.00  0.00    -0.223 OA
ATOM     26  C   UNL     1      -7.467  19.339  67.606  0.00  0.00    -0.016 A 
ENDROOT
BRANCH   8  27
ATOM     27  N   UNL     1     -11.846  14.701  70.274  0.00  0.00    -0.265 NA
ATOM     28  C   UNL     1     -13.167  15.163  70.498  0.00  0.00    +0.090 C 
ATOM     29  C   UNL     1     -10.977  15.525  71.033  0.00  0.00    +0.090 C 
ENDBRANCH   8  27
BRANCH  11  30
ATOM     30  C   UNL     1     -10.995  11.824  66.607  0.00  0.00    +0.302 C 
ATOM     31  O   UNL     1     -11.462  11.724  65.294  0.00  0.00    -0.263 OA
ATOM     32  N   UNL     1     -10.088  10.930  66.877  0.00  0.00    -0.102 NA
ENDBRANCH  11  30
TORSDOF 2
ENDMDL
