MODEL 1
REMARK VINA RESULT:      -8.5      0.000      0.000
REMARK  Name = 
REMARK  4 active torsions:
REMARK  status: ('A' for Active; 'I' for Inactive)
REMARK    1  A    between atoms: C_23  and  O_24
REMARK    2  A    between atoms: C_26  and  C_27
REMARK    3  A    between atoms: C_27  and  C_28
REMARK    4  A    between atoms: C_28  and  C_30
REMARK                            x       y       z     vdW  Elec       q    Type
REMARK                         _______ _______ _______ _____ _____    ______ ____
ROOT
ATOM      1  C   UNL     1      -2.485  10.968  70.572  0.00  0.00    -0.007 C 
ATOM      2  C   UNL     1      -3.007  10.626  70.109  0.00  0.00    -0.015 C 
ATOM      3  C   UNL     1      -4.172  11.462  69.335  0.00  0.00    +0.134 C 
ATOM      4  O   UNL     1      -5.268  10.425  69.582  0.00  0.00    -0.354 OA
ATOM      5  C   UNL     1      -4.841  10.112  70.999  0.00  0.00    +0.120 C 
ATOM      6  C   UNL     1      -5.719   8.723  70.990  0.00  0.00    +0.035 C 
ATOM      7  C   UNL     1      -6.965   9.273  71.648  0.00  0.00    +0.059 C 
ATOM      8  C   UNL     1      -8.083   8.356  71.222  0.00  0.00    +0.190 C 
ATOM      9  O   UNL     1      -7.613   7.221  70.758  0.00  0.00    -0.332 OA
ATOM     10  C   UNL     1      -8.848   6.463  70.368  0.00  0.00    +0.174 C 
ATOM     11  C   UNL     1      -9.550   6.524  71.891  0.00  0.00    +0.150 C 
ATOM     12  O   UNL     1     -10.860   6.856  71.360  0.00  0.00    -0.351 OA
ATOM     13  C   UNL     1     -10.943   7.722  70.173  0.00  0.00    +0.174 C 
ATOM     14  C   UNL     1     -10.019   9.065  71.073  0.00  0.00    +0.176 C 
ATOM     15  C   UNL     1     -10.728  10.270  70.237  0.00  0.00    +0.172 C 
ATOM     16  C   UNL     1     -11.645   8.830  70.260  0.00  0.00    +0.145 C 
ATOM     17  C   UNL     1     -12.215   9.866  71.360  0.00  0.00    +0.035 C 
ATOM     18  C   UNL     1     -12.423  10.746  70.060  0.00  0.00    +0.033 C 
ATOM     19  C   UNL     1     -10.987  11.256  69.359  0.00  0.00    +0.123 C 
ATOM     20  C   UNL     1     -11.639  11.633  67.920  0.00  0.00    +0.094 C 
ATOM     21  C   UNL     1     -11.307  13.075  68.208  0.00  0.00    +0.153 C 
ATOM     22  C   UNL     1     -10.014  13.566  67.765  0.00  0.00    +0.070 C 
ATOM     23  C   UNL     1      -9.751  14.710  68.869  0.00  0.00    +0.064 C 
ATOM     24  C   UNL     1      -8.449  15.370  68.000  0.00  0.00    +0.121 C 
ATOM     25  C   UNL     1      -7.403  14.919  69.180  0.00  0.00    +0.063 C 
ATOM     26  C   UNL     1      -6.530  16.308  69.411  0.00  0.00    +0.136 C 
ATOM     27  C   UNL     1      -5.695  16.182  68.016  0.00  0.00    -0.018 C 
ATOM     28  C   UNL     1      -6.004  17.127  67.134  0.00  0.00    -0.007 C 
ATOM     29  C   UNL     1      -4.162  16.263  68.466  0.00  0.00    +0.023 C 
ATOM     30  C   UNL     1      -3.579  16.156  66.940  0.00  0.00    +0.005 C 
ATOM     31  C   UNL     1      -4.316  14.647  68.610  0.00  0.00    +0.034 C 
ATOM     32  C   UNL     1      -4.552  14.729  70.242  0.00  0.00    +0.116 C 
ATOM     33  C   UNL     1      -5.533  13.386  70.194  0.00  0.00    +0.032 C 
ATOM     34  O   UNL     1      -5.621  15.701  70.370  0.00  0.00    -0.355 OA
ATOM     35  O   UNL     1      -8.860  16.688  68.639  0.00  0.00    -0.356 OA
ATOM     36  C   UNL     1      -9.738  16.743  67.406  0.00  0.00    +0.145 C 
ATOM     37  C   UNL     1     -10.907  15.681  68.107  0.00  0.00    +0.145 C 
ATOM     38  O   UNL     1     -12.132  13.583  68.917  0.00  0.00    -0.296 OA
ATOM     39  O   UNL     1     -10.266   8.449  70.986  0.00  0.00    -0.351 OA
ATOM     40  O   UNL     1     -10.450   9.919  68.788  0.00  0.00    -0.353 OA
ATOM     41  C   UNL     1      -9.489   7.893  69.708  0.00  0.00    +0.174 C 
ATOM     42  O   UNL     1      -8.759   9.231  70.336  0.00  0.00    -0.332 OA
ATOM     43  C   UNL     1      -8.854   7.945  72.360  0.00  0.00    +0.088 C 
ATOM     44  C   UNL     1      -4.601  12.326  70.680  0.00  0.00    +0.036 C 
ATOM     45  C   UNL     1      -3.542   9.316  70.353  0.00  0.00    +0.054 C 
ENDROOT
BRANCH  37  46
ATOM     46  O   UNL     1     -11.217  16.498  69.312  0.00  0.00    -0.351 OA
ATOM     47  C   UNL     1     -11.491  15.914  70.522  0.00  0.00    +0.174 C 
ENDBRANCH  37  46
BRANCH  36  48
ATOM     48  C   UNL     1     -10.523  18.113  67.872  0.00  0.00    +0.066 C 
BRANCH  48  49
ATOM     49  C   UNL     1     -10.407  18.822  66.384  0.00  0.00    +0.173 C 
ATOM     50  O   UNL     1      -9.658  17.637  65.790  0.00  0.00    -0.221 OA
BRANCH  49  51
ATOM     51  C   UNL     1      -9.049  19.682  66.743  0.00  0.00    +0.142 C 
ATOM     52  N   UNL     1      -8.146  19.607  65.707  0.00  0.00    -0.129 NA
ENDBRANCH  49  51
ENDBRANCH  48  49
ENDBRANCH  36  48
TORSDOF 4
ENDMDL
MODEL 2
REMARK VINA RESULT:      -8.4      2.606      6.517
REMARK  Name = 
REMARK  4 active torsions:
REMARK  status: ('A' for Active; 'I' for Inactive)
REMARK    1  A    between atoms: C_23  and  O_24
REMARK    2  A    between atoms: C_26  and  C_27
REMARK    3  A    between atoms: C_27  and  C_28
REMARK    4  A    between atoms: C_28  and  C_30
REMARK                            x       y       z     vdW  Elec       q    Type
REMARK                         _______ _______ _______ _____ _____    ______ ____
ROOT
ATOM      1  C   UNL     1     -12.155  14.248  65.355  0.00  0.00    -0.007 C 
ATOM      2  C   UNL     1     -11.990  13.949  66.053  0.00  0.00    -0.015 C 
ATOM      3  C   UNL     1     -10.900  14.621  67.060  0.00  0.00    +0.134 C 
ATOM      4  O   UNL     1     -10.296  13.291  67.511  0.00  0.00    -0.354 OA
ATOM      5  C   UNL     1     -10.338  12.652  66.142  0.00  0.00    +0.120 C 
ATOM      6  C   UNL     1     -10.144  11.158  66.798  0.00  0.00    +0.035 C 
ATOM      7  C   UNL     1      -8.644  11.062  66.630  0.00  0.00    +0.059 C 
ATOM      8  C   UNL     1      -8.186  10.063  67.662  0.00  0.00    +0.190 C 
ATOM      9  O   UNL     1      -9.193   9.344  68.103  0.00  0.00    -0.332 OA
ATOM     10  C   UNL     1      -8.560   8.441  69.120  0.00  0.00    +0.174 C 
ATOM     11  C   UNL     1      -7.448   7.771  68.056  0.00  0.00    +0.150 C 
ATOM     12  O   UNL     1      -6.359   7.867  69.010  0.00  0.00    -0.351 OA
ATOM     13  C   UNL     1      -6.317   9.023  69.921  0.00  0.00    +0.174 C 
ATOM     14  C   UNL     1      -6.286  10.184  68.466  0.00  0.00    +0.176 C 
ATOM     15  C   UNL     1      -5.459  11.340  69.262  0.00  0.00    +0.172 C 
ATOM     16  C   UNL     1      -5.241   9.779  69.917  0.00  0.00    +0.145 C 
ATOM     17  C   UNL     1      -3.987  10.164  68.975  0.00  0.00    +0.035 C 
ATOM     18  C   UNL     1      -3.868  11.333  70.037  0.00  0.00    +0.033 C 
ATOM     19  C   UNL     1      -5.120  12.447  69.949  0.00  0.00    +0.123 C 
ATOM     20  C   UNL     1      -4.866  13.086  71.420  0.00  0.00    +0.094 C 
ATOM     21  C   UNL     1      -4.481  14.372  70.736  0.00  0.00    +0.153 C 
ATOM     22  C   UNL     1      -5.535  15.338  70.485  0.00  0.00    +0.070 C 
ATOM     23  C   UNL     1      -4.952  16.060  69.168  0.00  0.00    +0.064 C 
ATOM     24  C   UNL     1      -6.082  17.326  69.256  0.00  0.00    +0.121 C 
ATOM     25  C   UNL     1      -6.787  16.824  67.862  0.00  0.00    +0.063 C 
ATOM     26  C   UNL     1      -6.906  18.240  67.011  0.00  0.00    +0.136 C 
ATOM     27  C   UNL     1      -8.118  18.847  67.919  0.00  0.00    -0.018 C 
ATOM     28  C   UNL     1      -7.753  19.903  68.639  0.00  0.00    -0.007 C 
ATOM     29  C   UNL     1      -9.259  19.211  66.859  0.00  0.00    +0.023 C 
ATOM     30  C   UNL     1     -10.287  19.807  67.985  0.00  0.00    +0.005 C 
ATOM     31  C   UNL     1      -9.730  17.673  67.122  0.00  0.00    +0.034 C 
ATOM     32  C   UNL     1      -8.975  17.120  65.761  0.00  0.00    +0.116 C 
ATOM     33  C   UNL     1      -8.686  15.651  66.487  0.00  0.00    +0.032 C 
ATOM     34  O   UNL     1      -7.626  17.634  65.902  0.00  0.00    -0.355 OA
ATOM     35  O   UNL     1      -4.998  18.166  68.599  0.00  0.00    -0.356 OA
ATOM     36  C   UNL     1      -4.612  18.381  70.048  0.00  0.00    +0.145 C 
ATOM     37  C   UNL     1      -3.811  16.852  70.134  0.00  0.00    +0.145 C 
ATOM     38  O   UNL     1      -3.343  14.344  70.354  0.00  0.00    -0.296 OA
ATOM     39  O   UNL     1      -6.349   9.592  68.771  0.00  0.00    -0.351 OA
ATOM     40  O   UNL     1      -6.299  11.603  70.497  0.00  0.00    -0.353 OA
ATOM     41  C   UNL     1      -7.645   9.757  69.686  0.00  0.00    +0.174 C 
ATOM     42  O   UNL     1      -7.536  10.951  68.554  0.00  0.00    -0.332 OA
ATOM     43  C   UNL     1      -7.328   9.083  67.062  0.00  0.00    +0.088 C 
ATOM     44  C   UNL     1      -9.758  14.809  65.878  0.00  0.00    +0.036 C 
ATOM     45  C   UNL     1     -11.979  12.539  66.326  0.00  0.00    +0.054 C 
ENDROOT
BRANCH  37  46
ATOM     46  O   UNL     1      -2.835  17.080  69.034  0.00  0.00    -0.351 OA
ATOM     47  C   UNL     1      -2.508  16.086  68.148  0.00  0.00    +0.174 C 
ENDBRANCH  37  46
BRANCH  36  48
ATOM     48  C   UNL     1      -3.241  19.217  69.690  0.00  0.00    +0.066 C 
BRANCH  48  49
ATOM     49  C   UNL     1      -3.967  20.694  69.840  0.00  0.00    +0.173 C 
ATOM     50  O   UNL     1      -2.643  21.410  70.069  0.00  0.00    -0.221 OA
BRANCH  49  51
ATOM     51  C   UNL     1      -4.312  20.520  71.441  0.00  0.00    +0.142 C 
ATOM     52  N   UNL     1      -4.333  21.747  72.063  0.00  0.00    -0.129 NA
ENDBRANCH  49  51
ENDBRANCH  48  49
ENDBRANCH  36  48
TORSDOF 4
ENDMDL
MODEL 3
REMARK VINA RESULT:      -8.4      2.722      8.272
REMARK  Name = 
REMARK  4 active torsions:
REMARK  status: ('A' for Active; 'I' for Inactive)
REMARK    1  A    between atoms: C_23  and  O_24
REMARK    2  A    between atoms: C_26  and  C_27
REMARK    3  A    between atoms: C_27  and  C_28
REMARK    4  A    between atoms: C_28  and  C_30
REMARK                            x       y       z     vdW  Elec       q    Type
REMARK                         _______ _______ _______ _____ _____    ______ ____
ROOT
ATOM      1  C   UNL     1      -2.772  14.394  70.876  0.00  0.00    -0.007 C 
ATOM      2  C   UNL     1      -3.478  14.693  71.003  0.00  0.00    -0.015 C 
ATOM      3  C   UNL     1      -4.833  13.789  70.956  0.00  0.00    +0.134 C 
ATOM      4  O   UNL     1      -5.670  14.840  70.227  0.00  0.00    -0.354 OA
ATOM      5  C   UNL     1      -4.561  15.276  69.297  0.00  0.00    +0.120 C 
ATOM      6  C   UNL     1      -5.371  16.657  68.926  0.00  0.00    +0.035 C 
ATOM      7  C   UNL     1      -6.032  16.162  67.659  0.00  0.00    +0.059 C 
ATOM      8  C   UNL     1      -7.247  17.034  67.471  0.00  0.00    +0.190 C 
ATOM      9  O   UNL     1      -7.161  18.126  68.196  0.00  0.00    -0.332 OA
ATOM     10  C   UNL     1      -8.446  18.843  67.904  0.00  0.00    +0.174 C 
ATOM     11  C   UNL     1      -8.207  18.912  66.245  0.00  0.00    +0.150 C 
ATOM     12  O   UNL     1      -9.577  18.532  65.952  0.00  0.00    -0.351 OA
ATOM     13  C   UNL     1     -10.246  17.566  66.837  0.00  0.00    +0.174 C 
ATOM     14  C   UNL     1      -8.916  16.309  66.492  0.00  0.00    +0.176 C 
ATOM     15  C   UNL     1      -9.904  15.034  66.718  0.00  0.00    +0.172 C 
ATOM     16  C   UNL     1     -10.733  16.467  66.303  0.00  0.00    +0.145 C 
ATOM     17  C   UNL     1     -10.563  15.528  64.999  0.00  0.00    +0.035 C 
ATOM     18  C   UNL     1     -11.398  14.538  65.910  0.00  0.00    +0.033 C 
ATOM     19  C   UNL     1     -10.548  13.973  67.241  0.00  0.00    +0.123 C 
ATOM     20  C   UNL     1     -11.855  13.470  68.063  0.00  0.00    +0.094 C 
ATOM     21  C   UNL     1     -11.348  12.060  67.899  0.00  0.00    +0.153 C 
ATOM     22  C   UNL     1     -10.479  11.537  68.938  0.00  0.00    +0.070 C 
ATOM     23  C   UNL     1      -9.603  10.495  68.078  0.00  0.00    +0.064 C 
ATOM     24  C   UNL     1      -8.949   9.765  69.466  0.00  0.00    +0.121 C 
ATOM     25  C   UNL     1      -7.454  10.321  69.080  0.00  0.00    +0.063 C 
ATOM     26  C   UNL     1      -6.527   8.960  69.263  0.00  0.00    +0.136 C 
ATOM     27  C   UNL     1      -6.589   8.967  70.894  0.00  0.00    -0.018 C 
ATOM     28  C   UNL     1      -7.279   7.948  71.395  0.00  0.00    -0.007 C 
ATOM     29  C   UNL     1      -5.055   8.931  71.346  0.00  0.00    +0.023 C 
ATOM     30  C   UNL     1      -5.399   8.906  72.946  0.00  0.00    +0.005 C 
ATOM     31  C   UNL     1      -5.187  10.553  71.257  0.00  0.00    +0.034 C 
ATOM     32  C   UNL     1      -4.496  10.612  69.758  0.00  0.00    +0.116 C 
ATOM     33  C   UNL     1      -5.413  11.942  69.360  0.00  0.00    +0.032 C 
ATOM     34  O   UNL     1      -5.275   9.651  69.000  0.00  0.00    -0.355 OA
ATOM     35  O   UNL     1      -8.881   8.507  68.614  0.00  0.00    -0.356 OA
ATOM     36  C   UNL     1     -10.283   8.341  69.162  0.00  0.00    +0.145 C 
ATOM     37  C   UNL     1     -10.938   9.457  68.016  0.00  0.00    +0.145 C 
ATOM     38  O   UNL     1     -11.631  11.613  66.821  0.00  0.00    -0.296 OA
ATOM     39  O   UNL     1      -9.201  16.914  66.474  0.00  0.00    -0.351 OA
ATOM     40  O   UNL     1     -10.473  15.257  68.106  0.00  0.00    -0.353 OA
ATOM     41  C   UNL     1      -9.271  17.359  68.004  0.00  0.00    +0.174 C 
ATOM     42  O   UNL     1      -8.250  16.083  67.782  0.00  0.00    -0.332 OA
ATOM     43  C   UNL     1      -7.297  17.541  66.130  0.00  0.00    +0.088 C 
ATOM     44  C   UNL     1      -4.421  13.044  69.537  0.00  0.00    +0.036 C 
ATOM     45  C   UNL     1      -3.860  16.017  70.601  0.00  0.00    +0.054 C 
ENDROOT
BRANCH  37  46
ATOM     46  O   UNL     1     -10.503   8.747  66.782  0.00  0.00    -0.351 OA
ATOM     47  C   UNL     1      -9.870   9.408  65.760  0.00  0.00    +0.174 C 
ENDBRANCH  37  46
BRANCH  36  48
ATOM     48  C   UNL     1     -10.620   7.015  68.248  0.00  0.00    +0.066 C 
BRANCH  48  49
ATOM     49  C   UNL     1     -11.313   6.187  69.500  0.00  0.00    +0.173 C 
ATOM     50  O   UNL     1     -11.088   7.329  70.482  0.00  0.00    -0.221 OA
BRANCH  49  51
ATOM     51  C   UNL     1      -9.938   5.377  69.909  0.00  0.00    +0.142 C 
ATOM     52  N   UNL     1      -9.920   5.117  71.261  0.00  0.00    -0.129 NA
ENDBRANCH  49  51
ENDBRANCH  48  49
ENDBRANCH  36  48
TORSDOF 4
ENDMDL
MODEL 4
REMARK VINA RESULT:      -8.4      2.955      9.779
REMARK  Name = 
REMARK  4 active torsions:
REMARK  status: ('A' for Active; 'I' for Inactive)
REMARK    1  A    between atoms: C_23  and  O_24
REMARK    2  A    between atoms: C_26  and  C_27
REMARK    3  A    between atoms: C_27  and  C_28
REMARK    4  A    between atoms: C_28  and  C_30
REMARK                            x       y       z     vdW  Elec       q    Type
REMARK                         _______ _______ _______ _____ _____    ______ ____
ROOT
ATOM      1  C   UNL     1     -12.662  13.442  65.124  0.00  0.00    -0.007 C 
ATOM      2  C   UNL     1     -11.959  13.706  64.921  0.00  0.00    -0.015 C 
ATOM      3  C   UNL     1     -10.581  13.084  65.529  0.00  0.00    +0.134 C 
ATOM      4  O   UNL     1      -9.884  14.436  65.690  0.00  0.00    -0.354 OA
ATOM      5  C   UNL     1     -11.115  15.165  66.177  0.00  0.00    +0.120 C 
ATOM      6  C   UNL     1     -10.417  16.619  65.862  0.00  0.00    +0.035 C 
ATOM      7  C   UNL     1      -9.891  16.890  67.254  0.00  0.00    +0.059 C 
ATOM      8  C   UNL     1      -8.747  17.855  67.071  0.00  0.00    +0.190 C 
ATOM      9  O   UNL     1      -8.794  18.425  65.889  0.00  0.00    -0.332 OA
ATOM     10  C   UNL     1      -7.585  19.315  65.880  0.00  0.00    +0.174 C 
ATOM     11  C   UNL     1      -8.024  20.178  67.250  0.00  0.00    +0.150 C 
ATOM     12  O   UNL     1      -6.684  20.132  67.805  0.00  0.00    -0.351 OA
ATOM     13  C   UNL     1      -5.871  18.924  67.589  0.00  0.00    +0.174 C 
ATOM     14  C   UNL     1      -7.177  17.883  68.414  0.00  0.00    +0.176 C 
ATOM     15  C   UNL     1      -6.114  16.769  68.946  0.00  0.00    +0.172 C 
ATOM     16  C   UNL     1      -5.404  18.292  68.643  0.00  0.00    +0.145 C 
ATOM     17  C   UNL     1      -5.687  18.118  70.224  0.00  0.00    +0.035 C 
ATOM     18  C   UNL     1      -4.706  16.893  70.011  0.00  0.00    +0.033 C 
ATOM     19  C   UNL     1      -5.366  15.659  69.086  0.00  0.00    +0.123 C 
ATOM     20  C   UNL     1      -3.948  14.945  68.742  0.00  0.00    +0.094 C 
ATOM     21  C   UNL     1      -4.408  13.762  69.555  0.00  0.00    +0.153 C 
ATOM     22  C   UNL     1      -5.123  12.708  68.859  0.00  0.00    +0.070 C 
ATOM     23  C   UNL     1      -6.049  12.153  70.054  0.00  0.00    +0.064 C 
ATOM     24  C   UNL     1      -6.500  10.768  69.180  0.00  0.00    +0.121 C 
ATOM     25  C   UNL     1      -8.053  11.292  69.108  0.00  0.00    +0.063 C 
ATOM     26  C   UNL     1      -8.890   9.938  69.566  0.00  0.00    +0.136 C 
ATOM     27  C   UNL     1      -8.635   9.136  68.167  0.00  0.00    -0.018 C 
ATOM     28  C   UNL     1      -7.846   8.076  68.309  0.00  0.00    -0.007 C 
ATOM     29  C   UNL     1     -10.101   8.728  67.674  0.00  0.00    +0.023 C 
ATOM     30  C   UNL     1      -9.567   7.943  66.341  0.00  0.00    +0.005 C 
ATOM     31  C   UNL     1     -10.052  10.182  66.939  0.00  0.00    +0.034 C 
ATOM     32  C   UNL     1     -10.918  10.913  68.139  0.00  0.00    +0.116 C 
ATOM     33  C   UNL     1     -10.115  12.347  67.881  0.00  0.00    +0.032 C 
ATOM     34  O   UNL     1     -10.194  10.541  69.340  0.00  0.00    -0.355 OA
ATOM     35  O   UNL     1      -6.614  10.103  70.543  0.00  0.00    -0.356 OA
ATOM     36  C   UNL     1      -5.150   9.825  70.269  0.00  0.00    +0.145 C 
ATOM     37  C   UNL     1      -4.687  11.422  70.741  0.00  0.00    +0.145 C 
ATOM     38  O   UNL     1      -4.237  13.943  70.730  0.00  0.00    -0.296 OA
ATOM     39  O   UNL     1      -6.923  18.441  68.146  0.00  0.00    -0.351 OA
ATOM     40  O   UNL     1      -5.393  16.325  67.687  0.00  0.00    -0.353 OA
ATOM     41  C   UNL     1      -6.690  18.068  66.612  0.00  0.00    +0.174 C 
ATOM     42  O   UNL     1      -7.673  16.980  67.368  0.00  0.00    -0.332 OA
ATOM     43  C   UNL     1      -8.880  18.965  67.970  0.00  0.00    +0.088 C 
ATOM     44  C   UNL     1     -11.127  13.110  67.091  0.00  0.00    +0.036 C 
ATOM     45  C   UNL     1     -11.687  15.084  64.626  0.00  0.00    +0.054 C 
ENDROOT
BRANCH  37  46
ATOM     46  O   UNL     1      -5.234  11.383  72.125  0.00  0.00    -0.351 OA
ATOM     47  C   UNL     1      -4.568  11.963  73.175  0.00  0.00    +0.174 C 
ENDBRANCH  37  46
BRANCH  36  48
ATOM     48  C   UNL     1      -4.866   9.173  71.753  0.00  0.00    +0.066 C 
BRANCH  48  49
ATOM     49  C   UNL     1      -6.155   8.141  71.671  0.00  0.00    +0.173 C 
ATOM     50  O   UNL     1      -6.314   8.093  73.184  0.00  0.00    -0.221 OA
BRANCH  49  51
ATOM     51  C   UNL     1      -5.237   6.776  71.582  0.00  0.00    +0.142 C 
ATOM     52  N   UNL     1      -5.434   6.145  70.375  0.00  0.00    -0.129 NA
ENDBRANCH  49  51
ENDBRANCH  48  49
ENDBRANCH  36  48
TORSDOF 4
ENDMDL
MODEL 5
REMARK VINA RESULT:      -7.9      2.874      8.344
REMARK  Name = 
REMARK  4 active torsions:
REMARK  status: ('A' for Active; 'I' for Inactive)
REMARK    1  A    between atoms: C_23  and  O_24
REMARK    2  A    between atoms: C_26  and  C_27
REMARK    3  A    between atoms: C_27  and  C_28
REMARK    4  A    between atoms: C_28  and  C_30
REMARK                            x       y       z     vdW  Elec       q    Type
REMARK                         _______ _______ _______ _____ _____    ______ ____
ROOT
ATOM      1  C   UNL     1      -3.011  13.976  71.588  0.00  0.00    -0.007 C 
ATOM      2  C   UNL     1      -3.733  14.255  71.662  0.00  0.00    -0.015 C 
ATOM      3  C   UNL     1      -5.049  13.295  71.647  0.00  0.00    +0.134 C 
ATOM      4  O   UNL     1      -5.897  14.243  70.797  0.00  0.00    -0.354 OA
ATOM      5  C   UNL     1      -4.768  14.642  69.874  0.00  0.00    +0.120 C 
ATOM      6  C   UNL     1      -5.616  15.950  69.352  0.00  0.00    +0.035 C 
ATOM      7  C   UNL     1      -6.206  15.320  68.111  0.00  0.00    +0.059 C 
ATOM      8  C   UNL     1      -7.445  16.121  67.803  0.00  0.00    +0.190 C 
ATOM      9  O   UNL     1      -7.430  17.275  68.431  0.00  0.00    -0.332 OA
ATOM     10  C   UNL     1      -8.730  17.909  68.030  0.00  0.00    +0.174 C 
ATOM     11  C   UNL     1      -8.427  17.844  66.381  0.00  0.00    +0.150 C 
ATOM     12  O   UNL     1      -9.768  17.382  66.073  0.00  0.00    -0.351 OA
ATOM     13  C   UNL     1     -10.435  16.469  67.015  0.00  0.00    +0.174 C 
ATOM     14  C   UNL     1      -9.045  15.244  66.832  0.00  0.00    +0.176 C 
ATOM     15  C   UNL     1      -9.991  13.953  67.134  0.00  0.00    +0.172 C 
ATOM     16  C   UNL     1     -10.857  15.309  66.564  0.00  0.00    +0.145 C 
ATOM     17  C   UNL     1     -10.599  14.269  65.355  0.00  0.00    +0.035 C 
ATOM     18  C   UNL     1     -11.432  13.327  66.319  0.00  0.00    +0.033 C 
ATOM     19  C   UNL     1     -10.614  12.916  67.725  0.00  0.00    +0.123 C 
ATOM     20  C   UNL     1     -11.933  12.433  68.540  0.00  0.00    +0.094 C 
ATOM     21  C   UNL     1     -11.366  11.036  68.520  0.00  0.00    +0.153 C 
ATOM     22  C   UNL     1     -10.520  10.642  69.632  0.00  0.00    +0.070 C 
ATOM     23  C   UNL     1      -9.570   9.566  68.900  0.00  0.00    +0.064 C 
ATOM     24  C   UNL     1      -8.944   8.988  70.370  0.00  0.00    +0.121 C 
ATOM     25  C   UNL     1      -7.458   9.570  69.991  0.00  0.00    +0.063 C 
ATOM     26  C   UNL     1      -6.487   8.270  70.327  0.00  0.00    +0.136 C 
ATOM     27  C   UNL     1      -6.614   8.417  71.948  0.00  0.00    -0.018 C 
ATOM     28  C   UNL     1      -7.284   7.417  72.512  0.00  0.00    -0.007 C 
ATOM     29  C   UNL     1      -5.099   8.484  72.456  0.00  0.00    +0.023 C 
ATOM     30  C   UNL     1      -5.505   8.584  74.039  0.00  0.00    +0.005 C 
ATOM     31  C   UNL     1      -5.290  10.085  72.220  0.00  0.00    +0.034 C 
ATOM     32  C   UNL     1      -4.543  10.043  70.748  0.00  0.00    +0.116 C 
ATOM     33  C   UNL     1      -5.494  11.294  70.201  0.00  0.00    +0.032 C 
ATOM     34  O   UNL     1      -5.253   8.988  70.049  0.00  0.00    -0.355 OA
ATOM     35  O   UNL     1      -8.794   7.664  69.636  0.00  0.00    -0.356 OA
ATOM     36  C   UNL     1     -10.210   7.489  70.145  0.00  0.00    +0.145 C 
ATOM     37  C   UNL     1     -10.860   8.472  68.882  0.00  0.00    +0.145 C 
ATOM     38  O   UNL     1     -11.588  10.486  67.476  0.00  0.00    -0.296 OA
ATOM     39  O   UNL     1      -9.352  15.833  66.750  0.00  0.00    -0.351 OA
ATOM     40  O   UNL     1     -10.623  14.273  68.475  0.00  0.00    -0.353 OA
ATOM     41  C   UNL     1      -9.500  16.406  68.231  0.00  0.00    +0.174 C 
ATOM     42  O   UNL     1      -8.422  15.159  68.160  0.00  0.00    -0.332 OA
ATOM     43  C   UNL     1      -7.461  16.506  66.421  0.00  0.00    +0.088 C 
ATOM     44  C   UNL     1      -4.552  12.447  70.315  0.00  0.00    +0.036 C 
ATOM     45  C   UNL     1      -4.149  15.522  71.132  0.00  0.00    +0.054 C 
ENDROOT
BRANCH  37  46
ATOM     46  O   UNL     1     -10.350   7.676  67.732  0.00  0.00    -0.351 OA
ATOM     47  C   UNL     1     -10.027   8.268  66.538  0.00  0.00    +0.174 C 
ENDBRANCH  37  46
BRANCH  36  48
ATOM     48  C   UNL     1     -10.459   6.075  69.340  0.00  0.00    +0.066 C 
BRANCH  48  49
ATOM     49  C   UNL     1      -9.308   5.253  70.197  0.00  0.00    +0.173 C 
ATOM     50  O   UNL     1      -9.726   3.908  69.618  0.00  0.00    -0.221 OA
BRANCH  49  51
ATOM     51  C   UNL     1     -10.223   5.111  71.560  0.00  0.00    +0.142 C 
ATOM     52  N   UNL     1     -10.147   3.830  72.055  0.00  0.00    -0.129 NA
ENDBRANCH  49  51
ENDBRANCH  48  49
ENDBRANCH  36  48
TORSDOF 4
ENDMDL
MODEL 6
REMARK VINA RESULT:      -7.5      3.905      5.606
REMARK  Name = 
REMARK  4 active torsions:
REMARK  status: ('A' for Active; 'I' for Inactive)
REMARK    1  A    between atoms: C_23  and  O_24
REMARK    2  A    between atoms: C_26  and  C_27
REMARK    3  A    between atoms: C_27  and  C_28
REMARK    4  A    between atoms: C_28  and  C_30
REMARK                            x       y       z     vdW  Elec       q    Type
REMARK                         _______ _______ _______ _____ _____    ______ ____
ROOT
ATOM      1  C   UNL     1      -6.409   4.561  64.447  0.00  0.00    -0.007 C 
ATOM      2  C   UNL     1      -7.085   4.473  64.822  0.00  0.00    -0.015 C 
ATOM      3  C   UNL     1      -8.121   5.707  65.061  0.00  0.00    +0.134 C 
ATOM      4  O   UNL     1      -8.479   5.306  66.493  0.00  0.00    -0.354 OA
ATOM      5  C   UNL     1      -7.071   4.911  66.878  0.00  0.00    +0.120 C 
ATOM      6  C   UNL     1      -7.628   4.083  68.185  0.00  0.00    +0.035 C 
ATOM      7  C   UNL     1      -7.438   5.181  69.208  0.00  0.00    +0.059 C 
ATOM      8  C   UNL     1      -8.397   4.860  70.325  0.00  0.00    +0.190 C 
ATOM      9  O   UNL     1      -8.801   3.611  70.257  0.00  0.00    -0.332 OA
ATOM     10  C   UNL     1      -9.751   3.487  71.412  0.00  0.00    +0.174 C 
ATOM     11  C   UNL     1      -8.635   3.949  72.576  0.00  0.00    +0.150 C 
ATOM     12  O   UNL     1      -9.581   4.816  73.253  0.00  0.00    -0.351 OA
ATOM     13  C   UNL     1     -10.565   5.555  72.446  0.00  0.00    +0.174 C 
ATOM     14  C   UNL     1      -9.188   6.370  71.493  0.00  0.00    +0.176 C 
ATOM     15  C   UNL     1     -10.048   7.718  71.182  0.00  0.00    +0.172 C 
ATOM     16  C   UNL     1     -10.598   6.866  72.554  0.00  0.00    +0.145 C 
ATOM     17  C   UNL     1      -9.670   8.107  73.010  0.00  0.00    +0.035 C 
ATOM     18  C   UNL     1     -10.804   8.910  72.249  0.00  0.00    +0.033 C 
ATOM     19  C   UNL     1     -10.802   8.663  70.590  0.00  0.00    +0.123 C 
ATOM     20  C   UNL     1     -12.309   9.217  70.346  0.00  0.00    +0.094 C 
ATOM     21  C   UNL     1     -11.705  10.358  69.567  0.00  0.00    +0.153 C 
ATOM     22  C   UNL     1     -11.528  10.173  68.138  0.00  0.00    +0.070 C 
ATOM     23  C   UNL     1     -10.255  11.127  67.883  0.00  0.00    +0.064 C 
ATOM     24  C   UNL     1     -10.436  11.064  66.195  0.00  0.00    +0.121 C 
ATOM     25  C   UNL     1      -9.021  10.249  66.050  0.00  0.00    +0.063 C 
ATOM     26  C   UNL     1      -8.265  11.091  64.841  0.00  0.00    +0.136 C 
ATOM     27  C   UNL     1      -9.223  10.517  63.651  0.00  0.00    -0.018 C 
ATOM     28  C   UNL     1     -10.006  11.448  63.116  0.00  0.00    -0.007 C 
ATOM     29  C   UNL     1      -8.201   9.908  62.582  0.00  0.00    +0.023 C 
ATOM     30  C   UNL     1      -9.374   9.461  61.531  0.00  0.00    +0.005 C 
ATOM     31  C   UNL     1      -8.368   8.555  63.474  0.00  0.00    +0.034 C 
ATOM     32  C   UNL     1      -6.967   8.826  64.304  0.00  0.00    +0.116 C 
ATOM     33  C   UNL     1      -7.593   8.086  65.656  0.00  0.00    +0.032 C 
ATOM     34  O   UNL     1      -7.126  10.187  64.781  0.00  0.00    -0.355 OA
ATOM     35  O   UNL     1      -9.824  12.456  66.208  0.00  0.00    -0.356 OA
ATOM     36  C   UNL     1     -11.279  12.842  66.372  0.00  0.00    +0.145 C 
ATOM     37  C   UNL     1     -11.258  12.477  68.061  0.00  0.00    +0.145 C 
ATOM     38  O   UNL     1     -11.310  11.227  70.296  0.00  0.00    -0.296 OA
ATOM     39  O   UNL     1      -9.454   5.933  71.925  0.00  0.00    -0.351 OA
ATOM     40  O   UNL     1     -11.306   7.199  70.512  0.00  0.00    -0.353 OA
ATOM     41  C   UNL     1     -10.392   5.013  71.021  0.00  0.00    +0.174 C 
ATOM     42  O   UNL     1      -9.338   5.897  70.111  0.00  0.00    -0.332 OA
ATOM     43  C   UNL     1      -7.727   4.913  71.592  0.00  0.00    +0.088 C 
ATOM     44  C   UNL     1      -6.941   6.744  65.581  0.00  0.00    +0.036 C 
ATOM     45  C   UNL     1      -7.265   3.572  65.925  0.00  0.00    +0.054 C 
ENDROOT
BRANCH  37  46
ATOM     46  O   UNL     1     -10.165  13.410  68.449  0.00  0.00    -0.351 OA
ATOM     47  C   UNL     1     -10.331  14.331  69.452  0.00  0.00    +0.174 C 
ENDBRANCH  37  46
BRANCH  36  48
ATOM     48  C   UNL     1     -10.962  14.442  66.589  0.00  0.00    +0.066 C 
BRANCH  48  49
ATOM     49  C   UNL     1     -10.357  14.644  65.064  0.00  0.00    +0.173 C 
ATOM     50  O   UNL     1      -9.845  16.045  65.368  0.00  0.00    -0.221 OA
BRANCH  49  51
ATOM     51  C   UNL     1     -11.783  15.154  64.414  0.00  0.00    +0.142 C 
ATOM     52  N   UNL     1     -11.674  16.455  63.981  0.00  0.00    -0.129 NA
ENDBRANCH  49  51
ENDBRANCH  48  49
ENDBRANCH  36  48
TORSDOF 4
ENDMDL
MODEL 7
REMARK VINA RESULT:      -7.4      5.270     10.088
REMARK  Name = 
REMARK  4 active torsions:
REMARK  status: ('A' for Active; 'I' for Inactive)
REMARK    1  A    between atoms: C_23  and  O_24
REMARK    2  A    between atoms: C_26  and  C_27
REMARK    3  A    between atoms: C_27  and  C_28
REMARK    4  A    between atoms: C_28  and  C_30
REMARK                            x       y       z     vdW  Elec       q    Type
REMARK                         _______ _______ _______ _____ _____    ______ ____
ROOT
ATOM      1  C   UNL     1      -7.768   8.891  60.512  0.00  0.00    -0.007 C 
ATOM      2  C   UNL     1      -7.565   9.371  61.088  0.00  0.00    -0.015 C 
ATOM      3  C   UNL     1      -7.196   8.839  62.583  0.00  0.00    +0.134 C 
ATOM      4  O   UNL     1      -7.928   9.967  63.311  0.00  0.00    -0.354 OA
ATOM      5  C   UNL     1      -9.112   9.989  62.372  0.00  0.00    +0.120 C 
ATOM      6  C   UNL     1      -9.561  11.471  62.922  0.00  0.00    +0.035 C 
ATOM      7  C   UNL     1     -10.573  11.003  63.943  0.00  0.00    +0.059 C 
ATOM      8  C   UNL     1     -10.679  12.123  64.947  0.00  0.00    +0.190 C 
ATOM      9  O   UNL     1     -10.187  13.240  64.462  0.00  0.00    -0.332 OA
ATOM     10  C   UNL     1     -10.354  14.215  65.591  0.00  0.00    +0.174 C 
ATOM     11  C   UNL     1     -12.014  14.012  65.722  0.00  0.00    +0.150 C 
ATOM     12  O   UNL     1     -11.972  13.955  67.172  0.00  0.00    -0.351 OA
ATOM     13  C   UNL     1     -10.821  13.308  67.820  0.00  0.00    +0.174 C 
ATOM     14  C   UNL     1     -11.183  11.724  66.911  0.00  0.00    +0.176 C 
ATOM     15  C   UNL     1     -10.554  10.777  68.077  0.00  0.00    +0.172 C 
ATOM     16  C   UNL     1     -11.051  12.308  68.643  0.00  0.00    +0.145 C 
ATOM     17  C   UNL     1     -12.178  11.201  68.981  0.00  0.00    +0.035 C 
ATOM     18  C   UNL     1     -10.966  10.576  69.787  0.00  0.00    +0.033 C 
ATOM     19  C   UNL     1      -9.740   9.988  68.804  0.00  0.00    +0.123 C 
ATOM     20  C   UNL     1      -8.612   9.938  69.970  0.00  0.00    +0.094 C 
ATOM     21  C   UNL     1      -8.617   8.436  69.835  0.00  0.00    +0.153 C 
ATOM     22  C   UNL     1      -7.684   7.846  68.892  0.00  0.00    +0.070 C 
ATOM     23  C   UNL     1      -8.497   6.517  68.482  0.00  0.00    +0.064 C 
ATOM     24  C   UNL     1      -7.151   5.827  67.709  0.00  0.00    +0.121 C 
ATOM     25  C   UNL     1      -7.903   5.935  66.255  0.00  0.00    +0.063 C 
ATOM     26  C   UNL     1      -7.662   4.419  65.633  0.00  0.00    +0.136 C 
ATOM     27  C   UNL     1      -6.076   4.647  65.322  0.00  0.00    -0.018 C 
ATOM     28  C   UNL     1      -5.282   3.905  66.088  0.00  0.00    -0.007 C 
ATOM     29  C   UNL     1      -5.922   4.282  63.772  0.00  0.00    +0.023 C 
ATOM     30  C   UNL     1      -4.307   4.546  63.744  0.00  0.00    +0.005 C 
ATOM     31  C   UNL     1      -6.268   5.861  63.562  0.00  0.00    +0.034 C 
ATOM     32  C   UNL     1      -7.857   5.556  63.230  0.00  0.00    +0.116 C 
ATOM     33  C   UNL     1      -8.303   7.013  63.898  0.00  0.00    +0.032 C 
ATOM     34  O   UNL     1      -8.274   4.734  64.352  0.00  0.00    -0.355 OA
ATOM     35  O   UNL     1      -7.765   4.495  68.113  0.00  0.00    -0.356 OA
ATOM     36  C   UNL     1      -6.942   4.758  69.357  0.00  0.00    +0.145 C 
ATOM     37  C   UNL     1      -8.123   5.850  69.991  0.00  0.00    +0.145 C 
ATOM     38  O   UNL     1      -9.526   7.943  70.445  0.00  0.00    -0.296 OA
ATOM     39  O   UNL     1     -11.253  12.374  67.053  0.00  0.00    -0.351 OA
ATOM     40  O   UNL     1      -9.145  11.310  68.256  0.00  0.00    -0.353 OA
ATOM     41  C   UNL     1      -9.840  13.011  66.676  0.00  0.00    +0.174 C 
ATOM     42  O   UNL     1     -10.023  11.502  66.038  0.00  0.00    -0.332 OA
ATOM     43  C   UNL     1     -12.055  12.452  65.185  0.00  0.00    +0.088 C 
ATOM     44  C   UNL     1      -8.513   7.842  62.675  0.00  0.00    +0.036 C 
ATOM     45  C   UNL     1      -8.115  10.688  61.250  0.00  0.00    +0.054 C 
ENDROOT
BRANCH  37  46
ATOM     46  O   UNL     1      -9.272   4.903  70.012  0.00  0.00    -0.351 OA
ATOM     47  C   UNL     1     -10.562   5.340  69.856  0.00  0.00    +0.174 C 
ENDBRANCH  37  46
BRANCH  36  48
ATOM     48  C   UNL     1      -7.529   3.456  70.173  0.00  0.00    +0.066 C 
BRANCH  48  49
ATOM     49  C   UNL     1      -7.100   2.380  68.993  0.00  0.00    +0.173 C 
ATOM     50  O   UNL     1      -8.100   1.336  69.472  0.00  0.00    -0.221 OA
BRANCH  49  51
ATOM     51  C   UNL     1      -5.828   1.752  69.830  0.00  0.00    +0.142 C 
ATOM     52  N   UNL     1      -4.679   1.820  69.076  0.00  0.00    -0.129 NA
ENDBRANCH  49  51
ENDBRANCH  48  49
ENDBRANCH  36  48
TORSDOF 4
ENDMDL
MODEL 8
REMARK VINA RESULT:      -7.4      2.952      8.419
REMARK  Name = 
REMARK  4 active torsions:
REMARK  status: ('A' for Active; 'I' for Inactive)
REMARK    1  A    between atoms: C_23  and  O_24
REMARK    2  A    between atoms: C_26  and  C_27
REMARK    3  A    between atoms: C_27  and  C_28
REMARK    4  A    between atoms: C_28  and  C_30
REMARK                            x       y       z     vdW  Elec       q    Type
REMARK                         _______ _______ _______ _____ _____    ______ ____
ROOT
ATOM      1  C   UNL     1      -3.434  14.429  71.740  0.00  0.00    -0.007 C 
ATOM      2  C   UNL     1      -4.199  14.566  71.761  0.00  0.00    -0.015 C 
ATOM      3  C   UNL     1      -5.305  13.388  71.558  0.00  0.00    +0.134 C 
ATOM      4  O   UNL     1      -6.241  14.230  70.691  0.00  0.00    -0.354 OA
ATOM      5  C   UNL     1      -5.134  14.898  69.907  0.00  0.00    +0.120 C 
ATOM      6  C   UNL     1      -6.165  16.067  69.387  0.00  0.00    +0.035 C 
ATOM      7  C   UNL     1      -6.519  15.439  68.058  0.00  0.00    +0.059 C 
ATOM      8  C   UNL     1      -7.857  16.024  67.681  0.00  0.00    +0.190 C 
ATOM      9  O   UNL     1      -8.111  17.109  68.377  0.00  0.00    -0.332 OA
ATOM     10  C   UNL     1      -9.468  17.527  67.891  0.00  0.00    +0.174 C 
ATOM     11  C   UNL     1      -9.021  17.646  66.278  0.00  0.00    +0.150 C 
ATOM     12  O   UNL     1     -10.221  16.975  65.814  0.00  0.00    -0.351 OA
ATOM     13  C   UNL     1     -10.782  15.886  66.629  0.00  0.00    +0.174 C 
ATOM     14  C   UNL     1      -9.176  14.951  66.507  0.00  0.00    +0.176 C 
ATOM     15  C   UNL     1      -9.885  13.490  66.636  0.00  0.00    +0.172 C 
ATOM     16  C   UNL     1     -10.939  14.706  66.068  0.00  0.00    +0.145 C 
ATOM     17  C   UNL     1     -10.390  13.828  64.829  0.00  0.00    +0.035 C 
ATOM     18  C   UNL     1     -11.109  12.679  65.648  0.00  0.00    +0.033 C 
ATOM     19  C   UNL     1     -10.350  12.315  67.099  0.00  0.00    +0.123 C 
ATOM     20  C   UNL     1     -11.618  11.537  67.750  0.00  0.00    +0.094 C 
ATOM     21  C   UNL     1     -10.800  10.273  67.700  0.00  0.00    +0.153 C 
ATOM     22  C   UNL     1      -9.991   9.952  68.863  0.00  0.00    +0.070 C 
ATOM     23  C   UNL     1      -8.798   9.127  68.162  0.00  0.00    +0.064 C 
ATOM     24  C   UNL     1      -8.201   8.559  69.647  0.00  0.00    +0.121 C 
ATOM     25  C   UNL     1      -6.824   9.429  69.452  0.00  0.00    +0.063 C 
ATOM     26  C   UNL     1      -5.658   8.304  69.800  0.00  0.00    +0.136 C 
ATOM     27  C   UNL     1      -5.946   8.298  71.406  0.00  0.00    -0.018 C 
ATOM     28  C   UNL     1      -6.461   7.152  71.840  0.00  0.00    -0.007 C 
ATOM     29  C   UNL     1      -4.519   8.599  72.063  0.00  0.00    +0.023 C 
ATOM     30  C   UNL     1      -5.068   8.499  73.602  0.00  0.00    +0.005 C 
ATOM     31  C   UNL     1      -4.986  10.152  71.907  0.00  0.00    +0.034 C 
ATOM     32  C   UNL     1      -4.124  10.362  70.515  0.00  0.00    +0.116 C 
ATOM     33  C   UNL     1      -5.243  11.458  69.956  0.00  0.00    +0.032 C 
ATOM     34  O   UNL     1      -4.562   9.253  69.688  0.00  0.00    -0.355 OA
ATOM     35  O   UNL     1      -7.744   7.346  68.851  0.00  0.00    -0.356 OA
ATOM     36  C   UNL     1      -9.139   6.878  69.209  0.00  0.00    +0.145 C 
ATOM     37  C   UNL     1      -9.854   7.823  67.951  0.00  0.00    +0.145 C 
ATOM     38  O   UNL     1     -10.826   9.775  66.608  0.00  0.00    -0.296 OA
ATOM     39  O   UNL     1      -9.580  15.479  66.432  0.00  0.00    -0.351 OA
ATOM     40  O   UNL     1     -10.677  13.584  67.926  0.00  0.00    -0.353 OA
ATOM     41  C   UNL     1      -9.957  15.898  67.924  0.00  0.00    +0.174 C 
ATOM     42  O   UNL     1      -8.663  14.877  67.881  0.00  0.00    -0.332 OA
ATOM     43  C   UNL     1      -7.829  16.507  66.330  0.00  0.00    +0.088 C 
ATOM     44  C   UNL     1      -4.547  12.750  70.232  0.00  0.00    +0.036 C 
ATOM     45  C   UNL     1      -4.799  15.775  71.271  0.00  0.00    +0.054 C 
ENDROOT
BRANCH  37  46
ATOM     46  O   UNL     1      -9.109   7.225  66.810  0.00  0.00    -0.351 OA
ATOM     47  C   UNL     1      -8.648   7.995  65.773  0.00  0.00    +0.174 C 
ENDBRANCH  37  46
BRANCH  36  48
ATOM     48  C   UNL     1      -9.050   5.510  68.299  0.00  0.00    +0.066 C 
BRANCH  48  49
ATOM     49  C   UNL     1      -9.594   4.530  69.513  0.00  0.00    +0.173 C 
ATOM     50  O   UNL     1      -8.214   4.415  70.146  0.00  0.00    -0.221 OA
BRANCH  49  51
ATOM     51  C   UNL     1      -9.464   3.139  68.640  0.00  0.00    +0.142 C 
ATOM     52  N   UNL     1      -9.427   3.421  67.294  0.00  0.00    -0.129 NA
ENDBRANCH  49  51
ENDBRANCH  48  49
ENDBRANCH  36  48
TORSDOF 4
ENDMDL
MODEL 9
REMARK VINA RESULT:      -7.2      2.897      8.351
REMARK  Name = 
REMARK  4 active torsions:
REMARK  status: ('A' for Active; 'I' for Inactive)
REMARK    1  A    between atoms: C_23  and  O_24
REMARK    2  A    between atoms: C_26  and  C_27
REMARK    3  A    between atoms: C_27  and  C_28
REMARK    4  A    between atoms: C_28  and  C_30
REMARK                            x       y       z     vdW  Elec       q    Type
REMARK                         _______ _______ _______ _____ _____    ______ ____
ROOT
ATOM      1  C   UNL     1      -3.498  15.120  71.157  0.00  0.00    -0.007 C 
ATOM      2  C   UNL     1      -4.263  15.198  71.267  0.00  0.00    -0.015 C 
ATOM      3  C   UNL     1      -5.243  13.926  71.542  0.00  0.00    +0.134 C 
ATOM      4  O   UNL     1      -6.381  14.441  70.659  0.00  0.00    -0.354 OA
ATOM      5  C   UNL     1      -5.477  14.966  69.567  0.00  0.00    +0.120 C 
ATOM      6  C   UNL     1      -6.698  15.879  68.952  0.00  0.00    +0.035 C 
ATOM      7  C   UNL     1      -7.158  14.903  67.892  0.00  0.00    +0.059 C 
ATOM      8  C   UNL     1      -8.593  15.266  67.606  0.00  0.00    +0.190 C 
ATOM      9  O   UNL     1      -8.872  16.471  68.049  0.00  0.00    -0.332 OA
ATOM     10  C   UNL     1     -10.323  16.644  67.703  0.00  0.00    +0.174 C 
ATOM     11  C   UNL     1     -10.119  16.375  66.059  0.00  0.00    +0.150 C 
ATOM     12  O   UNL     1     -11.286  15.517  65.975  0.00  0.00    -0.351 OA
ATOM     13  C   UNL     1     -11.599  14.636  67.111  0.00  0.00    +0.174 C 
ATOM     14  C   UNL     1      -9.929  13.827  66.961  0.00  0.00    +0.176 C 
ATOM     15  C   UNL     1     -10.440  12.400  67.557  0.00  0.00    +0.172 C 
ATOM     16  C   UNL     1     -11.696  13.344  66.889  0.00  0.00    +0.145 C 
ATOM     17  C   UNL     1     -11.225  12.219  65.829  0.00  0.00    +0.035 C 
ATOM     18  C   UNL     1     -11.687  11.270  67.009  0.00  0.00    +0.033 C 
ATOM     19  C   UNL     1     -10.698  11.353  68.362  0.00  0.00    +0.123 C 
ATOM     20  C   UNL     1     -11.766  10.676  69.381  0.00  0.00    +0.094 C 
ATOM     21  C   UNL     1     -10.822   9.508  69.509  0.00  0.00    +0.153 C 
ATOM     22  C   UNL     1      -9.829   9.562  70.567  0.00  0.00    +0.070 C 
ATOM     23  C   UNL     1      -8.658   8.678  69.904  0.00  0.00    +0.064 C 
ATOM     24  C   UNL     1      -7.799   8.561  71.365  0.00  0.00    +0.121 C 
ATOM     25  C   UNL     1      -6.572   9.453  70.742  0.00  0.00    +0.063 C 
ATOM     26  C   UNL     1      -5.248   8.549  71.160  0.00  0.00    +0.136 C 
ATOM     27  C   UNL     1      -5.309   8.938  72.743  0.00  0.00    -0.018 C 
ATOM     28  C   UNL     1      -5.623   7.907  73.522  0.00  0.00    -0.007 C 
ATOM     29  C   UNL     1      -3.849   9.506  73.065  0.00  0.00    +0.023 C 
ATOM     30  C   UNL     1      -4.165   9.767  74.650  0.00  0.00    +0.005 C 
ATOM     31  C   UNL     1      -4.509  10.926  72.614  0.00  0.00    +0.034 C 
ATOM     32  C   UNL     1      -3.877  10.833  71.091  0.00  0.00    +0.116 C 
ATOM     33  C   UNL     1      -5.181  11.659  70.471  0.00  0.00    +0.032 C 
ATOM     34  O   UNL     1      -4.294   9.518  70.642  0.00  0.00    -0.355 OA
ATOM     35  O   UNL     1      -7.320   7.222  70.826  0.00  0.00    -0.356 OA
ATOM     36  C   UNL     1      -8.589   6.757  71.510  0.00  0.00    +0.145 C 
ATOM     37  C   UNL     1      -9.575   7.286  70.193  0.00  0.00    +0.145 C 
ATOM     38  O   UNL     1     -10.941   8.743  68.591  0.00  0.00    -0.296 OA
ATOM     39  O   UNL     1     -10.398  14.285  66.826  0.00  0.00    -0.351 OA
ATOM     40  O   UNL     1     -11.052  12.764  68.896  0.00  0.00    -0.353 OA
ATOM     41  C   UNL     1     -10.611  15.047  68.212  0.00  0.00    +0.174 C 
ATOM     42  O   UNL     1      -9.226  14.151  68.210  0.00  0.00    -0.332 OA
ATOM     43  C   UNL     1      -8.807  15.383  66.193  0.00  0.00    +0.088 C 
ATOM     44  C   UNL     1      -4.608  13.027  70.306  0.00  0.00    +0.036 C 
ATOM     45  C   UNL     1      -5.060  16.189  70.602  0.00  0.00    +0.054 C 
ENDROOT
BRANCH  37  46
ATOM     46  O   UNL     1      -8.930   6.472  69.127  0.00  0.00    -0.351 OA
ATOM     47  C   UNL     1      -8.780   6.952  67.851  0.00  0.00    +0.174 C 
ENDBRANCH  37  46
BRANCH  36  48
ATOM     48  C   UNL     1      -8.469   5.211  70.959  0.00  0.00    +0.066 C 
BRANCH  48  49
ATOM     49  C   UNL     1      -8.602   4.543  72.466  0.00  0.00    +0.173 C 
ATOM     50  O   UNL     1      -8.175   3.165  71.979  0.00  0.00    -0.221 OA
BRANCH  49  51
ATOM     51  C   UNL     1     -10.217   4.242  72.344  0.00  0.00    +0.142 C 
ATOM     52  N   UNL     1     -10.878   4.723  73.452  0.00  0.00    -0.129 NA
ENDBRANCH  49  51
ENDBRANCH  48  49
ENDBRANCH  36  48
TORSDOF 4
ENDMDL
