MODEL 1
REMARK VINA RESULT:      -7.5      0.000      0.000
REMARK  Name = 
REMARK  7 active torsions:
REMARK  status: ('A' for Active; 'I' for Inactive)
REMARK    1  A    between atoms: N_7  and  C_8
REMARK    2  A    between atoms: C_11  and  O_12
REMARK    3  A    between atoms: O_12  and  C_13
REMARK    4  A    between atoms: C_13  and  C_14
REMARK    5  A    between atoms: C_17  and  C_18
REMARK    6  A    between atoms: C_17  and  C_24
REMARK    7  A    between atoms: C_18  and  N_19
REMARK                            x       y       z     vdW  Elec       q    Type
REMARK                         _______ _______ _______ _____ _____    ______ ____
ROOT
ATOM      1  C   UNL     1     -12.010  15.555  68.993  0.00  0.00    +0.191 C 
ATOM      2  O   UNL     1     -11.267  15.836  67.706  0.00  0.00    -0.325 OA
ATOM      3  C   UNL     1     -10.024  15.383  67.868  0.00  0.00    +0.230 C 
ATOM      4  O   UNL     1      -9.849  14.728  69.059  0.00  0.00    -0.327 OA
ATOM      5  C   UNL     1     -10.632  15.480  69.891  0.00  0.00    +0.178 C 
ENDROOT
BRANCH   3   6
ATOM      6  C   UNL     1      -9.743  14.375  66.794  0.00  0.00    +0.041 A 
ATOM      7  C   UNL     1     -10.355  14.439  65.558  0.00  0.00    +0.059 A 
ATOM      8 CL   UNL     1     -10.851  16.012  64.973  0.00  0.00    -0.082 Cl
ATOM      9  C   UNL     1     -10.500  13.309  64.769  0.00  0.00    +0.023 A 
ATOM     10  C   UNL     1     -10.054  12.109  65.306  0.00  0.00    +0.058 A 
ATOM     11 CL   UNL     1     -10.472  10.651  64.448  0.00  0.00    -0.082 Cl
ATOM     12  C   UNL     1      -9.051  12.169  66.259  0.00  0.00    +0.011 A 
ATOM     13  C   UNL     1      -8.823  13.347  66.959  0.00  0.00    +0.002 A 
ENDBRANCH   3   6
BRANCH   1  14
ATOM     14  C   UNL     1     -12.019  13.928  68.729  0.00  0.00    +0.237 C 
BRANCH  14  15
ATOM     15  O   UNL     1     -12.512  13.437  69.957  0.00  0.00    -0.473 OA
BRANCH  15  19
ATOM     16  C   UNL     1     -12.360   9.483  70.839  0.00  0.00    +0.048 A 
ATOM     17  C   UNL     1     -13.010  10.339  71.700  0.00  0.00    +0.018 A 
ATOM     18  C   UNL     1     -12.876  11.710  71.531  0.00  0.00    +0.038 A 
ATOM     19  C   UNL     1     -12.072  12.240  70.531  0.00  0.00    +0.139 A 
ATOM     20  C   UNL     1     -11.298  11.327  69.837  0.00  0.00    +0.038 A 
ATOM     21  C   UNL     1     -11.345   9.974  70.035  0.00  0.00    +0.018 A 
BRANCH  16  27
ATOM     22  C   UNL     1      -8.427   5.122  71.893  0.00  0.00    +0.095 C 
ATOM     23  C   UNL     1      -8.749   6.059  72.398  0.00  0.00    +0.226 C 
ATOM     24  N   UNL     1      -9.791   6.902  71.884  0.00  0.00    -0.276 N 
ATOM     25  C   UNL     1     -10.620   6.289  70.848  0.00  0.00    +0.115 C 
ATOM     26  C   UNL     1     -11.636   7.232  70.277  0.00  0.00    +0.112 C 
ATOM     27  N   UNL     1     -12.202   8.127  71.276  0.00  0.00    -0.304 N 
ATOM     28  C   UNL     1     -11.762   7.986  72.662  0.00  0.00    +0.112 C 
ATOM     29  C   UNL     1     -10.247   8.091  72.603  0.00  0.00    +0.115 C 
ATOM     30  O   UNL     1      -8.210   6.444  73.481  0.00  0.00    -0.275 OA
ENDBRANCH  16  27
ENDBRANCH  15  19
ENDBRANCH  14  15
ENDBRANCH   1  14
BRANCH   3  31
ATOM     31  C   UNL     1      -8.922  16.407  67.742  0.00  0.00    +0.168 C 
BRANCH  31  32
ATOM     32  N   UNL     1      -9.374  17.758  67.662  0.00  0.00    -0.302 N 
ATOM     33  C   UNL     1      -9.801  18.649  68.556  0.00  0.00    +0.179 A 
ATOM     34  N   UNL     1     -10.551  19.586  67.944  0.00  0.00    -0.222 NA
ATOM     35  C   UNL     1     -10.253  19.488  66.626  0.00  0.00    +0.119 A 
ATOM     36  C   UNL     1      -9.321  18.463  66.505  0.00  0.00    +0.098 A 
ENDBRANCH  31  32
ENDBRANCH   3  31
TORSDOF 7
ENDMDL
MODEL 2
REMARK VINA RESULT:      -7.4      2.437      3.690
REMARK  Name = 
REMARK  7 active torsions:
REMARK  status: ('A' for Active; 'I' for Inactive)
REMARK    1  A    between atoms: N_7  and  C_8
REMARK    2  A    between atoms: C_11  and  O_12
REMARK    3  A    between atoms: O_12  and  C_13
REMARK    4  A    between atoms: C_13  and  C_14
REMARK    5  A    between atoms: C_17  and  C_18
REMARK    6  A    between atoms: C_17  and  C_24
REMARK    7  A    between atoms: C_18  and  N_19
REMARK                            x       y       z     vdW  Elec       q    Type
REMARK                         _______ _______ _______ _____ _____    ______ ____
ROOT
ATOM      1  C   UNL     1     -12.143  13.619  68.151  0.00  0.00    +0.191 C 
ATOM      2  O   UNL     1     -11.264  12.848  67.193  0.00  0.00    -0.325 OA
ATOM      3  C   UNL     1     -10.168  13.579  66.996  0.00  0.00    +0.230 C 
ATOM      4  O   UNL     1     -10.130  14.702  67.782  0.00  0.00    -0.327 OA
ATOM      5  C   UNL     1     -11.449  15.066  67.783  0.00  0.00    +0.178 C 
ENDROOT
BRANCH   3   6
ATOM      6  C   UNL     1      -8.974  12.759  67.387  0.00  0.00    +0.041 A 
ATOM      7  C   UNL     1      -9.024  11.380  67.434  0.00  0.00    +0.059 A 
ATOM      8 CL   UNL     1     -10.156  10.567  66.377  0.00  0.00    -0.082 Cl
ATOM      9  C   UNL     1      -8.150  10.657  68.231  0.00  0.00    +0.023 A 
ATOM     10  C   UNL     1      -7.270  11.387  69.017  0.00  0.00    +0.058 A 
ATOM     11 CL   UNL     1      -6.360  10.510  70.216  0.00  0.00    -0.082 Cl
ATOM     12  C   UNL     1      -6.926  12.656  68.582  0.00  0.00    +0.011 A 
ATOM     13  C   UNL     1      -7.741  13.329  67.680  0.00  0.00    +0.002 A 
ENDBRANCH   3   6
BRANCH   1  14
ATOM     14  C   UNL     1     -11.123  13.364  69.421  0.00  0.00    +0.237 C 
BRANCH  14  15
ATOM     15  O   UNL     1     -11.995  12.820  70.389  0.00  0.00    -0.473 OA
BRANCH  15  19
ATOM     16  C   UNL     1     -11.675   8.987  71.674  0.00  0.00    +0.048 A 
ATOM     17  C   UNL     1     -11.016   9.369  70.527  0.00  0.00    +0.018 A 
ATOM     18  C   UNL     1     -11.296  10.602  69.955  0.00  0.00    +0.038 A 
ATOM     19  C   UNL     1     -12.253  11.449  70.496  0.00  0.00    +0.139 A 
ATOM     20  C   UNL     1     -13.011  10.917  71.525  0.00  0.00    +0.038 A 
ATOM     21  C   UNL     1     -12.815   9.673  72.058  0.00  0.00    +0.018 A 
BRANCH  16  27
ATOM     22  C   UNL     1      -8.481   3.957  71.383  0.00  0.00    +0.095 C 
ATOM     23  C   UNL     1      -8.471   4.885  71.995  0.00  0.00    +0.226 C 
ATOM     24  N   UNL     1      -9.440   5.933  71.835  0.00  0.00    -0.276 N 
ATOM     25  C   UNL     1     -10.621   5.561  71.060  0.00  0.00    +0.115 C 
ATOM     26  C   UNL     1     -11.563   6.707  70.842  0.00  0.00    +0.112 C 
ATOM     27  N   UNL     1     -11.655   7.591  71.995  0.00  0.00    -0.304 N 
ATOM     28  C   UNL     1     -10.883   7.256  73.189  0.00  0.00    +0.112 C 
ATOM     29  C   UNL     1      -9.451   7.112  72.700  0.00  0.00    +0.115 C 
ATOM     30  O   UNL     1      -7.592   5.078  72.891  0.00  0.00    -0.275 OA
ENDBRANCH  16  27
ENDBRANCH  15  19
ENDBRANCH  14  15
ENDBRANCH   1  14
BRANCH   3  31
ATOM     31  C   UNL     1      -9.899  14.007  65.574  0.00  0.00    +0.168 C 
BRANCH  31  32
ATOM     32  N   UNL     1     -10.872  13.563  64.628  0.00  0.00    -0.302 N 
ATOM     33  C   UNL     1     -12.068  14.008  64.248  0.00  0.00    +0.179 A 
ATOM     34  N   UNL     1     -12.777  13.003  63.699  0.00  0.00    -0.222 NA
ATOM     35  C   UNL     1     -11.869  12.046  63.386  0.00  0.00    +0.119 A 
ATOM     36  C   UNL     1     -10.627  12.533  63.781  0.00  0.00    +0.098 A 
ENDBRANCH  31  32
ENDBRANCH   3  31
TORSDOF 7
ENDMDL
MODEL 3
REMARK VINA RESULT:      -7.4      2.482      4.069
REMARK  Name = 
REMARK  7 active torsions:
REMARK  status: ('A' for Active; 'I' for Inactive)
REMARK    1  A    between atoms: N_7  and  C_8
REMARK    2  A    between atoms: C_11  and  O_12
REMARK    3  A    between atoms: O_12  and  C_13
REMARK    4  A    between atoms: C_13  and  C_14
REMARK    5  A    between atoms: C_17  and  C_18
REMARK    6  A    between atoms: C_17  and  C_24
REMARK    7  A    between atoms: C_18  and  N_19
REMARK                            x       y       z     vdW  Elec       q    Type
REMARK                         _______ _______ _______ _____ _____    ______ ____
ROOT
ATOM      1  C   UNL     1      -8.715  15.067  68.794  0.00  0.00    +0.191 C 
ATOM      2  O   UNL     1     -10.104  14.476  68.862  0.00  0.00    -0.325 OA
ATOM      3  C   UNL     1     -10.882  15.220  68.075  0.00  0.00    +0.230 C 
ATOM      4  O   UNL     1     -10.182  16.178  67.390  0.00  0.00    -0.327 OA
ATOM      5  C   UNL     1      -9.258  16.550  68.327  0.00  0.00    +0.178 C 
ENDROOT
BRANCH   3   6
ATOM      6  C   UNL     1     -11.495  14.329  67.035  0.00  0.00    +0.041 A 
ATOM      7  C   UNL     1     -11.592  12.963  67.213  0.00  0.00    +0.059 A 
ATOM      8 CL   UNL     1     -11.703  12.359  68.852  0.00  0.00    -0.082 Cl
ATOM      9  C   UNL     1     -11.681  12.103  66.130  0.00  0.00    +0.023 A 
ATOM     10  C   UNL     1     -11.608  12.676  64.868  0.00  0.00    +0.058 A 
ATOM     11 CL   UNL     1     -11.447  11.593  63.513  0.00  0.00    -0.082 Cl
ATOM     12  C   UNL     1     -12.006  13.997  64.742  0.00  0.00    +0.011 A 
ATOM     13  C   UNL     1     -12.039  14.825  65.857  0.00  0.00    +0.002 A 
ENDBRANCH   3   6
BRANCH   1  14
ATOM     14  C   UNL     1      -8.491  14.572  67.237  0.00  0.00    +0.237 C 
BRANCH  14  15
ATOM     15  O   UNL     1      -7.322  13.788  67.346  0.00  0.00    -0.473 OA
BRANCH  15  19
ATOM     16  C   UNL     1      -8.494  10.236  68.911  0.00  0.00    +0.048 A 
ATOM     17  C   UNL     1      -7.445  10.913  69.492  0.00  0.00    +0.018 A 
ATOM     18  C   UNL     1      -6.890  12.006  68.839  0.00  0.00    +0.038 A 
ATOM     19  C   UNL     1      -7.348  12.412  67.593  0.00  0.00    +0.139 A 
ATOM     20  C   UNL     1      -8.262  11.568  66.986  0.00  0.00    +0.038 A 
ATOM     21  C   UNL     1      -8.768  10.438  67.569  0.00  0.00    +0.018 A 
BRANCH  16  27
ATOM     22  C   UNL     1     -10.324   7.070  73.625  0.00  0.00    +0.095 C 
ATOM     23  C   UNL     1     -10.798   7.711  72.850  0.00  0.00    +0.226 C 
ATOM     24  N   UNL     1     -10.053   8.323  71.785  0.00  0.00    -0.276 N 
ATOM     25  C   UNL     1      -8.707   7.788  71.593  0.00  0.00    +0.115 C 
ATOM     26  C   UNL     1      -7.935   8.514  70.533  0.00  0.00    +0.112 C 
ATOM     27  N   UNL     1      -8.763   8.918  69.405  0.00  0.00    -0.304 N 
ATOM     28  C   UNL     1     -10.178   8.555  69.420  0.00  0.00    +0.112 C 
ATOM     29  C   UNL     1     -10.708   9.102  70.734  0.00  0.00    +0.115 C 
ATOM     30  O   UNL     1     -12.047   7.941  72.853  0.00  0.00    -0.275 OA
ENDBRANCH  16  27
ENDBRANCH  15  19
ENDBRANCH  14  15
ENDBRANCH   1  14
BRANCH   3  31
ATOM     31  C   UNL     1     -12.051  15.899  68.746  0.00  0.00    +0.168 C 
BRANCH  31  32
ATOM     32  N   UNL     1     -12.174  15.626  70.142  0.00  0.00    -0.302 N 
ATOM     33  C   UNL     1     -11.560  16.078  71.234  0.00  0.00    +0.179 A 
ATOM     34  N   UNL     1     -11.688  15.184  72.233  0.00  0.00    -0.222 NA
ATOM     35  C   UNL     1     -12.713  14.375  71.869  0.00  0.00    +0.119 A 
ATOM     36  C   UNL     1     -13.155  14.829  70.631  0.00  0.00    +0.098 A 
ENDBRANCH  31  32
ENDBRANCH   3  31
TORSDOF 7
ENDMDL
MODEL 4
REMARK VINA RESULT:      -7.2      2.479      9.377
REMARK  Name = 
REMARK  7 active torsions:
REMARK  status: ('A' for Active; 'I' for Inactive)
REMARK    1  A    between atoms: N_7  and  C_8
REMARK    2  A    between atoms: C_11  and  O_12
REMARK    3  A    between atoms: O_12  and  C_13
REMARK    4  A    between atoms: C_13  and  C_14
REMARK    5  A    between atoms: C_17  and  C_18
REMARK    6  A    between atoms: C_17  and  C_24
REMARK    7  A    between atoms: C_18  and  N_19
REMARK                            x       y       z     vdW  Elec       q    Type
REMARK                         _______ _______ _______ _____ _____    ______ ____
ROOT
ATOM      1  C   UNL     1     -11.818   8.408  72.182  0.00  0.00    +0.191 C 
ATOM      2  O   UNL     1     -10.547   7.803  71.630  0.00  0.00    -0.325 OA
ATOM      3  C   UNL     1     -10.909   6.795  70.836  0.00  0.00    +0.230 C 
ATOM      4  O   UNL     1     -12.268   6.701  70.685  0.00  0.00    -0.327 OA
ATOM      5  C   UNL     1     -12.697   7.037  71.940  0.00  0.00    +0.178 C 
ENDROOT
BRANCH   3   6
ATOM      6  C   UNL     1     -10.356   7.048  69.465  0.00  0.00    +0.041 A 
ATOM      7  C   UNL     1      -9.278   7.887  69.260  0.00  0.00    +0.059 A 
ATOM      8 CL   UNL     1      -8.120   8.062  70.561  0.00  0.00    -0.082 Cl
ATOM      9  C   UNL     1      -9.072   8.506  68.037  0.00  0.00    +0.023 A 
ATOM     10  C   UNL     1     -10.031   8.288  67.057  0.00  0.00    +0.058 A 
ATOM     11 CL   UNL     1      -9.932   9.267  65.619  0.00  0.00    -0.082 Cl
ATOM     12  C   UNL     1     -10.764   7.116  67.129  0.00  0.00    +0.011 A 
ATOM     13  C   UNL     1     -10.861   6.426  68.331  0.00  0.00    +0.002 A 
ENDBRANCH   3   6
BRANCH   1  14
ATOM     14  C   UNL     1     -12.251   9.037  70.721  0.00  0.00    +0.237 C 
BRANCH  14  15
ATOM     15  O   UNL     1     -11.654  10.315  70.767  0.00  0.00    -0.473 OA
BRANCH  15  19
ATOM     16  C   UNL     1     -11.478  13.765  68.644  0.00  0.00    +0.048 A 
ATOM     17  C   UNL     1     -11.932  13.798  69.944  0.00  0.00    +0.018 A 
ATOM     18  C   UNL     1     -12.211  12.607  70.601  0.00  0.00    +0.038 A 
ATOM     19  C   UNL     1     -12.074  11.381  69.965  0.00  0.00    +0.139 A 
ATOM     20  C   UNL     1     -11.808  11.437  68.608  0.00  0.00    +0.038 A 
ATOM     21  C   UNL     1     -11.609  12.597  67.912  0.00  0.00    +0.018 A 
BRANCH  16  27
ATOM     22  C   UNL     1      -8.615  18.712  66.936  0.00  0.00    +0.095 C 
ATOM     23  C   UNL     1      -8.604  17.636  66.657  0.00  0.00    +0.226 C 
ATOM     24  N   UNL     1      -9.480  16.669  67.255  0.00  0.00    -0.276 N 
ATOM     25  C   UNL     1     -10.600  17.236  68.003  0.00  0.00    +0.115 C 
ATOM     26  C   UNL     1     -11.436  16.195  68.684  0.00  0.00    +0.112 C 
ATOM     27  N   UNL     1     -11.584  14.982  67.893  0.00  0.00    -0.304 N 
ATOM     28  C   UNL     1     -10.959  14.933  66.574  0.00  0.00    +0.112 C 
ATOM     29  C   UNL     1      -9.499  15.272  66.821  0.00  0.00    +0.115 C 
ATOM     30  O   UNL     1      -7.808  17.190  65.774  0.00  0.00    -0.275 OA
ENDBRANCH  16  27
ENDBRANCH  15  19
ENDBRANCH  14  15
ENDBRANCH   1  14
BRANCH   3  31
ATOM     31  C   UNL     1     -10.395   5.429  71.219  0.00  0.00    +0.168 C 
BRANCH  31  32
ATOM     32  N   UNL     1      -9.839   5.351  72.532  0.00  0.00    -0.302 N 
ATOM     33  C   UNL     1     -10.354   5.196  73.750  0.00  0.00    +0.179 A 
ATOM     34  N   UNL     1      -9.492   5.663  74.674  0.00  0.00    -0.222 NA
ATOM     35  C   UNL     1      -8.292   5.739  74.047  0.00  0.00    +0.119 A 
ATOM     36  C   UNL     1      -8.500   5.310  72.740  0.00  0.00    +0.098 A 
ENDBRANCH  31  32
ENDBRANCH   3  31
TORSDOF 7
ENDMDL
MODEL 5
REMARK VINA RESULT:      -7.2      2.634      9.172
REMARK  Name = 
REMARK  7 active torsions:
REMARK  status: ('A' for Active; 'I' for Inactive)
REMARK    1  A    between atoms: N_7  and  C_8
REMARK    2  A    between atoms: C_11  and  O_12
REMARK    3  A    between atoms: O_12  and  C_13
REMARK    4  A    between atoms: C_13  and  C_14
REMARK    5  A    between atoms: C_17  and  C_18
REMARK    6  A    between atoms: C_17  and  C_24
REMARK    7  A    between atoms: C_18  and  N_19
REMARK                            x       y       z     vdW  Elec       q    Type
REMARK                         _______ _______ _______ _____ _____    ______ ____
ROOT
ATOM      1  C   UNL     1     -13.113   9.049  72.498  0.00  0.00    +0.191 C 
ATOM      2  O   UNL     1     -11.847   8.227  72.408  0.00  0.00    -0.325 OA
ATOM      3  C   UNL     1     -12.132   7.155  71.670  0.00  0.00    +0.230 C 
ATOM      4  O   UNL     1     -13.399   7.190  71.149  0.00  0.00    -0.327 OA
ATOM      5  C   UNL     1     -14.092   7.764  72.180  0.00  0.00    +0.178 C 
ENDROOT
BRANCH   3   6
ATOM      6  C   UNL     1     -11.201   7.126  70.494  0.00  0.00    +0.041 A 
ATOM      7  C   UNL     1     -10.147   8.011  70.381  0.00  0.00    +0.059 A 
ATOM      8 CL   UNL     1      -9.445   8.638  71.856  0.00  0.00    -0.082 Cl
ATOM      9  C   UNL     1      -9.607   8.329  69.144  0.00  0.00    +0.023 A 
ATOM     10  C   UNL     1     -10.214   7.764  68.032  0.00  0.00    +0.058 A 
ATOM     11 CL   UNL     1      -9.725   8.362  66.470  0.00  0.00    -0.082 Cl
ATOM     12  C   UNL     1     -10.885   6.566  68.210  0.00  0.00    +0.011 A 
ATOM     13  C   UNL     1     -11.313   6.187  69.476  0.00  0.00    +0.002 A 
ENDBRANCH   3   6
BRANCH   1  14
ATOM     14  C   UNL     1     -13.040   9.486  70.910  0.00  0.00    +0.237 C 
BRANCH  14  15
ATOM     15  O   UNL     1     -12.910  10.889  71.000  0.00  0.00    -0.473 OA
BRANCH  15  19
ATOM     16  C   UNL     1     -11.690  13.116  67.839  0.00  0.00    +0.048 A 
ATOM     17  C   UNL     1     -11.477  11.756  67.825  0.00  0.00    +0.018 A 
ATOM     18  C   UNL     1     -11.680  11.019  68.985  0.00  0.00    +0.038 A 
ATOM     19  C   UNL     1     -12.062  11.630  70.171  0.00  0.00    +0.139 A 
ATOM     20  C   UNL     1     -12.063  13.014  70.159  0.00  0.00    +0.038 A 
ATOM     21  C   UNL     1     -11.787  13.772  69.054  0.00  0.00    +0.018 A 
BRANCH  16  27
ATOM     22  C   UNL     1      -7.684  17.318  66.468  0.00  0.00    +0.095 C 
ATOM     23  C   UNL     1      -7.662  16.243  66.749  0.00  0.00    +0.226 C 
ATOM     24  N   UNL     1      -8.853  15.476  66.987  0.00  0.00    -0.276 N 
ATOM     25  C   UNL     1     -10.087  16.100  66.516  0.00  0.00    +0.115 C 
ATOM     26  C   UNL     1     -11.312  15.309  66.863  0.00  0.00    +0.112 C 
ATOM     27  N   UNL     1     -11.102  13.872  66.772  0.00  0.00    -0.304 N 
ATOM     28  C   UNL     1      -9.793  13.388  66.340  0.00  0.00    +0.112 C 
ATOM     29  C   UNL     1      -8.802  14.045  67.285  0.00  0.00    +0.115 C 
ATOM     30  O   UNL     1      -6.566  15.614  66.875  0.00  0.00    -0.275 OA
ENDBRANCH  16  27
ENDBRANCH  15  19
ENDBRANCH  14  15
ENDBRANCH   1  14
BRANCH   3  31
ATOM     31  C   UNL     1     -11.951   5.816  72.344  0.00  0.00    +0.168 C 
BRANCH  31  32
ATOM     32  N   UNL     1     -10.731   5.679  73.073  0.00  0.00    -0.302 N 
ATOM     33  C   UNL     1     -10.311   6.095  74.266  0.00  0.00    +0.179 A 
ATOM     34  N   UNL     1      -8.964   6.131  74.290  0.00  0.00    -0.222 NA
ATOM     35  C   UNL     1      -8.561   5.362  73.248  0.00  0.00    +0.119 A 
ATOM     36  C   UNL     1      -9.716   4.898  72.628  0.00  0.00    +0.098 A 
ENDBRANCH  31  32
ENDBRANCH   3  31
TORSDOF 7
ENDMDL
MODEL 6
REMARK VINA RESULT:      -7.0      1.950      3.041
REMARK  Name = 
REMARK  7 active torsions:
REMARK  status: ('A' for Active; 'I' for Inactive)
REMARK    1  A    between atoms: N_7  and  C_8
REMARK    2  A    between atoms: C_11  and  O_12
REMARK    3  A    between atoms: O_12  and  C_13
REMARK    4  A    between atoms: C_13  and  C_14
REMARK    5  A    between atoms: C_17  and  C_18
REMARK    6  A    between atoms: C_17  and  C_24
REMARK    7  A    between atoms: C_18  and  N_19
REMARK                            x       y       z     vdW  Elec       q    Type
REMARK                         _______ _______ _______ _____ _____    ______ ____
ROOT
ATOM      1  C   UNL     1      -7.615  14.802  69.057  0.00  0.00    +0.191 C 
ATOM      2  O   UNL     1      -9.105  15.047  69.116  0.00  0.00    -0.325 OA
ATOM      3  C   UNL     1      -9.365  16.065  68.295  0.00  0.00    +0.230 C 
ATOM      4  O   UNL     1      -8.261  16.478  67.596  0.00  0.00    -0.327 OA
ATOM      5  C   UNL     1      -7.281  16.329  68.539  0.00  0.00    +0.178 C 
ENDROOT
BRANCH   3   6
ATOM      6  C   UNL     1     -10.359  15.606  67.269  0.00  0.00    +0.041 A 
ATOM      7  C   UNL     1     -11.524  14.957  67.626  0.00  0.00    +0.059 A 
ATOM      8 CL   UNL     1     -12.205  15.308  69.199  0.00  0.00    -0.082 Cl
ATOM      9  C   UNL     1     -12.180  14.119  66.738  0.00  0.00    +0.023 A 
ATOM     10  C   UNL     1     -11.577  13.920  65.504  0.00  0.00    +0.058 A 
ATOM     11 CL   UNL     1     -12.240  12.669  64.489  0.00  0.00    -0.082 Cl
ATOM     12  C   UNL     1     -10.745  14.921  65.030  0.00  0.00    +0.011 A 
ATOM     13  C   UNL     1     -10.191  15.842  65.911  0.00  0.00    +0.002 A 
ENDBRANCH   3   6
BRANCH   1  14
ATOM     14  C   UNL     1      -7.690  14.213  67.518  0.00  0.00    +0.237 C 
BRANCH  14  15
ATOM     15  O   UNL     1      -7.222  12.892  67.690  0.00  0.00    -0.473 OA
BRANCH  15  19
ATOM     16  C   UNL     1      -9.935  10.263  69.162  0.00  0.00    +0.048 A 
ATOM     17  C   UNL     1      -8.593   9.975  69.270  0.00  0.00    +0.018 A 
ATOM     18  C   UNL     1      -7.670  10.746  68.576  0.00  0.00    +0.038 A 
ATOM     19  C   UNL     1      -8.073  11.784  67.747  0.00  0.00    +0.139 A 
ATOM     20  C   UNL     1      -9.436  11.885  67.533  0.00  0.00    +0.038 A 
ATOM     21  C   UNL     1     -10.369  11.088  68.138  0.00  0.00    +0.018 A 
BRANCH  16  27
ATOM     22  C   UNL     1     -10.616   5.346  72.471  0.00  0.00    +0.095 C 
ATOM     23  C   UNL     1     -10.569   6.442  72.653  0.00  0.00    +0.226 C 
ATOM     24  N   UNL     1     -10.431   7.402  71.594  0.00  0.00    -0.276 N 
ATOM     25  C   UNL     1     -10.687   6.877  70.255  0.00  0.00    +0.115 C 
ATOM     26  C   UNL     1     -10.445   7.887  69.174  0.00  0.00    +0.112 C 
ATOM     27  N   UNL     1     -10.850   9.232  69.556  0.00  0.00    -0.304 N 
ATOM     28  C   UNL     1     -11.450   9.428  70.874  0.00  0.00    +0.112 C 
ATOM     29  C   UNL     1     -10.446   8.841  71.851  0.00  0.00    +0.115 C 
ATOM     30  O   UNL     1     -10.643   6.921  73.827  0.00  0.00    -0.275 OA
ENDBRANCH  16  27
ENDBRANCH  15  19
ENDBRANCH  14  15
ENDBRANCH   1  14
BRANCH   3  31
ATOM     31  C   UNL     1      -9.990  17.286  68.925  0.00  0.00    +0.168 C 
BRANCH  31  32
ATOM     32  N   UNL     1      -9.889  18.475  68.142  0.00  0.00    -0.302 N 
ATOM     33  C   UNL     1     -10.618  19.005  67.161  0.00  0.00    +0.179 A 
ATOM     34  N   UNL     1      -9.864  19.859  66.442  0.00  0.00    -0.222 NA
ATOM     35  C   UNL     1      -8.794  20.147  67.223  0.00  0.00    +0.119 A 
ATOM     36  C   UNL     1      -8.957  19.425  68.401  0.00  0.00    +0.098 A 
ENDBRANCH  31  32
ENDBRANCH   3  31
TORSDOF 7
ENDMDL
MODEL 7
REMARK VINA RESULT:      -7.0      2.639      8.816
REMARK  Name = 
REMARK  7 active torsions:
REMARK  status: ('A' for Active; 'I' for Inactive)
REMARK    1  A    between atoms: N_7  and  C_8
REMARK    2  A    between atoms: C_11  and  O_12
REMARK    3  A    between atoms: O_12  and  C_13
REMARK    4  A    between atoms: C_13  and  C_14
REMARK    5  A    between atoms: C_17  and  C_18
REMARK    6  A    between atoms: C_17  and  C_24
REMARK    7  A    between atoms: C_18  and  N_19
REMARK                            x       y       z     vdW  Elec       q    Type
REMARK                         _______ _______ _______ _____ _____    ______ ____
ROOT
ATOM      1  C   UNL     1     -11.085  11.851  69.867  0.00  0.00    +0.191 C 
ATOM      2  O   UNL     1     -10.173  11.701  68.671  0.00  0.00    -0.325 OA
ATOM      3  C   UNL     1     -10.919  11.235  67.670  0.00  0.00    +0.230 C 
ATOM      4  O   UNL     1     -12.249  11.149  67.993  0.00  0.00    -0.327 OA
ATOM      5  C   UNL     1     -12.177  10.755  69.301  0.00  0.00    +0.178 C 
ENDROOT
BRANCH   3   6
ATOM      6  C   UNL     1     -10.832  12.198  66.523  0.00  0.00    +0.041 A 
ATOM      7  C   UNL     1      -9.713  12.982  66.316  0.00  0.00    +0.059 A 
ATOM      8 CL   UNL     1      -8.173  12.371  66.878  0.00  0.00    -0.082 Cl
ATOM      9  C   UNL     1      -9.792  14.174  65.614  0.00  0.00    +0.023 A 
ATOM     10  C   UNL     1     -11.053  14.565  65.185  0.00  0.00    +0.058 A 
ATOM     11 CL   UNL     1     -11.209  16.178  64.545  0.00  0.00    -0.082 Cl
ATOM     12  C   UNL     1     -11.994  13.572  64.976  0.00  0.00    +0.011 A 
ATOM     13  C   UNL     1     -11.844  12.330  65.581  0.00  0.00    +0.002 A 
ENDBRANCH   3   6
BRANCH   1  14
ATOM     14  C   UNL     1     -11.894  13.121  69.196  0.00  0.00    +0.237 C 
BRANCH  14  15
ATOM     15  O   UNL     1     -11.204  14.225  69.741  0.00  0.00    -0.473 OA
BRANCH  15  19
ATOM     16  C   UNL     1      -9.415  17.703  68.671  0.00  0.00    +0.048 A 
ATOM     17  C   UNL     1     -10.717  17.471  68.287  0.00  0.00    +0.018 A 
ATOM     18  C   UNL     1     -11.262  16.204  68.448  0.00  0.00    +0.038 A 
ATOM     19  C   UNL     1     -10.512  15.154  68.957  0.00  0.00    +0.139 A 
ATOM     20  C   UNL     1      -9.163  15.410  69.132  0.00  0.00    +0.038 A 
ATOM     21  C   UNL     1      -8.577  16.625  68.904  0.00  0.00    +0.018 A 
BRANCH  16  27
ATOM     22  C   UNL     1      -4.802  19.729  65.476  0.00  0.00    +0.095 C 
ATOM     23  C   UNL     1      -5.763  19.212  65.267  0.00  0.00    +0.226 C 
ATOM     24  N   UNL     1      -6.710  18.884  66.296  0.00  0.00    -0.276 N 
ATOM     25  C   UNL     1      -6.486  19.559  67.572  0.00  0.00    +0.115 C 
ATOM     26  C   UNL     1      -7.441  19.121  68.641  0.00  0.00    +0.112 C 
ATOM     27  N   UNL     1      -8.783  18.872  68.135  0.00  0.00    -0.304 N 
ATOM     28  C   UNL     1      -9.042  19.102  66.715  0.00  0.00    +0.112 C 
ATOM     29  C   UNL     1      -8.001  18.269  65.989  0.00  0.00    +0.115 C 
ATOM     30  O   UNL     1      -6.093  18.880  64.087  0.00  0.00    -0.275 OA
ENDBRANCH  16  27
ENDBRANCH  15  19
ENDBRANCH  14  15
ENDBRANCH   1  14
BRANCH   3  31
ATOM     31  C   UNL     1     -10.502   9.903  67.094  0.00  0.00    +0.168 C 
BRANCH  31  32
ATOM     32  N   UNL     1      -9.596   9.162  67.910  0.00  0.00    -0.302 N 
ATOM     33  C   UNL     1      -9.738   8.364  68.967  0.00  0.00    +0.179 A 
ATOM     34  N   UNL     1      -8.580   8.303  69.653  0.00  0.00    -0.222 NA
ATOM     35  C   UNL     1      -7.627   8.745  68.797  0.00  0.00    +0.119 A 
ATOM     36  C   UNL     1      -8.277   9.067  67.610  0.00  0.00    +0.098 A 
ENDBRANCH  31  32
ENDBRANCH   3  31
TORSDOF 7
ENDMDL
MODEL 8
REMARK VINA RESULT:      -7.0      2.135      3.380
REMARK  Name = 
REMARK  7 active torsions:
REMARK  status: ('A' for Active; 'I' for Inactive)
REMARK    1  A    between atoms: N_7  and  C_8
REMARK    2  A    between atoms: C_11  and  O_12
REMARK    3  A    between atoms: O_12  and  C_13
REMARK    4  A    between atoms: C_13  and  C_14
REMARK    5  A    between atoms: C_17  and  C_18
REMARK    6  A    between atoms: C_17  and  C_24
REMARK    7  A    between atoms: C_18  and  N_19
REMARK                            x       y       z     vdW  Elec       q    Type
REMARK                         _______ _______ _______ _____ _____    ______ ____
ROOT
ATOM      1  C   UNL     1     -10.551  13.646  65.316  0.00  0.00    +0.191 C 
ATOM      2  O   UNL     1      -9.659  14.199  66.404  0.00  0.00    -0.325 OA
ATOM      3  C   UNL     1     -10.049  15.455  66.625  0.00  0.00    +0.230 C 
ATOM      4  O   UNL     1     -11.165  15.798  65.907  0.00  0.00    -0.327 OA
ATOM      5  C   UNL     1     -10.937  15.137  64.732  0.00  0.00    +0.178 C 
ENDROOT
BRANCH   3   6
ATOM      6  C   UNL     1     -10.427  15.587  68.070  0.00  0.00    +0.041 A 
ATOM      7  C   UNL     1      -9.643  15.060  69.078  0.00  0.00    +0.059 A 
ATOM      8 CL   UNL     1      -7.925  14.910  68.781  0.00  0.00    -0.082 Cl
ATOM      9  C   UNL     1     -10.183  14.737  70.313  0.00  0.00    +0.023 A 
ATOM     10  C   UNL     1     -11.551  14.914  70.463  0.00  0.00    +0.058 A 
ATOM     11 CL   UNL     1     -12.282  14.263  71.905  0.00  0.00    -0.082 Cl
ATOM     12  C   UNL     1     -12.166  15.862  69.662  0.00  0.00    +0.011 A 
ATOM     13  C   UNL     1     -11.557  16.280  68.485  0.00  0.00    +0.002 A 
ENDBRANCH   3   6
BRANCH   1  14
ATOM     14  C   UNL     1     -11.871  13.607  66.305  0.00  0.00    +0.237 C 
BRANCH  14  15
ATOM     15  O   UNL     1     -11.843  12.275  66.773  0.00  0.00    -0.473 OA
BRANCH  15  19
ATOM     16  C   UNL     1     -10.873   9.982  69.972  0.00  0.00    +0.048 A 
ATOM     17  C   UNL     1     -11.938  10.848  70.065  0.00  0.00    +0.018 A 
ATOM     18  C   UNL     1     -12.140  11.795  69.069  0.00  0.00    +0.038 A 
ATOM     19  C   UNL     1     -11.269  11.908  67.994  0.00  0.00    +0.139 A 
ATOM     20  C   UNL     1     -10.118  11.143  68.071  0.00  0.00    +0.038 A 
ATOM     21  C   UNL     1      -9.850  10.261  69.081  0.00  0.00    +0.018 A 
BRANCH  16  27
ATOM     22  C   UNL     1     -11.276   4.918  73.101  0.00  0.00    +0.095 C 
ATOM     23  C   UNL     1     -10.725   5.270  72.202  0.00  0.00    +0.226 C 
ATOM     24  N   UNL     1     -10.820   6.615  71.707  0.00  0.00    -0.276 N 
ATOM     25  C   UNL     1     -11.419   7.568  72.638  0.00  0.00    +0.115 C 
ATOM     26  C   UNL     1     -11.581   8.937  72.049  0.00  0.00    +0.112 C 
ATOM     27  N   UNL     1     -10.478   9.313  71.177  0.00  0.00    -0.304 N 
ATOM     28  C   UNL     1      -9.374   8.371  71.011  0.00  0.00    +0.112 C 
ATOM     29  C   UNL     1     -10.029   7.075  70.566  0.00  0.00    +0.115 C 
ATOM     30  O   UNL     1      -9.959   4.495  71.550  0.00  0.00    -0.275 OA
ENDBRANCH  16  27
ENDBRANCH  15  19
ENDBRANCH  14  15
ENDBRANCH   1  14
BRANCH   3  31
ATOM     31  C   UNL     1      -9.009  16.524  66.394  0.00  0.00    +0.168 C 
BRANCH  31  32
ATOM     32  N   UNL     1      -9.392  17.828  66.831  0.00  0.00    -0.302 N 
ATOM     33  C   UNL     1      -9.029  18.612  67.845  0.00  0.00    +0.179 A 
ATOM     34  N   UNL     1     -10.000  19.510  68.098  0.00  0.00    -0.222 NA
ATOM     35  C   UNL     1     -10.778  19.529  66.989  0.00  0.00    +0.119 A 
ATOM     36  C   UNL     1     -10.227  18.610  66.102  0.00  0.00    +0.098 A 
ENDBRANCH  31  32
ENDBRANCH   3  31
TORSDOF 7
ENDMDL
MODEL 9
REMARK VINA RESULT:      -6.9      3.190      9.187
REMARK  Name = 
REMARK  7 active torsions:
REMARK  status: ('A' for Active; 'I' for Inactive)
REMARK    1  A    between atoms: N_7  and  C_8
REMARK    2  A    between atoms: C_11  and  O_12
REMARK    3  A    between atoms: O_12  and  C_13
REMARK    4  A    between atoms: C_13  and  C_14
REMARK    5  A    between atoms: C_17  and  C_18
REMARK    6  A    between atoms: C_17  and  C_24
REMARK    7  A    between atoms: C_18  and  N_19
REMARK                            x       y       z     vdW  Elec       q    Type
REMARK                         _______ _______ _______ _____ _____    ______ ____
ROOT
ATOM      1  C   UNL     1     -10.282   9.483  67.187  0.00  0.00    +0.191 C 
ATOM      2  O   UNL     1     -10.423   8.222  68.008  0.00  0.00    -0.325 OA
ATOM      3  C   UNL     1      -9.783   8.434  69.158  0.00  0.00    +0.230 C 
ATOM      4  O   UNL     1      -9.315   9.717  69.277  0.00  0.00    -0.327 OA
ATOM      5  C   UNL     1      -8.932   9.978  67.990  0.00  0.00    +0.178 C 
ENDROOT
BRANCH   3   6
ATOM      6  C   UNL     1     -10.754   8.239  70.285  0.00  0.00    +0.041 A 
ATOM      7  C   UNL     1     -11.460   7.063  70.441  0.00  0.00    +0.059 A 
ATOM      8 CL   UNL     1     -10.735   5.589  69.837  0.00  0.00    -0.082 Cl
ATOM      9  C   UNL     1     -12.665   7.034  71.125  0.00  0.00    +0.023 A 
ATOM     10  C   UNL     1     -13.150   8.249  71.590  0.00  0.00    +0.058 A 
ATOM     11 CL   UNL     1     -14.779   8.270  72.208  0.00  0.00    -0.082 Cl
ATOM     12  C   UNL     1     -12.228   9.249  71.847  0.00  0.00    +0.011 A 
ATOM     13  C   UNL     1     -10.970   9.206  71.259  0.00  0.00    +0.002 A 
ENDBRANCH   3   6
BRANCH   1  14
ATOM     14  C   UNL     1     -11.282  10.340  68.179  0.00  0.00    +0.237 C 
BRANCH  14  15
ATOM     15  O   UNL     1     -11.763  11.343  67.311  0.00  0.00    -0.473 OA
BRANCH  15  19
ATOM     16  C   UNL     1     -10.005  14.690  68.777  0.00  0.00    +0.048 A 
ATOM     17  C   UNL     1     -11.239  14.314  69.257  0.00  0.00    +0.018 A 
ATOM     18  C   UNL     1     -11.949  13.310  68.610  0.00  0.00    +0.038 A 
ATOM     19  C   UNL     1     -11.454  12.698  67.467  0.00  0.00    +0.139 A 
ATOM     20  C   UNL     1     -10.309  13.263  66.932  0.00  0.00    +0.038 A 
ATOM     21  C   UNL     1      -9.631  14.307  67.500  0.00  0.00    +0.018 A 
BRANCH  16  27
ATOM     22  C   UNL     1      -8.104  20.059  67.002  0.00  0.00    +0.095 C 
ATOM     23  C   UNL     1      -9.083  19.543  67.107  0.00  0.00    +0.226 C 
ATOM     24  N   UNL     1      -9.209  18.208  67.622  0.00  0.00    -0.276 N 
ATOM     25  C   UNL     1      -8.019  17.700  68.300  0.00  0.00    +0.115 C 
ATOM     26  C   UNL     1      -8.163  16.274  68.741  0.00  0.00    +0.112 C 
ATOM     27  N   UNL     1      -9.503  15.959  69.214  0.00  0.00    -0.304 N 
ATOM     28  C   UNL     1     -10.499  17.028  69.235  0.00  0.00    +0.112 C 
ATOM     29  C   UNL     1     -10.513  17.578  67.819  0.00  0.00    +0.115 C 
ATOM     30  O   UNL     1     -10.169  20.114  66.780  0.00  0.00    -0.275 OA
ENDBRANCH  16  27
ENDBRANCH  15  19
ENDBRANCH  14  15
ENDBRANCH   1  14
BRANCH   3  31
ATOM     31  C   UNL     1      -8.638   7.499  69.464  0.00  0.00    +0.168 C 
BRANCH  31  32
ATOM     32  N   UNL     1      -7.749   7.963  70.480  0.00  0.00    -0.302 N 
ATOM     33  C   UNL     1      -7.778   7.960  71.812  0.00  0.00    +0.179 A 
ATOM     34  N   UNL     1      -6.964   8.921  72.288  0.00  0.00    -0.222 NA
ATOM     35  C   UNL     1      -6.141   9.245  71.261  0.00  0.00    +0.119 A 
ATOM     36  C   UNL     1      -6.517   8.447  70.185  0.00  0.00    +0.098 A 
ENDBRANCH  31  32
ENDBRANCH   3  31
TORSDOF 7
ENDMDL
