MODEL 1
REMARK VINA RESULT:      -7.1      0.000      0.000
REMARK  Name = 
REMARK  26 active torsions:
REMARK  status: ('A' for Active; 'I' for Inactive)
REMARK    1  A    between atoms: O_2  and  C_3
REMARK    2  A    between atoms: C_6  and  C_7
REMARK    3  A    between atoms: C_7  and  C_8
REMARK    4  A    between atoms: C_11  and  O_12
REMARK    5  A    between atoms: C_14  and  O_15
REMARK    6  A    between atoms: N_21  and  C_23
REMARK    7  A    between atoms: C_23  and  C_24
REMARK    8  A    between atoms: C_24  and  C_25
REMARK    9  A    between atoms: C_25  and  O_27
REMARK   10  A    between atoms: O_27  and  C_28
REMARK   11  A    between atoms: C_28  and  C_29
REMARK   12  A    between atoms: C_29  and  C_30
REMARK   13  A    between atoms: C_30  and  C_31
REMARK   14  A    between atoms: C_31  and  C_32
REMARK   15  A    between atoms: C_32  and  O_33
REMARK   16  A    between atoms: O_33  and  C_34
REMARK   17  A    between atoms: C_34  and  C_36
REMARK   18  A    between atoms: C_36  and  C_37
REMARK   19  A    between atoms: C_37  and  N_38
REMARK   20  A    between atoms: C_44  and  O_45
REMARK   21  A    between atoms: C_47  and  O_48
REMARK   22  A    between atoms: C_52  and  C_53
REMARK   23  A    between atoms: C_53  and  C_54
REMARK   24  A    between atoms: C_57  and  O_58
REMARK   25  A    between atoms: C_60  and  O_61
REMARK   26  A    between atoms: C_65  and  O_66
REMARK                            x       y       z     vdW  Elec       q    Type
REMARK                         _______ _______ _______ _____ _____    ______ ____
ROOT
ATOM      1  C   UNL     1     -10.693  11.803  63.352  0.00  0.00    +0.008 C 
ENDROOT
BRANCH   1   2
ATOM      2  C   UNL     1     -10.095  11.539  64.711  0.00  0.00    +0.048 C 
BRANCH   2   3
ATOM      3  C   UNL     1      -9.392  10.188  64.635  0.00  0.00    +0.208 C 
BRANCH   3   4
ATOM      4  O   UNL     1     -10.097   9.327  65.526  0.00  0.00    -0.448 OA
BRANCH   4   5
ATOM      5  C   UNL     1      -9.464   8.292  66.219  0.00  0.00    +0.323 C 
ATOM      6  O   UNL     1      -8.687   7.590  65.515  0.00  0.00    -0.250 OA
BRANCH   5   7
ATOM      7  C   UNL     1      -9.403   8.336  67.713  0.00  0.00    +0.170 C 
BRANCH   7   8
ATOM      8  C   UNL     1     -10.487   7.538  68.334  0.00  0.00    +0.121 C 
BRANCH   8   9
ATOM      9  N   UNL     1     -10.200   6.979  69.630  0.00  0.00    +0.301 N 
ATOM     10  C   UNL     1     -10.224   8.334  70.492  0.00  0.00    +0.086 C 
ATOM     11  C   UNL     1      -9.556   7.601  71.797  0.00  0.00    +0.027 A 
ATOM     12  C   UNL     1     -10.081   6.430  72.181  0.00  0.00    -0.012 A 
ATOM     13  C   UNL     1      -9.527   5.862  73.324  0.00  0.00    +0.036 A 
ATOM     14  C   UNL     1      -8.656   6.594  74.118  0.00  0.00    +0.172 A 
ATOM     15  C   UNL     1      -8.317   7.896  73.769  0.00  0.00    +0.172 A 
ATOM     16  C   UNL     1     -11.281   5.858  71.546  0.00  0.00    +0.087 C 
ATOM     17  C   UNL     1      -8.848   8.453  72.612  0.00  0.00    +0.041 A 
ATOM     18  C   UNL     1     -11.178   6.111  70.081  0.00  0.00    +0.114 C 
ATOM     19  C   UNL     1      -8.845   6.509  69.740  0.00  0.00    +0.171 C 
BRANCH  14  20
ATOM     20  O   UNL     1      -7.818   5.939  75.027  0.00  0.00    -0.468 OA
ATOM     21  C   UNL     1      -8.300   5.540  76.286  0.00  0.00    +0.253 C 
ENDBRANCH  14  20
BRANCH  15  22
ATOM     22  O   UNL     1      -7.853   8.748  74.764  0.00  0.00    -0.468 OA
ATOM     23  C   UNL     1      -6.448   8.942  74.877  0.00  0.00    +0.253 C 
ENDBRANCH  15  22
BRANCH  10  24
ATOM     24  C   UNL     1     -11.793   8.118  71.053  0.00  0.00    +0.086 C 
BRANCH  24  25
ATOM     25  C   UNL     1     -12.294   9.518  70.866  0.00  0.00    -0.013 A 
ATOM     26  C   UNL     1     -11.678  10.291  69.909  0.00  0.00    +0.036 A 
ATOM     27  C   UNL     1     -11.700  11.665  70.005  0.00  0.00    +0.172 A 
ATOM     28  C   UNL     1     -12.564  12.286  70.889  0.00  0.00    +0.172 A 
ATOM     29  C   UNL     1     -13.179  11.547  71.886  0.00  0.00    +0.040 A 
ATOM     30  C   UNL     1     -13.026  10.186  71.813  0.00  0.00    -0.001 A 
BRANCH  28  31
ATOM     31  O   UNL     1     -12.469  13.654  71.106  0.00  0.00    -0.468 OA
ATOM     32  C   UNL     1     -13.207  14.265  72.129  0.00  0.00    +0.253 C 
ENDBRANCH  28  31
BRANCH  27  33
ATOM     33  O   UNL     1     -10.840  12.479  69.288  0.00  0.00    -0.468 OA
ATOM     34  C   UNL     1      -9.973  11.938  68.330  0.00  0.00    +0.253 C 
ENDBRANCH  27  33
ENDBRANCH  24  25
ENDBRANCH  10  24
ENDBRANCH   8   9
ENDBRANCH   7   8
ENDBRANCH   5   7
ENDBRANCH   4   5
ENDBRANCH   3   4
ENDBRANCH   2   3
ENDBRANCH   1   2
BRANCH   1  35
ATOM     35  C   UNL     1     -12.114  12.262  63.564  0.00  0.00    +0.048 C 
BRANCH  35  36
ATOM     36  C   UNL     1     -12.362  12.749  64.975  0.00  0.00    +0.208 C 
BRANCH  36  37
ATOM     37  O   UNL     1     -12.744  14.102  64.986  0.00  0.00    -0.448 OA
BRANCH  37  38
ATOM     38  C   UNL     1     -11.876  15.143  64.642  0.00  0.00    +0.323 C 
ATOM     39  O   UNL     1     -12.282  15.967  63.797  0.00  0.00    -0.250 OA
BRANCH  38  40
ATOM     40  C   UNL     1     -10.596  15.331  65.390  0.00  0.00    +0.170 C 
BRANCH  40  41
ATOM     41  C   UNL     1     -10.814  15.650  66.842  0.00  0.00    +0.121 C 
BRANCH  41  43
ATOM     42  C   UNL     1      -8.590  16.365  67.002  0.00  0.00    +0.086 C 
ATOM     43  N   UNL     1     -10.099  16.896  67.122  0.00  0.00    +0.301 N 
ATOM     44  C   UNL     1     -10.310  17.775  66.046  0.00  0.00    +0.171 C 
ATOM     45  C   UNL     1     -10.340  17.268  68.432  0.00  0.00    +0.114 C 
ATOM     46  C   UNL     1      -9.983  18.733  68.596  0.00  0.00    +0.087 C 
ATOM     47  C   UNL     1      -8.670  18.787  67.875  0.00  0.00    -0.012 A 
ATOM     48  C   UNL     1      -7.979  19.962  68.169  0.00  0.00    +0.036 A 
ATOM     49  C   UNL     1      -6.666  20.115  67.752  0.00  0.00    +0.172 A 
ATOM     50  C   UNL     1      -6.235  19.202  66.801  0.00  0.00    +0.172 A 
ATOM     51  C   UNL     1      -6.785  17.947  66.877  0.00  0.00    +0.041 A 
ATOM     52  C   UNL     1      -7.902  17.693  67.684  0.00  0.00    +0.027 A 
BRANCH  50  53
ATOM     53  O   UNL     1      -5.209  19.560  65.943  0.00  0.00    -0.468 OA
ATOM     54  C   UNL     1      -3.878  19.159  66.177  0.00  0.00    +0.253 C 
ENDBRANCH  50  53
BRANCH  49  55
ATOM     55  O   UNL     1      -5.810  21.088  68.257  0.00  0.00    -0.468 OA
ATOM     56  C   UNL     1      -5.099  20.726  69.439  0.00  0.00    +0.253 C 
ENDBRANCH  49  55
BRANCH  42  57
ATOM     57  C   UNL     1      -8.724  15.527  68.447  0.00  0.00    +0.086 C 
BRANCH  57  61
ATOM     58  C   UNL     1      -5.256  13.322  69.081  0.00  0.00    +0.172 A 
ATOM     59  C   UNL     1      -5.789  13.384  67.800  0.00  0.00    +0.172 A 
ATOM     60  C   UNL     1      -6.837  14.278  67.618  0.00  0.00    +0.036 A 
ATOM     61  C   UNL     1      -7.453  14.887  68.711  0.00  0.00    -0.013 A 
ATOM     62  C   UNL     1      -6.548  15.237  69.706  0.00  0.00    -0.001 A 
ATOM     63  C   UNL     1      -5.413  14.451  69.876  0.00  0.00    +0.040 A 
BRANCH  58  65
ATOM     64  C   UNL     1      -5.013  11.132  70.172  0.00  0.00    +0.253 C 
ATOM     65  O   UNL     1      -4.522  12.220  69.449  0.00  0.00    -0.468 OA
ENDBRANCH  58  65
BRANCH  59  66
ATOM     66  O   UNL     1      -5.569  12.329  66.908  0.00  0.00    -0.468 OA
ATOM     67  C   UNL     1      -6.653  11.417  66.742  0.00  0.00    +0.253 C 
ENDBRANCH  59  66
ENDBRANCH  57  61
ENDBRANCH  42  57
ENDBRANCH  41  43
ENDBRANCH  40  41
ENDBRANCH  38  40
ENDBRANCH  37  38
ENDBRANCH  36  37
ENDBRANCH  35  36
ENDBRANCH   1  35
TORSDOF 26
ENDMDL
MODEL 2
REMARK VINA RESULT:      -7.0      1.398      2.401
REMARK  Name = 
REMARK  26 active torsions:
REMARK  status: ('A' for Active; 'I' for Inactive)
REMARK    1  A    between atoms: O_2  and  C_3
REMARK    2  A    between atoms: C_6  and  C_7
REMARK    3  A    between atoms: C_7  and  C_8
REMARK    4  A    between atoms: C_11  and  O_12
REMARK    5  A    between atoms: C_14  and  O_15
REMARK    6  A    between atoms: N_21  and  C_23
REMARK    7  A    between atoms: C_23  and  C_24
REMARK    8  A    between atoms: C_24  and  C_25
REMARK    9  A    between atoms: C_25  and  O_27
REMARK   10  A    between atoms: O_27  and  C_28
REMARK   11  A    between atoms: C_28  and  C_29
REMARK   12  A    between atoms: C_29  and  C_30
REMARK   13  A    between atoms: C_30  and  C_31
REMARK   14  A    between atoms: C_31  and  C_32
REMARK   15  A    between atoms: C_32  and  O_33
REMARK   16  A    between atoms: O_33  and  C_34
REMARK   17  A    between atoms: C_34  and  C_36
REMARK   18  A    between atoms: C_36  and  C_37
REMARK   19  A    between atoms: C_37  and  N_38
REMARK   20  A    between atoms: C_44  and  O_45
REMARK   21  A    between atoms: C_47  and  O_48
REMARK   22  A    between atoms: C_52  and  C_53
REMARK   23  A    between atoms: C_53  and  C_54
REMARK   24  A    between atoms: C_57  and  O_58
REMARK   25  A    between atoms: C_60  and  O_61
REMARK   26  A    between atoms: C_65  and  O_66
REMARK                            x       y       z     vdW  Elec       q    Type
REMARK                         _______ _______ _______ _____ _____    ______ ____
ROOT
ATOM      1  C   UNL     1     -10.736  11.812  63.343  0.00  0.00    +0.008 C 
ENDROOT
BRANCH   1   2
ATOM      2  C   UNL     1     -10.151  11.597  64.716  0.00  0.00    +0.048 C 
BRANCH   2   3
ATOM      3  C   UNL     1      -9.901  10.100  64.865  0.00  0.00    +0.208 C 
BRANCH   3   4
ATOM      4  O   UNL     1      -8.764   9.809  64.055  0.00  0.00    -0.448 OA
BRANCH   4   5
ATOM      5  C   UNL     1      -7.571   9.321  64.592  0.00  0.00    +0.323 C 
ATOM      6  O   UNL     1      -6.609  10.138  64.558  0.00  0.00    -0.250 OA
BRANCH   5   7
ATOM      7  C   UNL     1      -7.603   8.130  65.497  0.00  0.00    +0.170 C 
BRANCH   7   8
ATOM      8  C   UNL     1      -7.754   8.522  66.919  0.00  0.00    +0.121 C 
BRANCH   8   9
ATOM      9  N   UNL     1      -8.541   7.637  67.740  0.00  0.00    +0.301 N 
ATOM     10  C   UNL     1      -8.943   8.671  68.900  0.00  0.00    +0.086 C 
ATOM     11  C   UNL     1      -9.495   7.474  69.875  0.00  0.00    +0.027 A 
ATOM     12  C   UNL     1     -10.314   6.566  69.329  0.00  0.00    -0.012 A 
ATOM     13  C   UNL     1     -10.808   5.596  70.197  0.00  0.00    +0.036 A 
ATOM     14  C   UNL     1     -10.633   5.726  71.567  0.00  0.00    +0.172 A 
ATOM     15  C   UNL     1      -9.948   6.820  72.084  0.00  0.00    +0.172 A 
ATOM     16  C   UNL     1     -10.807   6.677  67.945  0.00  0.00    +0.087 C 
ATOM     17  C   UNL     1      -9.429   7.773  71.215  0.00  0.00    +0.041 A 
ATOM     18  C   UNL     1      -9.677   7.168  67.106  0.00  0.00    +0.114 C 
ATOM     19  C   UNL     1      -7.739   6.644  68.405  0.00  0.00    +0.171 C 
BRANCH  14  20
ATOM     20  O   UNL     1     -10.779   4.613  72.401  0.00  0.00    -0.468 OA
ATOM     21  C   UNL     1      -9.744   3.668  72.521  0.00  0.00    +0.253 C 
ENDBRANCH  14  20
BRANCH  15  22
ATOM     22  O   UNL     1     -10.179   7.181  73.406  0.00  0.00    -0.468 OA
ATOM     23  C   UNL     1      -9.148   6.937  74.356  0.00  0.00    +0.253 C 
ENDBRANCH  15  22
BRANCH  10  24
ATOM     24  C   UNL     1     -10.468   8.999  68.277  0.00  0.00    +0.086 C 
BRANCH  24  25
ATOM     25  C   UNL     1     -10.736  10.282  69.002  0.00  0.00    -0.013 A 
ATOM     26  C   UNL     1     -11.403  10.207  70.203  0.00  0.00    +0.036 A 
ATOM     27  C   UNL     1     -12.120  11.287  70.670  0.00  0.00    +0.172 A 
ATOM     28  C   UNL     1     -11.953  12.533  70.092  0.00  0.00    +0.172 A 
ATOM     29  C   UNL     1     -11.314  12.646  68.869  0.00  0.00    +0.040 A 
ATOM     30  C   UNL     1     -10.717  11.509  68.390  0.00  0.00    -0.001 A 
BRANCH  28  31
ATOM     31  O   UNL     1     -12.793  13.580  70.449  0.00  0.00    -0.468 OA
ATOM     32  C   UNL     1     -12.398  14.909  70.244  0.00  0.00    +0.253 C 
ENDBRANCH  28  31
BRANCH  27  33
ATOM     33  O   UNL     1     -13.068  11.179  71.673  0.00  0.00    -0.468 OA
ATOM     34  C   UNL     1     -13.479   9.923  72.138  0.00  0.00    +0.253 C 
ENDBRANCH  27  33
ENDBRANCH  24  25
ENDBRANCH  10  24
ENDBRANCH   8   9
ENDBRANCH   7   8
ENDBRANCH   5   7
ENDBRANCH   4   5
ENDBRANCH   3   4
ENDBRANCH   2   3
ENDBRANCH   1   2
BRANCH   1  35
ATOM     35  C   UNL     1     -12.161  12.270  63.526  0.00  0.00    +0.048 C 
BRANCH  35  36
ATOM     36  C   UNL     1     -12.452  12.712  64.944  0.00  0.00    +0.208 C 
BRANCH  36  37
ATOM     37  O   UNL     1     -12.848  14.061  64.984  0.00  0.00    -0.448 OA
BRANCH  37  38
ATOM     38  C   UNL     1     -11.990  15.118  64.665  0.00  0.00    +0.323 C 
ATOM     39  O   UNL     1     -12.399  15.949  63.828  0.00  0.00    -0.250 OA
BRANCH  38  40
ATOM     40  C   UNL     1     -10.721  15.312  65.428  0.00  0.00    +0.170 C 
BRANCH  40  41
ATOM     41  C   UNL     1     -10.956  15.794  66.833  0.00  0.00    +0.121 C 
BRANCH  41  43
ATOM     42  C   UNL     1      -8.684  16.359  66.767  0.00  0.00    +0.086 C 
ATOM     43  N   UNL     1     -10.136  16.993  67.020  0.00  0.00    +0.301 N 
ATOM     44  C   UNL     1     -10.391  17.870  65.952  0.00  0.00    +0.171 C 
ATOM     45  C   UNL     1     -10.226  17.395  68.340  0.00  0.00    +0.114 C 
ATOM     46  C   UNL     1      -9.758  18.834  68.442  0.00  0.00    +0.087 C 
ATOM     47  C   UNL     1      -8.520  18.791  67.598  0.00  0.00    -0.012 A 
ATOM     48  C   UNL     1      -7.728  19.920  67.804  0.00  0.00    +0.036 A 
ATOM     49  C   UNL     1      -6.454  19.979  67.261  0.00  0.00    +0.172 A 
ATOM     50  C   UNL     1      -6.177  19.028  66.290  0.00  0.00    +0.172 A 
ATOM     51  C   UNL     1      -6.799  17.813  66.441  0.00  0.00    +0.041 A 
ATOM     52  C   UNL     1      -7.848  17.645  67.355  0.00  0.00    +0.027 A 
BRANCH  50  53
ATOM     53  O   UNL     1      -5.217  19.305  65.332  0.00  0.00    -0.468 OA
ATOM     54  C   UNL     1      -5.560  19.858  64.082  0.00  0.00    +0.253 C 
ENDBRANCH  50  53
BRANCH  49  55
ATOM     55  O   UNL     1      -5.490  20.898  67.664  0.00  0.00    -0.468 OA
ATOM     56  C   UNL     1      -5.117  20.833  69.039  0.00  0.00    +0.253 C 
ENDBRANCH  49  55
BRANCH  42  57
ATOM     57  C   UNL     1      -8.734  15.549  68.233  0.00  0.00    +0.086 C 
BRANCH  57  61
ATOM     58  C   UNL     1      -5.773  12.632  68.115  0.00  0.00    +0.172 A 
ATOM     59  C   UNL     1      -5.991  13.321  69.300  0.00  0.00    +0.172 A 
ATOM     60  C   UNL     1      -7.108  14.149  69.329  0.00  0.00    +0.036 A 
ATOM     61  C   UNL     1      -7.812  14.437  68.160  0.00  0.00    -0.013 A 
ATOM     62  C   UNL     1      -7.917  13.337  67.316  0.00  0.00    -0.001 A 
ATOM     63  C   UNL     1      -6.886  12.403  67.314  0.00  0.00    +0.040 A 
BRANCH  58  65
ATOM     64  C   UNL     1      -4.084  11.670  66.610  0.00  0.00    +0.253 C 
ATOM     65  O   UNL     1      -4.522  12.127  67.853  0.00  0.00    -0.468 OA
ENDBRANCH  58  65
BRANCH  59  66
ATOM     66  O   UNL     1      -4.938  13.487  70.206  0.00  0.00    -0.468 OA
ATOM     67  C   UNL     1      -5.313  13.813  71.544  0.00  0.00    +0.253 C 
ENDBRANCH  59  66
ENDBRANCH  57  61
ENDBRANCH  42  57
ENDBRANCH  41  43
ENDBRANCH  40  41
ENDBRANCH  38  40
ENDBRANCH  37  38
ENDBRANCH  36  37
ENDBRANCH  35  36
ENDBRANCH   1  35
TORSDOF 26
ENDMDL
MODEL 3
REMARK VINA RESULT:      -6.9      2.110      5.497
REMARK  Name = 
REMARK  26 active torsions:
REMARK  status: ('A' for Active; 'I' for Inactive)
REMARK    1  A    between atoms: O_2  and  C_3
REMARK    2  A    between atoms: C_6  and  C_7
REMARK    3  A    between atoms: C_7  and  C_8
REMARK    4  A    between atoms: C_11  and  O_12
REMARK    5  A    between atoms: C_14  and  O_15
REMARK    6  A    between atoms: N_21  and  C_23
REMARK    7  A    between atoms: C_23  and  C_24
REMARK    8  A    between atoms: C_24  and  C_25
REMARK    9  A    between atoms: C_25  and  O_27
REMARK   10  A    between atoms: O_27  and  C_28
REMARK   11  A    between atoms: C_28  and  C_29
REMARK   12  A    between atoms: C_29  and  C_30
REMARK   13  A    between atoms: C_30  and  C_31
REMARK   14  A    between atoms: C_31  and  C_32
REMARK   15  A    between atoms: C_32  and  O_33
REMARK   16  A    between atoms: O_33  and  C_34
REMARK   17  A    between atoms: C_34  and  C_36
REMARK   18  A    between atoms: C_36  and  C_37
REMARK   19  A    between atoms: C_37  and  N_38
REMARK   20  A    between atoms: C_44  and  O_45
REMARK   21  A    between atoms: C_47  and  O_48
REMARK   22  A    between atoms: C_52  and  C_53
REMARK   23  A    between atoms: C_53  and  C_54
REMARK   24  A    between atoms: C_57  and  O_58
REMARK   25  A    between atoms: C_60  and  O_61
REMARK   26  A    between atoms: C_65  and  O_66
REMARK                            x       y       z     vdW  Elec       q    Type
REMARK                         _______ _______ _______ _____ _____    ______ ____
ROOT
ATOM      1  C   UNL     1     -11.256  11.813  63.463  0.00  0.00    +0.008 C 
ENDROOT
BRANCH   1   2
ATOM      2  C   UNL     1     -10.586  10.823  64.383  0.00  0.00    +0.048 C 
BRANCH   2   3
ATOM      3  C   UNL     1      -9.083  11.040  64.253  0.00  0.00    +0.208 C 
BRANCH   3   4
ATOM      4  O   UNL     1      -8.483  10.260  65.285  0.00  0.00    -0.448 OA
BRANCH   4   5
ATOM      5  C   UNL     1      -8.012  10.828  66.471  0.00  0.00    +0.323 C 
ATOM      6  O   UNL     1      -8.363  12.028  66.652  0.00  0.00    -0.250 OA
BRANCH   5   7
ATOM      7  C   UNL     1      -7.533   9.939  67.575  0.00  0.00    +0.170 C 
BRANCH   7   8
ATOM      8  C   UNL     1      -8.660   9.288  68.287  0.00  0.00    +0.121 C 
BRANCH   8   9
ATOM      9  N   UNL     1      -8.998   7.957  67.853  0.00  0.00    +0.301 N 
ATOM     10  C   UNL     1      -9.050   7.238  69.288  0.00  0.00    +0.086 C 
ATOM     11  C   UNL     1      -9.083   5.742  68.618  0.00  0.00    +0.027 A 
ATOM     12  C   UNL     1      -9.950   5.536  67.617  0.00  0.00    -0.012 A 
ATOM     13  C   UNL     1      -9.991   4.242  67.107  0.00  0.00    +0.036 A 
ATOM     14  C   UNL     1      -9.341   3.208  67.766  0.00  0.00    +0.172 A 
ATOM     15  C   UNL     1      -8.629   3.460  68.933  0.00  0.00    +0.172 A 
ATOM     16  C   UNL     1     -10.922   6.558  67.192  0.00  0.00    +0.087 C 
ATOM     17  C   UNL     1      -8.563   4.758  69.425  0.00  0.00    +0.041 A 
ATOM     18  C   UNL     1     -10.234   7.879  67.237  0.00  0.00    +0.114 C 
ATOM     19  C   UNL     1      -7.913   7.308  67.166  0.00  0.00    +0.171 C 
BRANCH  14  20
ATOM     20  O   UNL     1      -9.059   2.016  67.092  0.00  0.00    -0.468 OA
ATOM     21  C   UNL     1      -8.672   2.031  65.740  0.00  0.00    +0.253 C 
ENDBRANCH  14  20
BRANCH  15  22
ATOM     22  O   UNL     1      -8.396   2.405  69.807  0.00  0.00    -0.468 OA
ATOM     23  C   UNL     1      -9.448   2.021  70.686  0.00  0.00    +0.253 C 
ENDBRANCH  15  22
BRANCH  10  24
ATOM     24  C   UNL     1     -10.722   7.319  69.427  0.00  0.00    +0.086 C 
BRANCH  24  25
ATOM     25  C   UNL     1     -10.827   7.265  70.921  0.00  0.00    -0.013 A 
ATOM     26  C   UNL     1     -10.047   8.137  71.645  0.00  0.00    +0.036 A 
ATOM     27  C   UNL     1      -9.691   7.840  72.942  0.00  0.00    +0.172 A 
ATOM     28  C   UNL     1     -10.332   6.819  73.621  0.00  0.00    +0.172 A 
ATOM     29  C   UNL     1     -11.102   5.903  72.923  0.00  0.00    +0.040 A 
ATOM     30  C   UNL     1     -11.327   6.184  71.600  0.00  0.00    -0.001 A 
BRANCH  28  31
ATOM     31  O   UNL     1      -9.862   6.411  74.862  0.00  0.00    -0.468 OA
ATOM     32  C   UNL     1     -10.013   5.081  75.277  0.00  0.00    +0.253 C 
ENDBRANCH  28  31
BRANCH  27  33
ATOM     33  O   UNL     1      -8.658   8.484  73.602  0.00  0.00    -0.468 OA
ATOM     34  C   UNL     1      -7.329   8.081  73.417  0.00  0.00    +0.253 C 
ENDBRANCH  27  33
ENDBRANCH  24  25
ENDBRANCH  10  24
ENDBRANCH   8   9
ENDBRANCH   7   8
ENDBRANCH   5   7
ENDBRANCH   4   5
ENDBRANCH   3   4
ENDBRANCH   2   3
ENDBRANCH   1   2
BRANCH   1  35
ATOM     35  C   UNL     1     -12.522  12.275  64.140  0.00  0.00    +0.048 C 
BRANCH  35  36
ATOM     36  C   UNL     1     -12.276  13.392  65.131  0.00  0.00    +0.208 C 
BRANCH  36  37
ATOM     37  O   UNL     1     -12.400  14.652  64.518  0.00  0.00    -0.448 OA
BRANCH  37  38
ATOM     38  C   UNL     1     -11.417  15.643  64.603  0.00  0.00    +0.323 C 
ATOM     39  O   UNL     1     -11.592  16.677  63.925  0.00  0.00    -0.250 OA
BRANCH  38  40
ATOM     40  C   UNL     1     -10.307  15.515  65.594  0.00  0.00    +0.170 C 
BRANCH  40  41
ATOM     41  C   UNL     1     -10.344  16.587  66.647  0.00  0.00    +0.121 C 
BRANCH  41  43
ATOM     42  C   UNL     1      -9.248  15.121  68.109  0.00  0.00    +0.086 C 
ATOM     43  N   UNL     1      -9.068  16.530  67.364  0.00  0.00    +0.301 N 
ATOM     44  C   UNL     1      -8.041  16.366  66.420  0.00  0.00    +0.171 C 
ATOM     45  C   UNL     1      -9.041  17.538  68.312  0.00  0.00    +0.114 C 
ATOM     46  C   UNL     1      -7.604  17.764  68.740  0.00  0.00    +0.087 C 
ATOM     47  C   UNL     1      -7.135  16.351  68.918  0.00  0.00    -0.012 A 
ATOM     48  C   UNL     1      -5.936  16.302  69.627  0.00  0.00    +0.036 A 
ATOM     49  C   UNL     1      -5.437  15.082  70.058  0.00  0.00    +0.172 A 
ATOM     50  C   UNL     1      -6.020  13.964  69.480  0.00  0.00    +0.172 A 
ATOM     51  C   UNL     1      -7.347  14.080  69.147  0.00  0.00    +0.041 A 
ATOM     52  C   UNL     1      -7.986  15.327  69.141  0.00  0.00    +0.027 A 
BRANCH  50  53
ATOM     53  O   UNL     1      -5.290  12.791  69.398  0.00  0.00    -0.468 OA
ATOM     54  C   UNL     1      -5.585  11.680  70.213  0.00  0.00    +0.253 C 
ENDBRANCH  50  53
BRANCH  49  55
ATOM     55  O   UNL     1      -4.443  14.958  71.023  0.00  0.00    -0.468 OA
ATOM     56  C   UNL     1      -4.904  14.746  72.355  0.00  0.00    +0.253 C 
ENDBRANCH  49  55
BRANCH  42  57
ATOM     57  C   UNL     1     -10.385  15.770  69.155  0.00  0.00    +0.086 C 
BRANCH  57  61
ATOM     58  C   UNL     1     -12.705  12.804  70.920  0.00  0.00    +0.172 A 
ATOM     59  C   UNL     1     -13.053  14.135  71.115  0.00  0.00    +0.172 A 
ATOM     60  C   UNL     1     -12.352  15.065  70.355  0.00  0.00    +0.036 A 
ATOM     61  C   UNL     1     -11.221  14.689  69.631  0.00  0.00    -0.013 A 
ATOM     62  C   UNL     1     -11.355  13.435  69.047  0.00  0.00    -0.001 A 
ATOM     63  C   UNL     1     -12.135  12.482  69.694  0.00  0.00    +0.040 A 
BRANCH  58  65
ATOM     64  C   UNL     1     -12.948  10.494  71.725  0.00  0.00    +0.253 C 
ATOM     65  O   UNL     1     -13.037  11.878  71.880  0.00  0.00    -0.468 OA
ENDBRANCH  58  65
BRANCH  59  66
ATOM     66  O   UNL     1     -13.733  14.508  72.278  0.00  0.00    -0.468 OA
ATOM     67  C   UNL     1     -13.376  15.775  72.829  0.00  0.00    +0.253 C 
ENDBRANCH  59  66
ENDBRANCH  57  61
ENDBRANCH  42  57
ENDBRANCH  41  43
ENDBRANCH  40  41
ENDBRANCH  38  40
ENDBRANCH  37  38
ENDBRANCH  36  37
ENDBRANCH  35  36
ENDBRANCH   1  35
TORSDOF 26
ENDMDL
MODEL 4
REMARK VINA RESULT:      -6.9      1.996      3.391
REMARK  Name = 
REMARK  26 active torsions:
REMARK  status: ('A' for Active; 'I' for Inactive)
REMARK    1  A    between atoms: O_2  and  C_3
REMARK    2  A    between atoms: C_6  and  C_7
REMARK    3  A    between atoms: C_7  and  C_8
REMARK    4  A    between atoms: C_11  and  O_12
REMARK    5  A    between atoms: C_14  and  O_15
REMARK    6  A    between atoms: N_21  and  C_23
REMARK    7  A    between atoms: C_23  and  C_24
REMARK    8  A    between atoms: C_24  and  C_25
REMARK    9  A    between atoms: C_25  and  O_27
REMARK   10  A    between atoms: O_27  and  C_28
REMARK   11  A    between atoms: C_28  and  C_29
REMARK   12  A    between atoms: C_29  and  C_30
REMARK   13  A    between atoms: C_30  and  C_31
REMARK   14  A    between atoms: C_31  and  C_32
REMARK   15  A    between atoms: C_32  and  O_33
REMARK   16  A    between atoms: O_33  and  C_34
REMARK   17  A    between atoms: C_34  and  C_36
REMARK   18  A    between atoms: C_36  and  C_37
REMARK   19  A    between atoms: C_37  and  N_38
REMARK   20  A    between atoms: C_44  and  O_45
REMARK   21  A    between atoms: C_47  and  O_48
REMARK   22  A    between atoms: C_52  and  C_53
REMARK   23  A    between atoms: C_53  and  C_54
REMARK   24  A    between atoms: C_57  and  O_58
REMARK   25  A    between atoms: C_60  and  O_61
REMARK   26  A    between atoms: C_65  and  O_66
REMARK                            x       y       z     vdW  Elec       q    Type
REMARK                         _______ _______ _______ _____ _____    ______ ____
ROOT
ATOM      1  C   UNL     1     -12.201  14.019  65.301  0.00  0.00    +0.008 C 
ENDROOT
BRANCH   1   2
ATOM      2  C   UNL     1     -12.428  12.550  65.049  0.00  0.00    +0.048 C 
BRANCH   2   3
ATOM      3  C   UNL     1     -11.834  12.235  63.680  0.00  0.00    +0.208 C 
BRANCH   3   4
ATOM      4  O   UNL     1     -11.039  11.064  63.858  0.00  0.00    -0.448 OA
BRANCH   4   5
ATOM      5  C   UNL     1      -9.720  10.984  63.406  0.00  0.00    +0.323 C 
ATOM      6  O   UNL     1      -9.423  11.819  62.506  0.00  0.00    -0.250 OA
BRANCH   5   7
ATOM      7  C   UNL     1      -8.697  10.279  64.239  0.00  0.00    +0.170 C 
BRANCH   7   8
ATOM      8  C   UNL     1      -8.895  10.534  65.687  0.00  0.00    +0.121 C 
BRANCH   8   9
ATOM      9  N   UNL     1      -9.041   9.369  66.521  0.00  0.00    +0.301 N 
ATOM     10  C   UNL     1      -9.222  10.102  67.938  0.00  0.00    +0.086 C 
ATOM     11  C   UNL     1      -9.019   8.705  68.770  0.00  0.00    +0.027 A 
ATOM     12  C   UNL     1      -9.715   7.637  68.356  0.00  0.00    -0.012 A 
ATOM     13  C   UNL     1      -9.562   6.482  69.117  0.00  0.00    +0.036 A 
ATOM     14  C   UNL     1      -8.913   6.531  70.343  0.00  0.00    +0.172 A 
ATOM     15  C   UNL     1      -8.396   7.732  70.814  0.00  0.00    +0.172 A 
ATOM     16  C   UNL     1     -10.713   7.716  67.275  0.00  0.00    +0.087 C 
ATOM     17  C   UNL     1      -8.524   8.879  70.040  0.00  0.00    +0.041 A 
ATOM     18  C   UNL     1     -10.166   8.621  66.225  0.00  0.00    +0.114 C 
ATOM     19  C   UNL     1      -7.814   8.629  66.655  0.00  0.00    +0.171 C 
BRANCH  14  20
ATOM     20  O   UNL     1      -8.427   5.356  70.926  0.00  0.00    -0.468 OA
ATOM     21  C   UNL     1      -9.285   4.506  71.647  0.00  0.00    +0.253 C 
ENDBRANCH  14  20
BRANCH  15  22
ATOM     22  O   UNL     1      -8.187   7.872  72.180  0.00  0.00    -0.468 OA
ATOM     23  C   UNL     1      -9.325   8.048  73.017  0.00  0.00    +0.253 C 
ENDBRANCH  15  22
BRANCH  10  24
ATOM     24  C   UNL     1     -10.897   9.980  67.949  0.00  0.00    +0.086 C 
BRANCH  24  25
ATOM     25  C   UNL     1     -11.188  10.965  69.040  0.00  0.00    -0.013 A 
ATOM     26  C   UNL     1     -11.660  10.471  70.234  0.00  0.00    +0.036 A 
ATOM     27  C   UNL     1     -12.408  11.270  71.070  0.00  0.00    +0.172 A 
ATOM     28  C   UNL     1     -12.458  12.637  70.863  0.00  0.00    +0.172 A 
ATOM     29  C   UNL     1     -12.020  13.169  69.662  0.00  0.00    +0.040 A 
ATOM     30  C   UNL     1     -11.386  12.302  68.811  0.00  0.00    -0.001 A 
BRANCH  28  31
ATOM     31  O   UNL     1     -13.340  13.417  71.598  0.00  0.00    -0.468 OA
ATOM     32  C   UNL     1     -13.609  14.739  71.216  0.00  0.00    +0.253 C 
ENDBRANCH  28  31
BRANCH  27  33
ATOM     33  O   UNL     1     -13.183  10.760  72.098  0.00  0.00    -0.468 OA
ATOM     34  C   UNL     1     -13.663   9.445  72.048  0.00  0.00    +0.253 C 
ENDBRANCH  27  33
ENDBRANCH  24  25
ENDBRANCH  10  24
ENDBRANCH   8   9
ENDBRANCH   7   8
ENDBRANCH   5   7
ENDBRANCH   4   5
ENDBRANCH   3   4
ENDBRANCH   2   3
ENDBRANCH   1   2
BRANCH   1  35
ATOM     35  C   UNL     1     -10.740  14.299  65.057  0.00  0.00    +0.048 C 
BRANCH  35  36
ATOM     36  C   UNL     1     -10.222  15.449  65.893  0.00  0.00    +0.208 C 
BRANCH  36  37
ATOM     37  O   UNL     1     -10.830  15.470  67.161  0.00  0.00    -0.448 OA
BRANCH  37  38
ATOM     38  C   UNL     1     -10.988  16.639  67.913  0.00  0.00    +0.323 C 
ATOM     39  O   UNL     1     -11.591  16.537  69.001  0.00  0.00    -0.250 OA
BRANCH  38  40
ATOM     40  C   UNL     1     -10.312  17.901  67.488  0.00  0.00    +0.170 C 
BRANCH  40  41
ATOM     41  C   UNL     1      -9.445  18.487  68.568  0.00  0.00    +0.121 C 
BRANCH  41  43
ATOM     42  C   UNL     1      -7.678  17.933  67.135  0.00  0.00    +0.086 C 
ATOM     43  N   UNL     1      -8.338  19.177  67.904  0.00  0.00    +0.301 N 
ATOM     44  C   UNL     1      -8.874  20.027  66.923  0.00  0.00    +0.171 C 
ATOM     45  C   UNL     1      -7.452  19.630  68.865  0.00  0.00    +0.114 C 
ATOM     46  C   UNL     1      -6.564  20.693  68.246  0.00  0.00    +0.087 C 
ATOM     47  C   UNL     1      -6.217  20.045  66.938  0.00  0.00    -0.012 A 
ATOM     48  C   UNL     1      -5.142  20.688  66.326  0.00  0.00    +0.036 A 
ATOM     49  C   UNL     1      -4.550  20.128  65.204  0.00  0.00    +0.172 A 
ATOM     50  C   UNL     1      -5.276  19.116  64.592  0.00  0.00    +0.172 A 
ATOM     51  C   UNL     1      -6.041  18.335  65.422  0.00  0.00    +0.041 A 
ATOM     52  C   UNL     1      -6.281  18.710  66.751  0.00  0.00    +0.027 A 
BRANCH  50  53
ATOM     53  O   UNL     1      -5.087  18.877  63.242  0.00  0.00    -0.468 OA
ATOM     54  C   UNL     1      -5.636  19.724  62.258  0.00  0.00    +0.253 C 
ENDBRANCH  50  53
BRANCH  49  55
ATOM     55  O   UNL     1      -3.303  20.513  64.723  0.00  0.00    -0.468 OA
ATOM     56  C   UNL     1      -3.061  21.917  64.698  0.00  0.00    +0.253 C 
ENDBRANCH  49  55
BRANCH  42  57
ATOM     57  C   UNL     1      -7.089  17.301  68.571  0.00  0.00    +0.086 C 
BRANCH  57  61
ATOM     58  C   UNL     1      -6.133  13.361  67.643  0.00  0.00    +0.172 A 
ATOM     59  C   UNL     1      -5.109  14.248  67.946  0.00  0.00    +0.172 A 
ATOM     60  C   UNL     1      -5.501  15.494  68.423  0.00  0.00    +0.036 A 
ATOM     61  C   UNL     1      -6.838  15.891  68.367  0.00  0.00    -0.013 A 
ATOM     62  C   UNL     1      -7.715  14.850  68.650  0.00  0.00    -0.001 A 
ATOM     63  C   UNL     1      -7.341  13.556  68.303  0.00  0.00    +0.040 A 
BRANCH  58  65
ATOM     64  C   UNL     1      -5.485  11.025  67.234  0.00  0.00    +0.253 C 
ATOM     65  O   UNL     1      -5.875  12.297  66.813  0.00  0.00    -0.468 OA
ENDBRANCH  58  65
BRANCH  59  66
ATOM     66  O   UNL     1      -3.835  14.044  67.406  0.00  0.00    -0.468 OA
ATOM     67  C   UNL     1      -2.866  13.483  68.290  0.00  0.00    +0.253 C 
ENDBRANCH  59  66
ENDBRANCH  57  61
ENDBRANCH  42  57
ENDBRANCH  41  43
ENDBRANCH  40  41
ENDBRANCH  38  40
ENDBRANCH  37  38
ENDBRANCH  36  37
ENDBRANCH  35  36
ENDBRANCH   1  35
TORSDOF 26
ENDMDL
MODEL 5
REMARK VINA RESULT:      -6.8      1.755      4.126
REMARK  Name = 
REMARK  26 active torsions:
REMARK  status: ('A' for Active; 'I' for Inactive)
REMARK    1  A    between atoms: O_2  and  C_3
REMARK    2  A    between atoms: C_6  and  C_7
REMARK    3  A    between atoms: C_7  and  C_8
REMARK    4  A    between atoms: C_11  and  O_12
REMARK    5  A    between atoms: C_14  and  O_15
REMARK    6  A    between atoms: N_21  and  C_23
REMARK    7  A    between atoms: C_23  and  C_24
REMARK    8  A    between atoms: C_24  and  C_25
REMARK    9  A    between atoms: C_25  and  O_27
REMARK   10  A    between atoms: O_27  and  C_28
REMARK   11  A    between atoms: C_28  and  C_29
REMARK   12  A    between atoms: C_29  and  C_30
REMARK   13  A    between atoms: C_30  and  C_31
REMARK   14  A    between atoms: C_31  and  C_32
REMARK   15  A    between atoms: C_32  and  O_33
REMARK   16  A    between atoms: O_33  and  C_34
REMARK   17  A    between atoms: C_34  and  C_36
REMARK   18  A    between atoms: C_36  and  C_37
REMARK   19  A    between atoms: C_37  and  N_38
REMARK   20  A    between atoms: C_44  and  O_45
REMARK   21  A    between atoms: C_47  and  O_48
REMARK   22  A    between atoms: C_52  and  C_53
REMARK   23  A    between atoms: C_53  and  C_54
REMARK   24  A    between atoms: C_57  and  O_58
REMARK   25  A    between atoms: C_60  and  O_61
REMARK   26  A    between atoms: C_65  and  O_66
REMARK                            x       y       z     vdW  Elec       q    Type
REMARK                         _______ _______ _______ _____ _____    ______ ____
ROOT
ATOM      1  C   UNL     1      -9.806   9.705  65.552  0.00  0.00    +0.008 C 
ENDROOT
BRANCH   1   2
ATOM      2  C   UNL     1     -10.544   9.669  66.867  0.00  0.00    +0.048 C 
BRANCH   2   3
ATOM      3  C   UNL     1     -10.745  11.116  67.305  0.00  0.00    +0.208 C 
BRANCH   3   4
ATOM      4  O   UNL     1     -11.935  11.126  68.092  0.00  0.00    -0.448 OA
BRANCH   4   5
ATOM      5  C   UNL     1     -11.955  11.599  69.406  0.00  0.00    +0.323 C 
ATOM      6  O   UNL     1     -11.886  12.856  69.510  0.00  0.00    -0.250 OA
BRANCH   5   7
ATOM      7  C   UNL     1     -12.458  10.712  70.500  0.00  0.00    +0.170 C 
BRANCH   7   8
ATOM      8  C   UNL     1     -12.047   9.301  70.300  0.00  0.00    +0.121 C 
BRANCH   8   9
ATOM      9  N   UNL     1     -11.454   8.647  71.438  0.00  0.00    +0.301 N 
ATOM     10  C   UNL     1     -11.334   7.164  70.834  0.00  0.00    +0.086 C 
ATOM     11  C   UNL     1     -11.001   6.515  72.301  0.00  0.00    +0.027 A 
ATOM     12  C   UNL     1     -10.070   7.125  73.047  0.00  0.00    -0.012 A 
ATOM     13  C   UNL     1      -9.773   6.517  74.263  0.00  0.00    +0.036 A 
ATOM     14  C   UNL     1     -10.252   5.246  74.547  0.00  0.00    +0.172 A 
ATOM     15  C   UNL     1     -11.047   4.576  73.624  0.00  0.00    +0.172 A 
ATOM     16  C   UNL     1      -9.281   8.265  72.547  0.00  0.00    +0.087 C 
ATOM     17  C   UNL     1     -11.368   5.196  72.423  0.00  0.00    +0.041 A 
ATOM     18  C   UNL     1     -10.199   9.134  71.758  0.00  0.00    +0.114 C 
ATOM     19  C   UNL     1     -12.373   8.513  72.537  0.00  0.00    +0.171 C 
BRANCH  14  20
ATOM     20  O   UNL     1     -10.285   4.788  75.868  0.00  0.00    -0.468 OA
ATOM     21  C   UNL     1      -9.665   5.522  76.895  0.00  0.00    +0.253 C 
ENDBRANCH  14  20
BRANCH  15  22
ATOM     22  O   UNL     1     -11.122   3.190  73.699  0.00  0.00    -0.468 OA
ATOM     23  C   UNL     1     -10.014   2.434  73.223  0.00  0.00    +0.253 C 
ENDBRANCH  15  22
BRANCH  10  24
ATOM     24  C   UNL     1      -9.711   7.309  70.422  0.00  0.00    +0.086 C 
BRANCH  24  25
ATOM     25  C   UNL     1      -9.703   6.412  69.222  0.00  0.00    -0.013 A 
ATOM     26  C   UNL     1      -8.480   6.066  68.695  0.00  0.00    +0.036 A 
ATOM     27  C   UNL     1      -8.371   5.701  67.371  0.00  0.00    +0.172 A 
ATOM     28  C   UNL     1      -9.506   5.407  66.636  0.00  0.00    +0.172 A 
ATOM     29  C   UNL     1     -10.753   5.767  67.120  0.00  0.00    +0.040 A 
ATOM     30  C   UNL     1     -10.791   6.239  68.407  0.00  0.00    -0.001 A 
BRANCH  28  31
ATOM     31  O   UNL     1      -9.411   5.204  65.266  0.00  0.00    -0.468 OA
ATOM     32  C   UNL     1      -9.716   3.954  64.710  0.00  0.00    +0.253 C 
ENDBRANCH  28  31
BRANCH  27  33
ATOM     33  O   UNL     1      -7.161   5.670  66.700  0.00  0.00    -0.468 OA
ATOM     34  C   UNL     1      -6.511   6.858  66.338  0.00  0.00    +0.253 C 
ENDBRANCH  27  33
ENDBRANCH  24  25
ENDBRANCH  10  24
ENDBRANCH   8   9
ENDBRANCH   7   8
ENDBRANCH   5   7
ENDBRANCH   4   5
ENDBRANCH   3   4
ENDBRANCH   2   3
ENDBRANCH   1   2
BRANCH   1  35
ATOM     35  C   UNL     1      -9.880  11.118  65.031  0.00  0.00    +0.048 C 
BRANCH  35  36
ATOM     36  C   UNL     1     -10.712  11.230  63.772  0.00  0.00    +0.208 C 
BRANCH  36  37
ATOM     37  O   UNL     1     -11.170  12.546  63.581  0.00  0.00    -0.448 OA
BRANCH  37  38
ATOM     38  C   UNL     1     -12.160  13.133  64.375  0.00  0.00    +0.323 C 
ATOM     39  O   UNL     1     -13.141  12.423  64.678  0.00  0.00    -0.250 OA
BRANCH  38  40
ATOM     40  C   UNL     1     -11.948  14.492  64.956  0.00  0.00    +0.170 C 
BRANCH  40  41
ATOM     41  C   UNL     1     -11.131  14.462  66.218  0.00  0.00    +0.121 C 
BRANCH  41  43
ATOM     42  C   UNL     1      -8.967  15.324  66.457  0.00  0.00    +0.086 C 
ATOM     43  N   UNL     1     -10.502  15.778  66.355  0.00  0.00    +0.301 N 
ATOM     44  C   UNL     1     -10.647  16.463  65.137  0.00  0.00    +0.171 C 
ATOM     45  C   UNL     1     -10.886  16.334  67.562  0.00  0.00    +0.114 C 
ATOM     46  C   UNL     1     -10.612  17.825  67.519  0.00  0.00    +0.087 C 
ATOM     47  C   UNL     1      -9.238  17.844  66.918  0.00  0.00    -0.012 A 
ATOM     48  C   UNL     1      -8.633  19.089  67.079  0.00  0.00    +0.036 A 
ATOM     49  C   UNL     1      -7.294  19.253  66.761  0.00  0.00    +0.172 A 
ATOM     50  C   UNL     1      -6.732  18.230  66.011  0.00  0.00    +0.172 A 
ATOM     51  C   UNL     1      -7.230  16.971  66.239  0.00  0.00    +0.041 A 
ATOM     52  C   UNL     1      -8.408  16.781  66.975  0.00  0.00    +0.027 A 
BRANCH  50  53
ATOM     53  O   UNL     1      -5.644  18.509  65.202  0.00  0.00    -0.468 OA
ATOM     54  C   UNL     1      -4.382  17.927  65.434  0.00  0.00    +0.253 C 
ENDBRANCH  50  53
BRANCH  49  55
ATOM     55  O   UNL     1      -6.534  20.342  67.176  0.00  0.00    -0.468 OA
ATOM     56  C   UNL     1      -6.072  20.290  68.524  0.00  0.00    +0.253 C 
ENDBRANCH  49  55
BRANCH  42  57
ATOM     57  C   UNL     1      -9.203  14.716  68.001  0.00  0.00    +0.086 C 
BRANCH  57  61
ATOM     58  C   UNL     1      -6.135  12.081  68.969  0.00  0.00    +0.172 A 
ATOM     59  C   UNL     1      -6.757  11.964  67.733  0.00  0.00    +0.172 A 
ATOM     60  C   UNL     1      -7.644  12.981  67.397  0.00  0.00    +0.036 A 
ATOM     61  C   UNL     1      -8.047  13.919  68.348  0.00  0.00    -0.013 A 
ATOM     62  C   UNL     1      -7.011  14.298  69.194  0.00  0.00    -0.001 A 
ATOM     63  C   UNL     1      -6.022  13.365  69.489  0.00  0.00    +0.040 A 
BRANCH  58  65
ATOM     64  C   UNL     1      -4.835  10.961  70.729  0.00  0.00    +0.253 C 
ATOM     65  O   UNL     1      -5.576  10.966  69.547  0.00  0.00    -0.468 OA
ENDBRANCH  58  65
BRANCH  59  66
ATOM     66  O   UNL     1      -6.804  10.718  67.099  0.00  0.00    -0.468 OA
ATOM     67  C   UNL     1      -6.177  10.646  65.819  0.00  0.00    +0.253 C 
ENDBRANCH  59  66
ENDBRANCH  57  61
ENDBRANCH  42  57
ENDBRANCH  41  43
ENDBRANCH  40  41
ENDBRANCH  38  40
ENDBRANCH  37  38
ENDBRANCH  36  37
ENDBRANCH  35  36
ENDBRANCH   1  35
TORSDOF 26
ENDMDL
MODEL 6
REMARK VINA RESULT:      -6.8      1.692      4.013
REMARK  Name = 
REMARK  26 active torsions:
REMARK  status: ('A' for Active; 'I' for Inactive)
REMARK    1  A    between atoms: O_2  and  C_3
REMARK    2  A    between atoms: C_6  and  C_7
REMARK    3  A    between atoms: C_7  and  C_8
REMARK    4  A    between atoms: C_11  and  O_12
REMARK    5  A    between atoms: C_14  and  O_15
REMARK    6  A    between atoms: N_21  and  C_23
REMARK    7  A    between atoms: C_23  and  C_24
REMARK    8  A    between atoms: C_24  and  C_25
REMARK    9  A    between atoms: C_25  and  O_27
REMARK   10  A    between atoms: O_27  and  C_28
REMARK   11  A    between atoms: C_28  and  C_29
REMARK   12  A    between atoms: C_29  and  C_30
REMARK   13  A    between atoms: C_30  and  C_31
REMARK   14  A    between atoms: C_31  and  C_32
REMARK   15  A    between atoms: C_32  and  O_33
REMARK   16  A    between atoms: O_33  and  C_34
REMARK   17  A    between atoms: C_34  and  C_36
REMARK   18  A    between atoms: C_36  and  C_37
REMARK   19  A    between atoms: C_37  and  N_38
REMARK   20  A    between atoms: C_44  and  O_45
REMARK   21  A    between atoms: C_47  and  O_48
REMARK   22  A    between atoms: C_52  and  C_53
REMARK   23  A    between atoms: C_53  and  C_54
REMARK   24  A    between atoms: C_57  and  O_58
REMARK   25  A    between atoms: C_60  and  O_61
REMARK   26  A    between atoms: C_65  and  O_66
REMARK                            x       y       z     vdW  Elec       q    Type
REMARK                         _______ _______ _______ _____ _____    ______ ____
ROOT
ATOM      1  C   UNL     1     -10.052  12.275  65.304  0.00  0.00    +0.008 C 
ENDROOT
BRANCH   1   2
ATOM      2  C   UNL     1     -10.858  11.116  65.835  0.00  0.00    +0.048 C 
BRANCH   2   3
ATOM      3  C   UNL     1     -10.030   9.856  65.610  0.00  0.00    +0.208 C 
BRANCH   3   4
ATOM      4  O   UNL     1     -10.601   8.855  66.449  0.00  0.00    -0.448 OA
BRANCH   4   5
ATOM      5  C   UNL     1      -9.983   7.622  66.667  0.00  0.00    +0.323 C 
ATOM      6  O   UNL     1      -8.779   7.566  66.287  0.00  0.00    -0.250 OA
BRANCH   5   7
ATOM      7  C   UNL     1     -10.578   6.661  67.647  0.00  0.00    +0.170 C 
BRANCH   7   8
ATOM      8  C   UNL     1      -9.562   6.136  68.591  0.00  0.00    +0.121 C 
BRANCH   8   9
ATOM      9  N   UNL     1      -9.910   6.187  69.988  0.00  0.00    +0.301 N 
ATOM     10  C   UNL     1      -8.702   7.108  70.509  0.00  0.00    +0.086 C 
ATOM     11  C   UNL     1      -9.032   6.778  72.080  0.00  0.00    +0.027 A 
ATOM     12  C   UNL     1     -10.308   6.879  72.475  0.00  0.00    -0.012 A 
ATOM     13  C   UNL     1     -10.546   6.647  73.826  0.00  0.00    +0.036 A 
ATOM     14  C   UNL     1      -9.486   6.550  74.717  0.00  0.00    +0.172 A 
ATOM     15  C   UNL     1      -8.178   6.669  74.264  0.00  0.00    +0.172 A 
ATOM     16  C   UNL     1     -11.373   7.375  71.584  0.00  0.00    +0.087 C 
ATOM     17  C   UNL     1      -7.940   6.872  72.910  0.00  0.00    +0.041 A 
ATOM     18  C   UNL     1     -11.122   6.811  70.228  0.00  0.00    +0.114 C 
ATOM     19  C   UNL     1      -9.713   4.926  70.652  0.00  0.00    +0.171 C 
BRANCH  14  20
ATOM     20  O   UNL     1      -9.676   5.955  75.969  0.00  0.00    -0.468 OA
ATOM     21  C   UNL     1      -9.886   4.569  76.079  0.00  0.00    +0.253 C 
ENDBRANCH  14  20
BRANCH  15  22
ATOM     22  O   UNL     1      -7.193   7.036  75.174  0.00  0.00    -0.468 OA
ATOM     23  C   UNL     1      -6.183   6.083  75.486  0.00  0.00    +0.253 C 
ENDBRANCH  15  22
BRANCH  10  24
ATOM     24  C   UNL     1      -9.599   8.529  70.518  0.00  0.00    +0.086 C 
BRANCH  24  25
ATOM     25  C   UNL     1      -8.628   9.411  69.793  0.00  0.00    -0.013 A 
ATOM     26  C   UNL     1      -7.331   9.440  70.249  0.00  0.00    +0.036 A 
ATOM     27  C   UNL     1      -6.533  10.537  70.009  0.00  0.00    +0.172 A 
ATOM     28  C   UNL     1      -6.921  11.487  69.081  0.00  0.00    +0.172 A 
ATOM     29  C   UNL     1      -8.226  11.509  68.620  0.00  0.00    +0.040 A 
ATOM     30  C   UNL     1      -9.017  10.452  68.989  0.00  0.00    -0.001 A 
BRANCH  28  31
ATOM     31  O   UNL     1      -6.204  12.670  68.960  0.00  0.00    -0.468 OA
ATOM     32  C   UNL     1      -5.382  12.893  67.846  0.00  0.00    +0.253 C 
ENDBRANCH  28  31
BRANCH  27  33
ATOM     33  O   UNL     1      -5.362  10.778  70.706  0.00  0.00    -0.468 OA
ATOM     34  C   UNL     1      -5.068  10.070  71.879  0.00  0.00    +0.253 C 
ENDBRANCH  27  33
ENDBRANCH  24  25
ENDBRANCH  10  24
ENDBRANCH   8   9
ENDBRANCH   7   8
ENDBRANCH   5   7
ENDBRANCH   4   5
ENDBRANCH   3   4
ENDBRANCH   2   3
ENDBRANCH   1   2
BRANCH   1  35
ATOM     35  C   UNL     1     -10.639  12.661  63.970  0.00  0.00    +0.048 C 
BRANCH  35  36
ATOM     36  C   UNL     1     -11.891  13.499  64.108  0.00  0.00    +0.208 C 
BRANCH  36  37
ATOM     37  O   UNL     1     -11.713  14.528  65.050  0.00  0.00    -0.448 OA
BRANCH  37  38
ATOM     38  C   UNL     1     -11.131  15.760  64.734  0.00  0.00    +0.323 C 
ATOM     39  O   UNL     1     -11.681  16.436  63.840  0.00  0.00    -0.250 OA
BRANCH  38  40
ATOM     40  C   UNL     1     -10.004  16.291  65.558  0.00  0.00    +0.170 C 
BRANCH  40  41
ATOM     41  C   UNL     1     -10.400  17.484  66.383  0.00  0.00    +0.121 C 
BRANCH  41  43
ATOM     42  C   UNL     1      -8.941  16.592  67.984  0.00  0.00    +0.086 C 
ATOM     43  N   UNL     1      -9.208  17.915  67.116  0.00  0.00    +0.301 N 
ATOM     44  C   UNL     1      -8.146  18.026  66.202  0.00  0.00    +0.171 C 
ATOM     45  C   UNL     1      -9.555  18.948  67.968  0.00  0.00    +0.114 C 
ATOM     46  C   UNL     1      -8.293  19.675  68.390  0.00  0.00    +0.087 C 
ATOM     47  C   UNL     1      -7.390  18.519  68.701  0.00  0.00    -0.012 A 
ATOM     48  C   UNL     1      -6.272  18.932  69.426  0.00  0.00    +0.036 A 
ATOM     49  C   UNL     1      -5.416  17.988  69.971  0.00  0.00    +0.172 A 
ATOM     50  C   UNL     1      -5.572  16.696  69.491  0.00  0.00    +0.172 A 
ATOM     51  C   UNL     1      -6.847  16.335  69.134  0.00  0.00    +0.041 A 
ATOM     52  C   UNL     1      -7.863  17.292  69.008  0.00  0.00    +0.027 A 
BRANCH  50  53
ATOM     53  O   UNL     1      -4.491  15.832  69.525  0.00  0.00    -0.468 OA
ATOM     54  C   UNL     1      -3.433  15.936  68.600  0.00  0.00    +0.253 C 
ENDBRANCH  50  53
BRANCH  49  55
ATOM     55  O   UNL     1      -4.477  18.282  70.955  0.00  0.00    -0.468 OA
ATOM     56  C   UNL     1      -4.049  19.641  71.008  0.00  0.00    +0.253 C 
ENDBRANCH  49  55
BRANCH  42  57
ATOM     57  C   UNL     1     -10.271  16.908  68.954  0.00  0.00    +0.086 C 
BRANCH  57  61
ATOM     58  C   UNL     1     -12.060  13.364  70.190  0.00  0.00    +0.172 A 
ATOM     59  C   UNL     1     -12.574  14.571  70.646  0.00  0.00    +0.172 A 
ATOM     60  C   UNL     1     -12.051  15.717  70.057  0.00  0.00    +0.036 A 
ATOM     61  C   UNL     1     -10.923  15.649  69.240  0.00  0.00    -0.013 A 
ATOM     62  C   UNL     1     -10.919  14.518  68.431  0.00  0.00    -0.001 A 
ATOM     63  C   UNL     1     -11.523  13.360  68.908  0.00  0.00    +0.040 A 
BRANCH  58  65
ATOM     64  C   UNL     1     -12.480  10.959  70.479  0.00  0.00    +0.253 C 
ATOM     65  O   UNL     1     -12.207  12.238  70.965  0.00  0.00    -0.468 OA
ENDBRANCH  58  65
BRANCH  59  66
ATOM     66  O   UNL     1     -13.230  14.621  71.880  0.00  0.00    -0.468 OA
ATOM     67  C   UNL     1     -14.646  14.447  71.840  0.00  0.00    +0.253 C 
ENDBRANCH  59  66
ENDBRANCH  57  61
ENDBRANCH  42  57
ENDBRANCH  41  43
ENDBRANCH  40  41
ENDBRANCH  38  40
ENDBRANCH  37  38
ENDBRANCH  36  37
ENDBRANCH  35  36
ENDBRANCH   1  35
TORSDOF 26
ENDMDL
MODEL 7
REMARK VINA RESULT:      -6.8      2.098      5.582
REMARK  Name = 
REMARK  26 active torsions:
REMARK  status: ('A' for Active; 'I' for Inactive)
REMARK    1  A    between atoms: O_2  and  C_3
REMARK    2  A    between atoms: C_6  and  C_7
REMARK    3  A    between atoms: C_7  and  C_8
REMARK    4  A    between atoms: C_11  and  O_12
REMARK    5  A    between atoms: C_14  and  O_15
REMARK    6  A    between atoms: N_21  and  C_23
REMARK    7  A    between atoms: C_23  and  C_24
REMARK    8  A    between atoms: C_24  and  C_25
REMARK    9  A    between atoms: C_25  and  O_27
REMARK   10  A    between atoms: O_27  and  C_28
REMARK   11  A    between atoms: C_28  and  C_29
REMARK   12  A    between atoms: C_29  and  C_30
REMARK   13  A    between atoms: C_30  and  C_31
REMARK   14  A    between atoms: C_31  and  C_32
REMARK   15  A    between atoms: C_32  and  O_33
REMARK   16  A    between atoms: O_33  and  C_34
REMARK   17  A    between atoms: C_34  and  C_36
REMARK   18  A    between atoms: C_36  and  C_37
REMARK   19  A    between atoms: C_37  and  N_38
REMARK   20  A    between atoms: C_44  and  O_45
REMARK   21  A    between atoms: C_47  and  O_48
REMARK   22  A    between atoms: C_52  and  C_53
REMARK   23  A    between atoms: C_53  and  C_54
REMARK   24  A    between atoms: C_57  and  O_58
REMARK   25  A    between atoms: C_60  and  O_61
REMARK   26  A    between atoms: C_65  and  O_66
REMARK                            x       y       z     vdW  Elec       q    Type
REMARK                         _______ _______ _______ _____ _____    ______ ____
ROOT
ATOM      1  C   UNL     1     -10.988  11.542  63.988  0.00  0.00    +0.008 C 
ENDROOT
BRANCH   1   2
ATOM      2  C   UNL     1     -10.106  12.074  65.089  0.00  0.00    +0.048 C 
BRANCH   2   3
ATOM      3  C   UNL     1      -9.395  10.875  65.709  0.00  0.00    +0.208 C 
BRANCH   3   4
ATOM      4  O   UNL     1     -10.399  10.139  66.404  0.00  0.00    -0.448 OA
BRANCH   4   5
ATOM      5  C   UNL     1     -10.884  10.535  67.653  0.00  0.00    +0.323 C 
ATOM      6  O   UNL     1     -12.052  11.014  67.633  0.00  0.00    -0.250 OA
BRANCH   5   7
ATOM      7  C   UNL     1     -10.233  10.014  68.895  0.00  0.00    +0.170 C 
BRANCH   7   8
ATOM      8  C   UNL     1     -11.193   9.279  69.754  0.00  0.00    +0.121 C 
BRANCH   8   9
ATOM      9  N   UNL     1     -10.629   8.587  70.884  0.00  0.00    +0.301 N 
ATOM     10  C   UNL     1     -10.955   7.080  70.437  0.00  0.00    +0.086 C 
ATOM     11  C   UNL     1     -10.595   6.484  71.921  0.00  0.00    +0.027 A 
ATOM     12  C   UNL     1      -9.451   6.893  72.486  0.00  0.00    -0.012 A 
ATOM     13  C   UNL     1      -9.148   6.327  73.721  0.00  0.00    +0.036 A 
ATOM     14  C   UNL     1      -9.879   5.246  74.194  0.00  0.00    +0.172 A 
ATOM     15  C   UNL     1     -10.931   4.731  73.445  0.00  0.00    +0.172 A 
ATOM     16  C   UNL     1      -8.484   7.752  71.780  0.00  0.00    +0.087 C 
ATOM     17  C   UNL     1     -11.251   5.316  72.226  0.00  0.00    +0.041 A 
ATOM     18  C   UNL     1      -9.262   8.762  71.007  0.00  0.00    +0.114 C 
ATOM     19  C   UNL     1     -11.395   8.778  72.087  0.00  0.00    +0.171 C 
BRANCH  14  20
ATOM     20  O   UNL     1      -9.843   4.917  75.553  0.00  0.00    -0.468 OA
ATOM     21  C   UNL     1      -9.424   5.861  76.508  0.00  0.00    +0.253 C 
ENDBRANCH  14  20
BRANCH  15  22
ATOM     22  O   UNL     1     -11.329   3.420  73.679  0.00  0.00    -0.468 OA
ATOM     23  C   UNL     1     -10.583   2.375  73.064  0.00  0.00    +0.253 C 
ENDBRANCH  15  22
BRANCH  10  24
ATOM     24  C   UNL     1      -9.417   6.774  69.834  0.00  0.00    +0.086 C 
BRANCH  24  25
ATOM     25  C   UNL     1      -9.802   5.947  68.645  0.00  0.00    -0.013 A 
ATOM     26  C   UNL     1      -9.773   4.579  68.785  0.00  0.00    +0.036 A 
ATOM     27  C   UNL     1      -9.608   3.770  67.683  0.00  0.00    +0.172 A 
ATOM     28  C   UNL     1      -9.751   4.293  66.410  0.00  0.00    +0.172 A 
ATOM     29  C   UNL     1      -9.754   5.665  66.224  0.00  0.00    +0.040 A 
ATOM     30  C   UNL     1      -9.797   6.430  67.361  0.00  0.00    -0.001 A 
BRANCH  28  31
ATOM     31  O   UNL     1      -9.422   3.522  65.303  0.00  0.00    -0.468 OA
ATOM     32  C   UNL     1      -9.120   4.130  64.077  0.00  0.00    +0.253 C 
ENDBRANCH  28  31
BRANCH  27  33
ATOM     33  O   UNL     1      -9.239   2.439  67.779  0.00  0.00    -0.468 OA
ATOM     34  C   UNL     1      -9.253   1.780  69.016  0.00  0.00    +0.253 C 
ENDBRANCH  27  33
ENDBRANCH  24  25
ENDBRANCH  10  24
ENDBRANCH   8   9
ENDBRANCH   7   8
ENDBRANCH   5   7
ENDBRANCH   4   5
ENDBRANCH   3   4
ENDBRANCH   2   3
ENDBRANCH   1   2
BRANCH   1  35
ATOM     35  C   UNL     1     -12.321  12.237  64.101  0.00  0.00    +0.048 C 
BRANCH  35  36
ATOM     36  C   UNL     1     -12.295  13.387  65.083  0.00  0.00    +0.208 C 
BRANCH  36  37
ATOM     37  O   UNL     1     -12.345  14.625  64.417  0.00  0.00    -0.448 OA
BRANCH  37  38
ATOM     38  C   UNL     1     -11.410  15.644  64.628  0.00  0.00    +0.323 C 
ATOM     39  O   UNL     1     -11.495  16.653  63.899  0.00  0.00    -0.250 OA
BRANCH  38  40
ATOM     40  C   UNL     1     -10.472  15.573  65.789  0.00  0.00    +0.170 C 
BRANCH  40  41
ATOM     41  C   UNL     1     -10.385  16.870  66.544  0.00  0.00    +0.121 C 
BRANCH  41  43
ATOM     42  C   UNL     1      -9.294  15.589  68.174  0.00  0.00    +0.086 C 
ATOM     43  N   UNL     1      -9.095  16.877  67.238  0.00  0.00    +0.301 N 
ATOM     44  C   UNL     1      -8.093  16.556  66.307  0.00  0.00    +0.171 C 
ATOM     45  C   UNL     1      -9.023  18.005  68.037  0.00  0.00    +0.114 C 
ATOM     46  C   UNL     1      -7.572  18.248  68.403  0.00  0.00    +0.087 C 
ATOM     47  C   UNL     1      -7.134  16.861  68.766  0.00  0.00    -0.012 A 
ATOM     48  C   UNL     1      -5.921  16.877  69.454  0.00  0.00    +0.036 A 
ATOM     49  C   UNL     1      -5.443  15.715  70.040  0.00  0.00    +0.172 A 
ATOM     50  C   UNL     1      -6.067  14.545  69.633  0.00  0.00    +0.172 A 
ATOM     51  C   UNL     1      -7.397  14.650  69.312  0.00  0.00    +0.041 A 
ATOM     52  C   UNL     1      -8.005  15.902  69.145  0.00  0.00    +0.027 A 
BRANCH  50  53
ATOM     53  O   UNL     1      -5.367  13.352  69.702  0.00  0.00    -0.468 OA
ATOM     54  C   UNL     1      -4.710  12.816  68.576  0.00  0.00    +0.253 C 
ENDBRANCH  50  53
BRANCH  49  55
ATOM     55  O   UNL     1      -4.432  15.698  70.995  0.00  0.00    -0.468 OA
ATOM     56  C   UNL     1      -4.665  14.856  72.122  0.00  0.00    +0.253 C 
ENDBRANCH  49  55
BRANCH  42  57
ATOM     57  C   UNL     1     -10.391  16.407  69.141  0.00  0.00    +0.086 C 
BRANCH  57  61
ATOM     58  C   UNL     1     -12.865  13.749  71.168  0.00  0.00    +0.172 A 
ATOM     59  C   UNL     1     -13.064  15.114  71.335  0.00  0.00    +0.172 A 
ATOM     60  C   UNL     1     -12.329  15.944  70.496  0.00  0.00    +0.036 A 
ATOM     61  C   UNL     1     -11.295  15.433  69.712  0.00  0.00    -0.013 A 
ATOM     62  C   UNL     1     -11.594  14.181  69.186  0.00  0.00    -0.001 A 
ATOM     63  C   UNL     1     -12.418  13.334  69.920  0.00  0.00    +0.040 A 
BRANCH  58  65
ATOM     64  C   UNL     1     -13.411  11.517  72.041  0.00  0.00    +0.253 C 
ATOM     65  O   UNL     1     -13.219  12.892  72.182  0.00  0.00    -0.468 OA
ENDBRANCH  58  65
BRANCH  59  66
ATOM     66  O   UNL     1     -13.620  15.590  72.527  0.00  0.00    -0.468 OA
ATOM     67  C   UNL     1     -12.690  15.967  73.541  0.00  0.00    +0.253 C 
ENDBRANCH  59  66
ENDBRANCH  57  61
ENDBRANCH  42  57
ENDBRANCH  41  43
ENDBRANCH  40  41
ENDBRANCH  38  40
ENDBRANCH  37  38
ENDBRANCH  36  37
ENDBRANCH  35  36
ENDBRANCH   1  35
TORSDOF 26
ENDMDL
MODEL 8
REMARK VINA RESULT:      -6.8      2.312     10.735
REMARK  Name = 
REMARK  26 active torsions:
REMARK  status: ('A' for Active; 'I' for Inactive)
REMARK    1  A    between atoms: O_2  and  C_3
REMARK    2  A    between atoms: C_6  and  C_7
REMARK    3  A    between atoms: C_7  and  C_8
REMARK    4  A    between atoms: C_11  and  O_12
REMARK    5  A    between atoms: C_14  and  O_15
REMARK    6  A    between atoms: N_21  and  C_23
REMARK    7  A    between atoms: C_23  and  C_24
REMARK    8  A    between atoms: C_24  and  C_25
REMARK    9  A    between atoms: C_25  and  O_27
REMARK   10  A    between atoms: O_27  and  C_28
REMARK   11  A    between atoms: C_28  and  C_29
REMARK   12  A    between atoms: C_29  and  C_30
REMARK   13  A    between atoms: C_30  and  C_31
REMARK   14  A    between atoms: C_31  and  C_32
REMARK   15  A    between atoms: C_32  and  O_33
REMARK   16  A    between atoms: O_33  and  C_34
REMARK   17  A    between atoms: C_34  and  C_36
REMARK   18  A    between atoms: C_36  and  C_37
REMARK   19  A    between atoms: C_37  and  N_38
REMARK   20  A    between atoms: C_44  and  O_45
REMARK   21  A    between atoms: C_47  and  O_48
REMARK   22  A    between atoms: C_52  and  C_53
REMARK   23  A    between atoms: C_53  and  C_54
REMARK   24  A    between atoms: C_57  and  O_58
REMARK   25  A    between atoms: C_60  and  O_61
REMARK   26  A    between atoms: C_65  and  O_66
REMARK                            x       y       z     vdW  Elec       q    Type
REMARK                         _______ _______ _______ _____ _____    ______ ____
ROOT
ATOM      1  C   UNL     1     -11.147  14.514  66.052  0.00  0.00    +0.008 C 
ENDROOT
BRANCH   1   2
ATOM      2  C   UNL     1     -10.824  15.636  65.098  0.00  0.00    +0.048 C 
BRANCH   2   3
ATOM      3  C   UNL     1      -9.983  16.649  65.869  0.00  0.00    +0.208 C 
BRANCH   3   4
ATOM      4  O   UNL     1     -10.537  17.928  65.568  0.00  0.00    -0.448 OA
BRANCH   4   5
ATOM      5  C   UNL     1     -10.248  19.063  66.329  0.00  0.00    +0.323 C 
ATOM      6  O   UNL     1     -11.103  19.328  67.220  0.00  0.00    -0.250 OA
BRANCH   5   7
ATOM      7  C   UNL     1      -8.853  19.603  66.347  0.00  0.00    +0.170 C 
BRANCH   7   8
ATOM      8  C   UNL     1      -8.437  20.012  67.711  0.00  0.00    +0.121 C 
BRANCH   8   9
ATOM      9  N   UNL     1      -7.415  19.207  68.329  0.00  0.00    +0.301 N 
ATOM     10  C   UNL     1      -6.433  19.046  67.069  0.00  0.00    +0.086 C 
ATOM     11  C   UNL     1      -5.563  17.869  67.805  0.00  0.00    +0.027 A 
ATOM     12  C   UNL     1      -5.172  18.092  69.067  0.00  0.00    -0.012 A 
ATOM     13  C   UNL     1      -4.388  17.097  69.644  0.00  0.00    +0.036 A 
ATOM     14  C   UNL     1      -3.871  16.072  68.865  0.00  0.00    +0.172 A 
ATOM     15  C   UNL     1      -4.146  16.021  67.503  0.00  0.00    +0.172 A 
ATOM     16  C   UNL     1      -5.402  19.378  69.749  0.00  0.00    +0.087 C 
ATOM     17  C   UNL     1      -4.953  16.999  66.933  0.00  0.00    +0.041 A 
ATOM     18  C   UNL     1      -6.760  19.854  69.362  0.00  0.00    +0.114 C 
ATOM     19  C   UNL     1      -7.861  17.869  68.610  0.00  0.00    +0.171 C 
BRANCH  14  20
ATOM     20  O   UNL     1      -3.417  14.894  69.468  0.00  0.00    -0.468 OA
ATOM     21  C   UNL     1      -3.161  14.850  70.850  0.00  0.00    +0.253 C 
ENDBRANCH  14  20
BRANCH  15  22
ATOM     22  O   UNL     1      -3.282  15.309  66.680  0.00  0.00    -0.468 OA
ATOM     23  C   UNL     1      -1.938  15.765  66.568  0.00  0.00    +0.253 C 
ENDBRANCH  15  22
BRANCH  10  24
ATOM     24  C   UNL     1      -5.380  20.262  67.551  0.00  0.00    +0.086 C 
BRANCH  24  25
ATOM     25  C   UNL     1      -4.734  20.539  66.228  0.00  0.00    -0.013 A 
ATOM     26  C   UNL     1      -5.559  20.787  65.156  0.00  0.00    +0.036 A 
ATOM     27  C   UNL     1      -5.123  20.549  63.872  0.00  0.00    +0.172 A 
ATOM     28  C   UNL     1      -3.779  20.331  63.624  0.00  0.00    +0.172 A 
ATOM     29  C   UNL     1      -2.922  20.048  64.674  0.00  0.00    +0.040 A 
ATOM     30  C   UNL     1      -3.442  20.184  65.935  0.00  0.00    -0.001 A 
BRANCH  28  31
ATOM     31  O   UNL     1      -3.364  19.928  62.362  0.00  0.00    -0.468 OA
ATOM     32  C   UNL     1      -2.967  18.603  62.134  0.00  0.00    +0.253 C 
ENDBRANCH  28  31
BRANCH  27  33
ATOM     33  O   UNL     1      -5.986  20.454  62.793  0.00  0.00    -0.468 OA
ATOM     34  C   UNL     1      -6.483  21.607  62.170  0.00  0.00    +0.253 C 
ENDBRANCH  27  33
ENDBRANCH  24  25
ENDBRANCH  10  24
ENDBRANCH   8   9
ENDBRANCH   7   8
ENDBRANCH   5   7
ENDBRANCH   4   5
ENDBRANCH   3   4
ENDBRANCH   2   3
ENDBRANCH   1   2
BRANCH   1  35
ATOM     35  C   UNL     1     -12.390  13.830  65.541  0.00  0.00    +0.048 C 
BRANCH  35  36
ATOM     36  C   UNL     1     -12.158  13.106  64.233  0.00  0.00    +0.208 C 
BRANCH  36  37
ATOM     37  O   UNL     1     -11.895  11.741  64.448  0.00  0.00    -0.448 OA
BRANCH  37  38
ATOM     38  C   UNL     1     -10.602  11.208  64.473  0.00  0.00    +0.323 C 
ATOM     39  O   UNL     1      -9.802  11.614  63.604  0.00  0.00    -0.250 OA
BRANCH  38  40
ATOM     40  C   UNL     1     -10.177  10.322  65.598  0.00  0.00    +0.170 C 
BRANCH  40  41
ATOM     41  C   UNL     1     -10.978  10.551  66.850  0.00  0.00    +0.121 C 
BRANCH  41  43
ATOM     42  C   UNL     1     -11.242  10.265  69.159  0.00  0.00    +0.086 C 
ATOM     43  N   UNL     1     -10.247   9.917  67.950  0.00  0.00    +0.301 N 
ATOM     44  C   UNL     1     -10.296   8.525  67.766  0.00  0.00    +0.171 C 
ATOM     45  C   UNL     1      -9.055  10.592  68.143  0.00  0.00    +0.114 C 
ATOM     46  C   UNL     1      -8.122   9.709  68.949  0.00  0.00    +0.087 C 
ATOM     47  C   UNL     1      -9.053   9.209  70.013  0.00  0.00    -0.012 A 
ATOM     48  C   UNL     1      -8.350   8.635  71.071  0.00  0.00    +0.036 A 
ATOM     49  C   UNL     1      -9.017   8.285  72.235  0.00  0.00    +0.172 A 
ATOM     50  C   UNL     1     -10.401   8.253  72.140  0.00  0.00    +0.172 A 
ATOM     51  C   UNL     1     -10.967   9.154  71.273  0.00  0.00    +0.041 A 
ATOM     52  C   UNL     1     -10.184   9.863  70.352  0.00  0.00    +0.027 A 
BRANCH  50  53
ATOM     53  O   UNL     1     -11.114   7.432  72.996  0.00  0.00    -0.468 OA
ATOM     54  C   UNL     1     -10.956   6.031  72.978  0.00  0.00    +0.253 C 
ENDBRANCH  50  53
BRANCH  49  55
ATOM     55  O   UNL     1      -8.371   8.010  73.436  0.00  0.00    -0.468 OA
ATOM     56  C   UNL     1      -6.947   8.014  73.382  0.00  0.00    +0.253 C 
ENDBRANCH  49  55
BRANCH  42  57
ATOM     57  C   UNL     1     -10.795  11.879  69.122  0.00  0.00    +0.086 C 
BRANCH  57  61
ATOM     58  C   UNL     1     -13.025  14.255  71.706  0.00  0.00    +0.172 A 
ATOM     59  C   UNL     1     -12.571  14.802  70.512  0.00  0.00    +0.172 A 
ATOM     60  C   UNL     1     -11.992  13.911  69.614  0.00  0.00    +0.036 A 
ATOM     61  C   UNL     1     -11.682  12.608  70.002  0.00  0.00    -0.013 A 
ATOM     62  C   UNL     1     -12.647  12.056  70.837  0.00  0.00    -0.001 A 
ATOM     63  C   UNL     1     -13.350  12.904  71.688  0.00  0.00    +0.040 A 
BRANCH  58  65
ATOM     64  C   UNL     1     -12.405  15.157  73.907  0.00  0.00    +0.253 C 
ATOM     65  O   UNL     1     -13.231  15.080  72.785  0.00  0.00    -0.468 OA
ENDBRANCH  58  65
BRANCH  59  66
ATOM     66  O   UNL     1     -12.335  16.178  70.428  0.00  0.00    -0.468 OA
ATOM     67  C   UNL     1     -11.149  16.564  69.735  0.00  0.00    +0.253 C 
ENDBRANCH  59  66
ENDBRANCH  57  61
ENDBRANCH  42  57
ENDBRANCH  41  43
ENDBRANCH  40  41
ENDBRANCH  38  40
ENDBRANCH  37  38
ENDBRANCH  36  37
ENDBRANCH  35  36
ENDBRANCH   1  35
TORSDOF 26
ENDMDL
MODEL 9
REMARK VINA RESULT:      -6.7      2.187      4.643
REMARK  Name = 
REMARK  26 active torsions:
REMARK  status: ('A' for Active; 'I' for Inactive)
REMARK    1  A    between atoms: O_2  and  C_3
REMARK    2  A    between atoms: C_6  and  C_7
REMARK    3  A    between atoms: C_7  and  C_8
REMARK    4  A    between atoms: C_11  and  O_12
REMARK    5  A    between atoms: C_14  and  O_15
REMARK    6  A    between atoms: N_21  and  C_23
REMARK    7  A    between atoms: C_23  and  C_24
REMARK    8  A    between atoms: C_24  and  C_25
REMARK    9  A    between atoms: C_25  and  O_27
REMARK   10  A    between atoms: O_27  and  C_28
REMARK   11  A    between atoms: C_28  and  C_29
REMARK   12  A    between atoms: C_29  and  C_30
REMARK   13  A    between atoms: C_30  and  C_31
REMARK   14  A    between atoms: C_31  and  C_32
REMARK   15  A    between atoms: C_32  and  O_33
REMARK   16  A    between atoms: O_33  and  C_34
REMARK   17  A    between atoms: C_34  and  C_36
REMARK   18  A    between atoms: C_36  and  C_37
REMARK   19  A    between atoms: C_37  and  N_38
REMARK   20  A    between atoms: C_44  and  O_45
REMARK   21  A    between atoms: C_47  and  O_48
REMARK   22  A    between atoms: C_52  and  C_53
REMARK   23  A    between atoms: C_53  and  C_54
REMARK   24  A    between atoms: C_57  and  O_58
REMARK   25  A    between atoms: C_60  and  O_61
REMARK   26  A    between atoms: C_65  and  O_66
REMARK                            x       y       z     vdW  Elec       q    Type
REMARK                         _______ _______ _______ _____ _____    ______ ____
ROOT
ATOM      1  C   UNL     1     -10.191  11.583  63.477  0.00  0.00    +0.008 C 
ENDROOT
BRANCH   1   2
ATOM      2  C   UNL     1     -10.013  10.359  64.340  0.00  0.00    +0.048 C 
BRANCH   2   3
ATOM      3  C   UNL     1      -8.908   9.522  63.705  0.00  0.00    +0.208 C 
BRANCH   3   4
ATOM      4  O   UNL     1      -7.729  10.322  63.758  0.00  0.00    -0.448 OA
BRANCH   4   5
ATOM      5  C   UNL     1      -6.545   9.866  64.342  0.00  0.00    +0.323 C 
ATOM      6  O   UNL     1      -5.531  10.578  64.093  0.00  0.00    -0.250 OA
BRANCH   5   7
ATOM      7  C   UNL     1      -6.609   8.904  65.484  0.00  0.00    +0.170 C 
BRANCH   7   8
ATOM      8  C   UNL     1      -6.496   9.592  66.793  0.00  0.00    +0.121 C 
BRANCH   8   9
ATOM      9  N   UNL     1      -7.728   9.790  67.513  0.00  0.00    +0.301 N 
ATOM     10  C   UNL     1      -7.161   9.658  69.009  0.00  0.00    +0.086 C 
ATOM     11  C   UNL     1      -8.667   9.550  69.648  0.00  0.00    +0.027 A 
ATOM     12  C   UNL     1      -9.574  10.448  69.239  0.00  0.00    -0.012 A 
ATOM     13  C   UNL     1     -10.826  10.362  69.841  0.00  0.00    +0.036 A 
ATOM     14  C   UNL     1     -11.017   9.546  70.947  0.00  0.00    +0.172 A 
ATOM     15  C   UNL     1      -9.963   8.796  71.454  0.00  0.00    +0.172 A 
ATOM     16  C   UNL     1      -9.230  11.566  68.344  0.00  0.00    +0.087 C 
ATOM     17  C   UNL     1      -8.720   8.859  70.835  0.00  0.00    +0.041 A 
ATOM     18  C   UNL     1      -8.278  11.045  67.322  0.00  0.00    +0.114 C 
ATOM     19  C   UNL     1      -8.633   8.681  67.373  0.00  0.00    +0.171 C 
BRANCH  14  20
ATOM     20  O   UNL     1     -12.310   9.163  71.320  0.00  0.00    -0.468 OA
ATOM     21  C   UNL     1     -13.186  10.086  71.920  0.00  0.00    +0.253 C 
ENDBRANCH  14  20
BRANCH  15  22
ATOM     22  O   UNL     1     -10.026   8.377  72.778  0.00  0.00    -0.468 OA
ATOM     23  C   UNL     1      -9.789   7.001  73.055  0.00  0.00    +0.253 C 
ENDBRANCH  15  22
BRANCH  10  24
ATOM     24  C   UNL     1      -7.064  11.315  69.272  0.00  0.00    +0.086 C 
BRANCH  24  25
ATOM     25  C   UNL     1      -5.818  11.338  70.104  0.00  0.00    -0.013 A 
ATOM     26  C   UNL     1      -5.243  10.130  70.423  0.00  0.00    +0.036 A 
ATOM     27  C   UNL     1      -4.451  10.010  71.544  0.00  0.00    +0.172 A 
ATOM     28  C   UNL     1      -3.997  11.142  72.197  0.00  0.00    +0.172 A 
ATOM     29  C   UNL     1      -4.572  12.372  71.925  0.00  0.00    +0.040 A 
ATOM     30  C   UNL     1      -5.448  12.413  70.872  0.00  0.00    -0.001 A 
BRANCH  28  31
ATOM     31  O   UNL     1      -3.342  11.023  73.415  0.00  0.00    -0.468 OA
ATOM     32  C   UNL     1      -3.723  11.815  74.507  0.00  0.00    +0.253 C 
ENDBRANCH  28  31
BRANCH  27  33
ATOM     33  O   UNL     1      -4.125   8.787  72.102  0.00  0.00    -0.468 OA
ATOM     34  C   UNL     1      -5.118   7.840  72.385  0.00  0.00    +0.253 C 
ENDBRANCH  27  33
ENDBRANCH  24  25
ENDBRANCH  10  24
ENDBRANCH   8   9
ENDBRANCH   7   8
ENDBRANCH   5   7
ENDBRANCH   4   5
ENDBRANCH   3   4
ENDBRANCH   2   3
ENDBRANCH   1   2
BRANCH   1  35
ATOM     35  C   UNL     1     -11.673  11.812  63.319  0.00  0.00    +0.048 C 
BRANCH  35  36
ATOM     36  C   UNL     1     -12.091  13.207  63.729  0.00  0.00    +0.208 C 
BRANCH  36  37
ATOM     37  O   UNL     1     -12.864  13.182  64.903  0.00  0.00    -0.448 OA
BRANCH  37  38
ATOM     38  C   UNL     1     -12.305  13.123  66.184  0.00  0.00    +0.323 C 
ATOM     39  O   UNL     1     -12.163  11.991  66.691  0.00  0.00    -0.250 OA
BRANCH  38  40
ATOM     40  C   UNL     1     -11.758  14.358  66.821  0.00  0.00    +0.170 C 
BRANCH  40  41
ATOM     41  C   UNL     1     -10.268  14.482  66.662  0.00  0.00    +0.121 C 
BRANCH  41  43
ATOM     42  C   UNL     1      -8.353  15.825  66.555  0.00  0.00    +0.086 C 
ATOM     43  N   UNL     1      -9.941  15.905  66.766  0.00  0.00    +0.301 N 
ATOM     44  C   UNL     1     -10.471  16.562  65.642  0.00  0.00    +0.171 C 
ATOM     45  C   UNL     1     -10.200  16.331  68.057  0.00  0.00    +0.114 C 
ATOM     46  C   UNL     1     -10.287  17.846  68.060  0.00  0.00    +0.087 C 
ATOM     47  C   UNL     1      -9.097  18.200  67.220  0.00  0.00    -0.012 A 
ATOM     48  C   UNL     1      -8.772  19.550  67.347  0.00  0.00    +0.036 A 
ATOM     49  C   UNL     1      -7.593  20.031  66.800  0.00  0.00    +0.172 A 
ATOM     50  C   UNL     1      -6.968  19.185  65.895  0.00  0.00    +0.172 A 
ATOM     51  C   UNL     1      -7.113  17.840  66.129  0.00  0.00    +0.041 A 
ATOM     52  C   UNL     1      -8.051  17.362  67.054  0.00  0.00    +0.027 A 
BRANCH  50  53
ATOM     53  O   UNL     1      -6.151  19.729  64.920  0.00  0.00    -0.468 OA
ATOM     54  C   UNL     1      -5.350  18.918  64.091  0.00  0.00    +0.253 C 
ENDBRANCH  50  53
BRANCH  49  55
ATOM     55  O   UNL     1      -7.035  21.260  67.139  0.00  0.00    -0.468 OA
ATOM     56  C   UNL     1      -5.894  21.203  67.991  0.00  0.00    +0.253 C 
ENDBRANCH  49  55
BRANCH  42  57
ATOM     57  C   UNL     1      -8.141  15.148  68.073  0.00  0.00    +0.086 C 
BRANCH  57  61
ATOM     58  C   UNL     1      -4.183  15.856  69.133  0.00  0.00    +0.172 A 
ATOM     59  C   UNL     1      -5.180  16.075  70.074  0.00  0.00    +0.172 A 
ATOM     60  C   UNL     1      -6.456  15.649  69.721  0.00  0.00    +0.036 A 
ATOM     61  C   UNL     1      -6.739  15.250  68.415  0.00  0.00    -0.013 A 
ATOM     62  C   UNL     1      -5.698  14.528  67.841  0.00  0.00    -0.001 A 
ATOM     63  C   UNL     1      -4.395  14.822  68.229  0.00  0.00    +0.040 A 
BRANCH  58  65
ATOM     64  C   UNL     1      -2.080  16.707  68.185  0.00  0.00    +0.253 C 
ATOM     65  O   UNL     1      -3.017  16.580  69.211  0.00  0.00    -0.468 OA
ENDBRANCH  58  65
BRANCH  59  66
ATOM     66  O   UNL     1      -4.982  17.023  71.083  0.00  0.00    -0.468 OA
ATOM     67  C   UNL     1      -5.248  18.378  70.725  0.00  0.00    +0.253 C 
ENDBRANCH  59  66
ENDBRANCH  57  61
ENDBRANCH  42  57
ENDBRANCH  41  43
ENDBRANCH  40  41
ENDBRANCH  38  40
ENDBRANCH  37  38
ENDBRANCH  36  37
ENDBRANCH  35  36
ENDBRANCH   1  35
TORSDOF 26
ENDMDL
