MODEL 1
REMARK VINA RESULT:      -7.1      0.000      0.000
REMARK  Name = 
REMARK  10 active torsions:
REMARK  status: ('A' for Active; 'I' for Inactive)
REMARK    1  A    between atoms: C_2  and  O_3
REMARK    2  A    between atoms: O_3  and  C_4
REMARK    3  A    between atoms: C_6  and  C_7
REMARK    4  A    between atoms: C_7  and  C_8
REMARK    5  A    between atoms: N_10  and  C_11
REMARK    6  A    between atoms: C_11  and  C_12
REMARK    7  A    between atoms: C_11  and  C_16
REMARK    8  A    between atoms: C_12  and  C_13
REMARK    9  A    between atoms: C_21  and  N_22
REMARK   10  A    between atoms: C_30  and  C_31
REMARK                            x       y       z     vdW  Elec       q    Type
REMARK                         _______ _______ _______ _____ _____    ______ ____
ROOT
ATOM      1  C   UNL     1     -11.325  13.397  67.979  0.00  0.00    +0.119 C 
ENDROOT
BRANCH   1   2
ATOM      2  C   UNL     1     -12.006  12.502  69.157  0.00  0.00    +0.011 A 
ATOM      3  C   UNL     1     -12.137  12.999  70.380  0.00  0.00    +0.045 A 
ATOM      4  C   UNL     1     -12.468  12.087  71.379  0.00  0.00    +0.014 A 
ATOM      5  C   UNL     1     -12.377  10.718  71.156  0.00  0.00    +0.001 A 
ATOM      6  C   UNL     1     -12.414  10.265  69.842  0.00  0.00    -0.000 A 
ATOM      7  C   UNL     1     -11.863  11.140  68.913  0.00  0.00    -0.001 A 
BRANCH   3   8
ATOM      8  N   UNL     1     -12.541  14.373  70.504  0.00  0.00    -0.308 N 
ATOM      9  C   UNL     1     -11.550  15.148  71.273  0.00  0.00    +0.091 C 
ATOM     10  C   UNL     1     -12.178  16.111  72.219  0.00  0.00    +0.021 C 
ATOM     11  C   UNL     1     -12.855  15.354  73.355  0.00  0.00    +0.004 C 
ATOM     12  C   UNL     1     -13.581  14.184  72.703  0.00  0.00    +0.021 C 
ATOM     13  C   UNL     1     -13.811  14.481  71.247  0.00  0.00    +0.091 C 
ENDBRANCH   3   8
ENDBRANCH   1   2
BRANCH   1  15
ATOM     14  C   UNL     1      -8.927  14.001  68.324  0.00  0.00    +0.246 C 
ATOM     15  N   UNL     1      -9.847  12.896  68.328  0.00  0.00    -0.202 NA
ATOM     16  O   UNL     1      -9.225  14.889  69.180  0.00  0.00    -0.273 OA
BRANCH  14  17
ATOM     17  C   UNL     1      -7.886  14.252  67.344  0.00  0.00    +0.113 C 
BRANCH  17  22
ATOM     18  C   UNL     1      -8.248  17.858  66.884  0.00  0.00    +0.145 A 
ATOM     19  C   UNL     1      -9.628  17.824  66.704  0.00  0.00    +0.114 A 
ATOM     20  C   UNL     1     -10.086  16.740  65.960  0.00  0.00    +0.009 A 
ATOM     21  C   UNL     1      -9.281  15.613  65.821  0.00  0.00    -0.003 A 
ATOM     22  C   UNL     1      -8.079  15.473  66.512  0.00  0.00    -0.010 A 
ATOM     23  C   UNL     1      -7.484  16.694  66.821  0.00  0.00    +0.033 A 
BRANCH  19  24
ATOM     24  C   UNL     1     -10.504  18.564  67.618  0.00  0.00    +0.391 C 
ATOM     25  O   UNL     1     -10.403  18.269  68.982  0.00  0.00    -0.240 OA
ATOM     26  O   UNL     1     -11.008  19.674  67.354  0.00  0.00    -0.240 OA
ENDBRANCH  19  24
BRANCH  18  27
ATOM     27  O   UNL     1      -7.719  19.100  67.162  0.00  0.00    -0.475 OA
BRANCH  27  29
ATOM     28  C   UNL     1      -6.830  19.651  69.327  0.00  0.00    +0.051 C 
ATOM     29  C   UNL     1      -6.545  19.263  67.948  0.00  0.00    +0.206 C 
ENDBRANCH  27  29
ENDBRANCH  18  27
ENDBRANCH  17  22
ENDBRANCH  14  17
ENDBRANCH   1  15
BRANCH   1  30
ATOM     30  C   UNL     1     -11.520  12.273  66.766  0.00  0.00    +0.026 C 
BRANCH  30  31
ATOM     31  C   UNL     1     -11.632  13.096  65.512  0.00  0.00    +0.002 C 
ATOM     32  C   UNL     1     -11.939  12.249  64.292  0.00  0.00    +0.000 C 
ATOM     33  C   UNL     1     -12.741  14.098  65.668  0.00  0.00    +0.000 C 
ENDBRANCH  30  31
ENDBRANCH   1  30
TORSDOF 10
ENDMDL
MODEL 2
REMARK VINA RESULT:      -7.1      3.235      8.060
REMARK  Name = 
REMARK  10 active torsions:
REMARK  status: ('A' for Active; 'I' for Inactive)
REMARK    1  A    between atoms: C_2  and  O_3
REMARK    2  A    between atoms: O_3  and  C_4
REMARK    3  A    between atoms: C_6  and  C_7
REMARK    4  A    between atoms: C_7  and  C_8
REMARK    5  A    between atoms: N_10  and  C_11
REMARK    6  A    between atoms: C_11  and  C_12
REMARK    7  A    between atoms: C_11  and  C_16
REMARK    8  A    between atoms: C_12  and  C_13
REMARK    9  A    between atoms: C_21  and  N_22
REMARK   10  A    between atoms: C_30  and  C_31
REMARK                            x       y       z     vdW  Elec       q    Type
REMARK                         _______ _______ _______ _____ _____    ______ ____
ROOT
ATOM      1  C   UNL     1     -10.762  14.934  68.630  0.00  0.00    +0.119 C 
ENDROOT
BRANCH   1   2
ATOM      2  C   UNL     1      -9.349  15.602  68.175  0.00  0.00    +0.011 A 
ATOM      3  C   UNL     1      -9.325  16.528  67.224  0.00  0.00    +0.045 A 
ATOM      4  C   UNL     1      -8.070  16.841  66.707  0.00  0.00    +0.014 A 
ATOM      5  C   UNL     1      -6.969  16.032  66.963  0.00  0.00    +0.001 A 
ATOM      6  C   UNL     1      -7.009  15.208  68.082  0.00  0.00    -0.000 A 
ATOM      7  C   UNL     1      -8.278  14.749  68.417  0.00  0.00    -0.001 A 
BRANCH   3   8
ATOM      8  N   UNL     1     -10.364  17.521  67.232  0.00  0.00    -0.308 N 
ATOM      9  C   UNL     1     -10.243  18.421  66.069  0.00  0.00    +0.091 C 
ATOM     10  C   UNL     1     -10.509  19.845  66.411  0.00  0.00    +0.021 C 
ATOM     11  C   UNL     1      -9.381  20.388  67.279  0.00  0.00    +0.004 C 
ATOM     12  C   UNL     1      -9.074  19.297  68.297  0.00  0.00    +0.021 C 
ATOM     13  C   UNL     1     -10.259  18.380  68.426  0.00  0.00    +0.091 C 
ENDBRANCH   3   8
ENDBRANCH   1   2
BRANCH   1  15
ATOM     14  C   UNL     1     -11.133  12.598  67.832  0.00  0.00    +0.246 C 
ATOM     15  N   UNL     1     -10.197  13.443  68.523  0.00  0.00    -0.202 NA
ATOM     16  O   UNL     1     -11.364  12.990  66.647  0.00  0.00    -0.273 OA
BRANCH  14  17
ATOM     17  C   UNL     1     -11.930  11.536  68.418  0.00  0.00    +0.113 C 
BRANCH  17  22
ATOM     18  C   UNL     1     -11.354   9.186  71.156  0.00  0.00    +0.145 A 
ATOM     19  C   UNL     1     -12.588   9.398  71.765  0.00  0.00    +0.114 A 
ATOM     20  C   UNL     1     -13.019  10.721  71.749  0.00  0.00    +0.009 A 
ATOM     21  C   UNL     1     -12.470  11.612  70.831  0.00  0.00    -0.003 A 
ATOM     22  C   UNL     1     -11.595  11.196  69.830  0.00  0.00    -0.010 A 
ATOM     23  C   UNL     1     -10.876  10.055  70.177  0.00  0.00    +0.033 A 
BRANCH  19  24
ATOM     24  C   UNL     1     -13.520   8.280  71.938  0.00  0.00    +0.391 C 
ATOM     25  O   UNL     1     -14.772   8.567  72.492  0.00  0.00    -0.240 OA
ATOM     26  O   UNL     1     -13.464   7.219  71.284  0.00  0.00    -0.240 OA
ENDBRANCH  19  24
BRANCH  18  27
ATOM     27  O   UNL     1     -10.682   8.053  71.561  0.00  0.00    -0.475 OA
BRANCH  27  29
ATOM     28  C   UNL     1     -10.355   7.005  73.699  0.00  0.00    +0.051 C 
ATOM     29  C   UNL     1      -9.903   8.019  72.750  0.00  0.00    +0.206 C 
ENDBRANCH  27  29
ENDBRANCH  18  27
ENDBRANCH  17  22
ENDBRANCH  14  17
ENDBRANCH   1  15
BRANCH   1  30
ATOM     30  C   UNL     1     -10.482  15.022  70.269  0.00  0.00    +0.026 C 
BRANCH  30  31
ATOM     31  C   UNL     1     -11.688  15.735  70.816  0.00  0.00    +0.002 C 
ATOM     32  C   UNL     1     -12.981  15.226  70.209  0.00  0.00    +0.000 C 
ATOM     33  C   UNL     1     -11.763  15.525  72.302  0.00  0.00    +0.000 C 
ENDBRANCH  30  31
ENDBRANCH   1  30
TORSDOF 10
ENDMDL
MODEL 3
REMARK VINA RESULT:      -7.0      3.427      7.845
REMARK  Name = 
REMARK  10 active torsions:
REMARK  status: ('A' for Active; 'I' for Inactive)
REMARK    1  A    between atoms: C_2  and  O_3
REMARK    2  A    between atoms: O_3  and  C_4
REMARK    3  A    between atoms: C_6  and  C_7
REMARK    4  A    between atoms: C_7  and  C_8
REMARK    5  A    between atoms: N_10  and  C_11
REMARK    6  A    between atoms: C_11  and  C_12
REMARK    7  A    between atoms: C_11  and  C_16
REMARK    8  A    between atoms: C_12  and  C_13
REMARK    9  A    between atoms: C_21  and  N_22
REMARK   10  A    between atoms: C_30  and  C_31
REMARK                            x       y       z     vdW  Elec       q    Type
REMARK                         _______ _______ _______ _____ _____    ______ ____
ROOT
ATOM      1  C   UNL     1     -10.194  13.409  67.118  0.00  0.00    +0.119 C 
ENDROOT
BRANCH   1   2
ATOM      2  C   UNL     1     -10.646  14.692  68.012  0.00  0.00    +0.011 A 
ATOM      3  C   UNL     1      -9.819  15.717  68.175  0.00  0.00    +0.045 A 
ATOM      4  C   UNL     1     -10.166  16.633  69.164  0.00  0.00    +0.014 A 
ATOM      5  C   UNL     1     -11.146  16.334  70.103  0.00  0.00    +0.001 A 
ATOM      6  C   UNL     1     -12.081  15.356  69.784  0.00  0.00    -0.000 A 
ATOM      7  C   UNL     1     -11.602  14.344  68.961  0.00  0.00    -0.001 A 
BRANCH   3   8
ATOM      8  N   UNL     1      -9.060  16.150  67.033  0.00  0.00    -0.308 N 
ATOM      9  C   UNL     1      -8.064  17.168  67.417  0.00  0.00    +0.091 C 
ATOM     10  C   UNL     1      -7.955  18.272  66.423  0.00  0.00    +0.021 C 
ATOM     11  C   UNL     1      -9.220  19.121  66.453  0.00  0.00    +0.004 C 
ATOM     12  C   UNL     1     -10.381  18.138  66.530  0.00  0.00    +0.021 C 
ATOM     13  C   UNL     1      -9.936  16.791  66.034  0.00  0.00    +0.091 C 
ENDBRANCH   3   8
ENDBRANCH   1   2
BRANCH   1  15
ATOM     14  C   UNL     1      -9.727  11.161  68.100  0.00  0.00    +0.246 C 
ATOM     15  N   UNL     1      -9.725  12.568  68.395  0.00  0.00    -0.202 NA
ATOM     16  O   UNL     1      -8.939  10.859  67.152  0.00  0.00    -0.273 OA
BRANCH  14  17
ATOM     17  C   UNL     1     -10.650  10.171  68.626  0.00  0.00    +0.113 C 
BRANCH  17  22
ATOM     18  C   UNL     1     -11.497   8.805  71.906  0.00  0.00    +0.145 A 
ATOM     19  C   UNL     1     -12.839   9.172  71.852  0.00  0.00    +0.114 A 
ATOM     20  C   UNL     1     -13.074  10.415  71.273  0.00  0.00    +0.009 A 
ATOM     21  C   UNL     1     -12.104  10.986  70.452  0.00  0.00    -0.003 A 
ATOM     22  C   UNL     1     -10.953  10.296  70.079  0.00  0.00    -0.010 A 
ATOM     23  C   UNL     1     -10.569   9.335  71.012  0.00  0.00    +0.033 A 
BRANCH  19  24
ATOM     24  C   UNL     1     -13.882   8.146  71.937  0.00  0.00    +0.391 C 
ATOM     25  O   UNL     1     -15.071   8.490  72.589  0.00  0.00    -0.240 OA
ATOM     26  O   UNL     1     -13.971   7.177  71.155  0.00  0.00    -0.240 OA
ENDBRANCH  19  24
BRANCH  18  27
ATOM     27  O   UNL     1     -11.178   7.869  72.866  0.00  0.00    -0.475 OA
BRANCH  27  29
ATOM     28  C   UNL     1     -11.304   5.470  72.764  0.00  0.00    +0.051 C 
ATOM     29  C   UNL     1     -10.491   6.665  72.550  0.00  0.00    +0.206 C 
ENDBRANCH  27  29
ENDBRANCH  18  27
ENDBRANCH  17  22
ENDBRANCH  14  17
ENDBRANCH   1  15
BRANCH   1  30
ATOM     30  C   UNL     1     -11.692  12.684  67.075  0.00  0.00    +0.026 C 
BRANCH  30  31
ATOM     31  C   UNL     1     -12.072  12.702  65.620  0.00  0.00    +0.002 C 
ATOM     32  C   UNL     1     -12.792  13.978  65.228  0.00  0.00    +0.000 C 
ATOM     33  C   UNL     1     -10.832  12.596  64.777  0.00  0.00    +0.000 C 
ENDBRANCH  30  31
ENDBRANCH   1  30
TORSDOF 10
ENDMDL
MODEL 4
REMARK VINA RESULT:      -6.9      1.721      2.501
REMARK  Name = 
REMARK  10 active torsions:
REMARK  status: ('A' for Active; 'I' for Inactive)
REMARK    1  A    between atoms: C_2  and  O_3
REMARK    2  A    between atoms: O_3  and  C_4
REMARK    3  A    between atoms: C_6  and  C_7
REMARK    4  A    between atoms: C_7  and  C_8
REMARK    5  A    between atoms: N_10  and  C_11
REMARK    6  A    between atoms: C_11  and  C_12
REMARK    7  A    between atoms: C_11  and  C_16
REMARK    8  A    between atoms: C_12  and  C_13
REMARK    9  A    between atoms: C_21  and  N_22
REMARK   10  A    between atoms: C_30  and  C_31
REMARK                            x       y       z     vdW  Elec       q    Type
REMARK                         _______ _______ _______ _____ _____    ______ ____
ROOT
ATOM      1  C   UNL     1     -11.270  14.711  67.924  0.00  0.00    +0.119 C 
ENDROOT
BRANCH   1   2
ATOM      2  C   UNL     1     -11.850  13.472  68.806  0.00  0.00    +0.011 A 
ATOM      3  C   UNL     1     -12.046  13.616  70.111  0.00  0.00    +0.045 A 
ATOM      4  C   UNL     1     -12.274  12.444  70.829  0.00  0.00    +0.014 A 
ATOM      5  C   UNL     1     -12.022  11.199  70.264  0.00  0.00    +0.001 A 
ATOM      6  C   UNL     1     -11.998  11.103  68.877  0.00  0.00    -0.000 A 
ATOM      7  C   UNL     1     -11.548  12.244  68.226  0.00  0.00    -0.001 A 
BRANCH   3   8
ATOM      8  N   UNL     1     -12.608  14.857  70.569  0.00  0.00    -0.308 N 
ATOM      9  C   UNL     1     -11.652  15.586  71.423  0.00  0.00    +0.091 C 
ATOM     10  C   UNL     1     -12.302  16.222  72.603  0.00  0.00    +0.021 C 
ATOM     11  C   UNL     1     -12.760  15.148  73.583  0.00  0.00    +0.004 C 
ATOM     12  C   UNL     1     -13.391  14.051  72.735  0.00  0.00    +0.021 C 
ATOM     13  C   UNL     1     -13.801  14.615  71.403  0.00  0.00    +0.091 C 
ENDBRANCH   3   8
ENDBRANCH   1   2
BRANCH   1  15
ATOM     14  C   UNL     1      -8.809  14.880  68.313  0.00  0.00    +0.246 C 
ATOM     15  N   UNL     1      -9.830  14.037  67.754  0.00  0.00    -0.202 NA
ATOM     16  O   UNL     1      -8.973  15.089  69.554  0.00  0.00    -0.273 OA
BRANCH  14  17
ATOM     17  C   UNL     1      -7.805  15.623  67.574  0.00  0.00    +0.113 C 
BRANCH  17  22
ATOM     18  C   UNL     1      -7.298  18.857  65.951  0.00  0.00    +0.145 A 
ATOM     19  C   UNL     1      -7.597  19.613  67.082  0.00  0.00    +0.114 A 
ATOM     20  C   UNL     1      -8.643  19.111  67.850  0.00  0.00    +0.009 A 
ATOM     21  C   UNL     1      -9.014  17.776  67.718  0.00  0.00    -0.003 A 
ATOM     22  C   UNL     1      -8.287  16.881  66.936  0.00  0.00    -0.010 A 
ATOM     23  C   UNL     1      -7.609  17.500  65.889  0.00  0.00    +0.033 A 
BRANCH  19  24
ATOM     24  C   UNL     1      -6.594  20.527  67.637  0.00  0.00    +0.391 C 
ATOM     25  O   UNL     1      -6.442  21.770  67.011  0.00  0.00    -0.240 OA
ATOM     26  O   UNL     1      -6.177  20.473  68.811  0.00  0.00    -0.240 OA
ENDBRANCH  19  24
BRANCH  18  27
ATOM     27  O   UNL     1      -6.648  19.535  64.942  0.00  0.00    -0.475 OA
BRANCH  27  29
ATOM     28  C   UNL     1      -5.428  19.588  62.871  0.00  0.00    +0.051 C 
ATOM     29  C   UNL     1      -5.625  18.930  64.161  0.00  0.00    +0.206 C 
ENDBRANCH  27  29
ENDBRANCH  18  27
ENDBRANCH  17  22
ENDBRANCH  14  17
ENDBRANCH   1  15
BRANCH   1  30
ATOM     30  C   UNL     1     -11.810  14.151  66.452  0.00  0.00    +0.026 C 
BRANCH  30  31
ATOM     31  C   UNL     1     -10.707  14.505  65.492  0.00  0.00    +0.002 C 
ATOM     32  C   UNL     1     -10.506  13.443  64.429  0.00  0.00    +0.000 C 
ATOM     33  C   UNL     1     -11.042  15.794  64.798  0.00  0.00    +0.000 C 
ENDBRANCH  30  31
ENDBRANCH   1  30
TORSDOF 10
ENDMDL
MODEL 5
REMARK VINA RESULT:      -6.7      2.923      8.083
REMARK  Name = 
REMARK  10 active torsions:
REMARK  status: ('A' for Active; 'I' for Inactive)
REMARK    1  A    between atoms: C_2  and  O_3
REMARK    2  A    between atoms: O_3  and  C_4
REMARK    3  A    between atoms: C_6  and  C_7
REMARK    4  A    between atoms: C_7  and  C_8
REMARK    5  A    between atoms: N_10  and  C_11
REMARK    6  A    between atoms: C_11  and  C_12
REMARK    7  A    between atoms: C_11  and  C_16
REMARK    8  A    between atoms: C_12  and  C_13
REMARK    9  A    between atoms: C_21  and  N_22
REMARK   10  A    between atoms: C_30  and  C_31
REMARK                            x       y       z     vdW  Elec       q    Type
REMARK                         _______ _______ _______ _____ _____    ______ ____
ROOT
ATOM      1  C   UNL     1      -8.965  17.600  66.507  0.00  0.00    +0.119 C 
ENDROOT
BRANCH   1   2
ATOM      2  C   UNL     1      -7.497  17.791  67.184  0.00  0.00    +0.011 A 
ATOM      3  C   UNL     1      -6.411  17.825  66.424  0.00  0.00    +0.045 A 
ATOM      4  C   UNL     1      -5.193  17.712  67.090  0.00  0.00    +0.014 A 
ATOM      5  C   UNL     1      -5.140  17.301  68.417  0.00  0.00    +0.001 A 
ATOM      6  C   UNL     1      -6.280  17.456  69.196  0.00  0.00    -0.000 A 
ATOM      7  C   UNL     1      -7.477  17.338  68.499  0.00  0.00    -0.001 A 
BRANCH   3   8
ATOM      8  N   UNL     1      -6.484  18.551  65.185  0.00  0.00    -0.308 N 
ATOM      9  C   UNL     1      -5.161  18.623  64.536  0.00  0.00    +0.091 C 
ATOM     10  C   UNL     1      -4.887  19.957  63.933  0.00  0.00    +0.021 C 
ATOM     11  C   UNL     1      -4.693  20.992  65.035  0.00  0.00    +0.004 C 
ATOM     12  C   UNL     1      -5.782  20.716  66.064  0.00  0.00    +0.021 C 
ATOM     13  C   UNL     1      -6.901  19.947  65.420  0.00  0.00    +0.091 C 
ENDBRANCH   3   8
ENDBRANCH   1   2
BRANCH   1  15
ATOM     14  C   UNL     1     -10.344  15.519  66.563  0.00  0.00    +0.246 C 
ATOM     15  N   UNL     1      -9.089  16.079  66.984  0.00  0.00    -0.202 NA
ATOM     16  O   UNL     1     -10.482  15.521  65.301  0.00  0.00    -0.273 OA
BRANCH  14  17
ATOM     17  C   UNL     1     -11.465  15.175  67.419  0.00  0.00    +0.113 C 
BRANCH  17  22
ATOM     18  C   UNL     1     -12.251  13.421  70.526  0.00  0.00    +0.145 A 
ATOM     19  C   UNL     1     -12.169  14.553  71.333  0.00  0.00    +0.114 A 
ATOM     20  C   UNL     1     -11.144  15.431  70.993  0.00  0.00    +0.009 A 
ATOM     21  C   UNL     1     -10.582  15.372  69.721  0.00  0.00    -0.003 A 
ATOM     22  C   UNL     1     -11.100  14.551  68.722  0.00  0.00    -0.010 A 
ATOM     23  C   UNL     1     -11.752  13.427  69.225  0.00  0.00    +0.033 A 
BRANCH  19  24
ATOM     24  C   UNL     1     -13.337  14.986  72.107  0.00  0.00    +0.391 C 
ATOM     25  O   UNL     1     -14.428  15.493  71.392  0.00  0.00    -0.240 OA
ATOM     26  O   UNL     1     -13.602  14.576  73.255  0.00  0.00    -0.240 OA
ENDBRANCH  19  24
BRANCH  18  27
ATOM     27  O   UNL     1     -12.886  12.337  71.092  0.00  0.00    -0.475 OA
BRANCH  27  29
ATOM     28  C   UNL     1     -13.123  10.044  71.774  0.00  0.00    +0.051 C 
ATOM     29  C   UNL     1     -12.361  11.019  70.998  0.00  0.00    +0.206 C 
ENDBRANCH  27  29
ENDBRANCH  18  27
ENDBRANCH  17  22
ENDBRANCH  14  17
ENDBRANCH   1  15
BRANCH   1  30
ATOM     30  C   UNL     1      -9.837  18.175  67.804  0.00  0.00    +0.026 C 
BRANCH  30  31
ATOM     31  C   UNL     1     -10.522  19.406  67.275  0.00  0.00    +0.002 C 
ATOM     32  C   UNL     1      -9.752  20.674  67.590  0.00  0.00    +0.000 C 
ATOM     33  C   UNL     1     -10.650  19.304  65.781  0.00  0.00    +0.000 C 
ENDBRANCH  30  31
ENDBRANCH   1  30
TORSDOF 10
ENDMDL
MODEL 6
REMARK VINA RESULT:      -6.7      1.394      2.612
REMARK  Name = 
REMARK  10 active torsions:
REMARK  status: ('A' for Active; 'I' for Inactive)
REMARK    1  A    between atoms: C_2  and  O_3
REMARK    2  A    between atoms: O_3  and  C_4
REMARK    3  A    between atoms: C_6  and  C_7
REMARK    4  A    between atoms: C_7  and  C_8
REMARK    5  A    between atoms: N_10  and  C_11
REMARK    6  A    between atoms: C_11  and  C_12
REMARK    7  A    between atoms: C_11  and  C_16
REMARK    8  A    between atoms: C_12  and  C_13
REMARK    9  A    between atoms: C_21  and  N_22
REMARK   10  A    between atoms: C_30  and  C_31
REMARK                            x       y       z     vdW  Elec       q    Type
REMARK                         _______ _______ _______ _____ _____    ______ ____
ROOT
ATOM      1  C   UNL     1     -11.176  14.666  68.013  0.00  0.00    +0.119 C 
ENDROOT
BRANCH   1   2
ATOM      2  C   UNL     1     -11.808  13.432  68.866  0.00  0.00    +0.011 A 
ATOM      3  C   UNL     1     -12.051  13.574  70.163  0.00  0.00    +0.045 A 
ATOM      4  C   UNL     1     -12.325  12.403  70.866  0.00  0.00    +0.014 A 
ATOM      5  C   UNL     1     -12.072  11.157  70.305  0.00  0.00    +0.001 A 
ATOM      6  C   UNL     1     -11.997  11.066  68.920  0.00  0.00    -0.000 A 
ATOM      7  C   UNL     1     -11.503  12.203  68.291  0.00  0.00    -0.001 A 
BRANCH   3   8
ATOM      8  N   UNL     1     -12.611  14.822  70.606  0.00  0.00    -0.308 N 
ATOM      9  C   UNL     1     -11.638  15.580  71.415  0.00  0.00    +0.091 C 
ATOM     10  C   UNL     1     -12.260  16.240  72.596  0.00  0.00    +0.021 C 
ATOM     11  C   UNL     1     -12.682  15.187  73.614  0.00  0.00    +0.004 C 
ATOM     12  C   UNL     1     -13.327  14.064  72.811  0.00  0.00    +0.021 C 
ATOM     13  C   UNL     1     -13.778  14.592  71.478  0.00  0.00    +0.091 C 
ENDBRANCH   3   8
ENDBRANCH   1   2
BRANCH   1  15
ATOM     14  C   UNL     1      -8.702  14.704  68.349  0.00  0.00    +0.246 C 
ATOM     15  N   UNL     1      -9.777  13.922  67.799  0.00  0.00    -0.202 NA
ATOM     16  O   UNL     1      -8.828  14.900  69.596  0.00  0.00    -0.273 OA
BRANCH  14  17
ATOM     17  C   UNL     1      -7.677  15.407  67.599  0.00  0.00    +0.113 C 
BRANCH  17  22
ATOM     18  C   UNL     1      -7.833  19.057  67.528  0.00  0.00    +0.145 A 
ATOM     19  C   UNL     1      -6.570  19.225  66.966  0.00  0.00    +0.114 A 
ATOM     20  C   UNL     1      -5.605  18.344  67.442  0.00  0.00    +0.009 A 
ATOM     21  C   UNL     1      -5.999  17.163  68.066  0.00  0.00    -0.003 A 
ATOM     22  C   UNL     1      -7.332  16.762  68.113  0.00  0.00    -0.010 A 
ATOM     23  C   UNL     1      -8.223  17.832  68.067  0.00  0.00    +0.033 A 
BRANCH  19  24
ATOM     24  C   UNL     1      -6.429  19.908  65.677  0.00  0.00    +0.391 C 
ATOM     25  O   UNL     1      -5.594  21.030  65.632  0.00  0.00    -0.240 OA
ATOM     26  O   UNL     1      -6.642  19.365  64.574  0.00  0.00    -0.240 OA
ENDBRANCH  19  24
BRANCH  18  27
ATOM     27  O   UNL     1      -8.657  20.160  67.472  0.00  0.00    -0.475 OA
BRANCH  27  29
ATOM     28  C   UNL     1     -10.430  19.722  65.909  0.00  0.00    +0.051 C 
ATOM     29  C   UNL     1     -10.062  20.046  67.285  0.00  0.00    +0.206 C 
ENDBRANCH  27  29
ENDBRANCH  18  27
ENDBRANCH  17  22
ENDBRANCH  14  17
ENDBRANCH   1  15
BRANCH   1  30
ATOM     30  C   UNL     1     -11.766  14.181  66.533  0.00  0.00    +0.026 C 
BRANCH  30  31
ATOM     31  C   UNL     1     -10.641  14.463  65.574  0.00  0.00    +0.002 C 
ATOM     32  C   UNL     1     -10.593  13.464  64.434  0.00  0.00    +0.000 C 
ATOM     33  C   UNL     1     -10.821  15.831  64.980  0.00  0.00    +0.000 C 
ENDBRANCH  30  31
ENDBRANCH   1  30
TORSDOF 10
ENDMDL
MODEL 7
REMARK VINA RESULT:      -6.6      2.489      6.884
REMARK  Name = 
REMARK  10 active torsions:
REMARK  status: ('A' for Active; 'I' for Inactive)
REMARK    1  A    between atoms: C_2  and  O_3
REMARK    2  A    between atoms: O_3  and  C_4
REMARK    3  A    between atoms: C_6  and  C_7
REMARK    4  A    between atoms: C_7  and  C_8
REMARK    5  A    between atoms: N_10  and  C_11
REMARK    6  A    between atoms: C_11  and  C_12
REMARK    7  A    between atoms: C_11  and  C_16
REMARK    8  A    between atoms: C_12  and  C_13
REMARK    9  A    between atoms: C_21  and  N_22
REMARK   10  A    between atoms: C_30  and  C_31
REMARK                            x       y       z     vdW  Elec       q    Type
REMARK                         _______ _______ _______ _____ _____    ______ ____
ROOT
ATOM      1  C   UNL     1     -10.281  15.792  67.501  0.00  0.00    +0.119 C 
ENDROOT
BRANCH   1   2
ATOM      2  C   UNL     1      -8.680  15.830  67.797  0.00  0.00    +0.011 A 
ATOM      3  C   UNL     1      -7.898  16.663  67.124  0.00  0.00    +0.045 A 
ATOM      4  C   UNL     1      -6.527  16.441  67.235  0.00  0.00    +0.014 A 
ATOM      5  C   UNL     1      -6.037  15.257  67.773  0.00  0.00    +0.001 A 
ATOM      6  C   UNL     1      -6.872  14.522  68.608  0.00  0.00    -0.000 A 
ATOM      7  C   UNL     1      -8.224  14.617  68.302  0.00  0.00    -0.001 A 
BRANCH   3   8
ATOM      8  N   UNL     1      -8.389  17.992  66.880  0.00  0.00    -0.308 N 
ATOM      9  C   UNL     1      -7.388  18.802  66.160  0.00  0.00    +0.091 C 
ATOM     10  C   UNL     1      -7.305  20.200  66.665  0.00  0.00    +0.021 C 
ATOM     11  C   UNL     1      -6.694  20.211  68.060  0.00  0.00    +0.004 C 
ATOM     12  C   UNL     1      -7.346  19.057  68.812  0.00  0.00    +0.021 C 
ATOM     13  C   UNL     1      -8.647  18.697  68.151  0.00  0.00    +0.091 C 
ENDBRANCH   3   8
ENDBRANCH   1   2
BRANCH   1  15
ATOM     14  C   UNL     1     -10.930  15.312  65.138  0.00  0.00    +0.246 C 
ATOM     15  N   UNL     1     -10.115  14.842  66.225  0.00  0.00    -0.202 NA
ATOM     16  O   UNL     1     -10.619  16.484  64.765  0.00  0.00    -0.273 OA
BRANCH  14  17
ATOM     17  C   UNL     1     -12.126  14.674  64.619  0.00  0.00    +0.113 C 
BRANCH  17  22
ATOM     18  C   UNL     1     -11.248  11.404  65.991  0.00  0.00    +0.145 A 
ATOM     19  C   UNL     1     -10.160  11.201  65.145  0.00  0.00    +0.114 A 
ATOM     20  C   UNL     1     -10.356  11.640  63.839  0.00  0.00    +0.009 A 
ATOM     21  C   UNL     1     -11.355  12.571  63.569  0.00  0.00    -0.003 A 
ATOM     22  C   UNL     1     -12.087  13.184  64.584  0.00  0.00    -0.010 A 
ATOM     23  C   UNL     1     -12.183  12.404  65.733  0.00  0.00    +0.033 A 
BRANCH  19  24
ATOM     24  C   UNL     1      -8.820  11.013  65.709  0.00  0.00    +0.391 C 
ATOM     25  O   UNL     1      -7.908  10.261  64.960  0.00  0.00    -0.240 OA
ATOM     26  O   UNL     1      -8.308  11.774  66.555  0.00  0.00    -0.240 OA
ENDBRANCH  19  24
BRANCH  18  27
ATOM     27  O   UNL     1     -11.298  10.583  67.097  0.00  0.00    -0.475 OA
BRANCH  27  29
ATOM     28  C   UNL     1     -10.754  10.684  69.436  0.00  0.00    +0.051 C 
ATOM     29  C   UNL     1     -11.687  11.062  68.378  0.00  0.00    +0.206 C 
ENDBRANCH  27  29
ENDBRANCH  18  27
ENDBRANCH  17  22
ENDBRANCH  14  17
ENDBRANCH   1  15
BRANCH   1  30
ATOM     30  C   UNL     1     -10.621  14.520  68.521  0.00  0.00    +0.026 C 
BRANCH  30  31
ATOM     31  C   UNL     1     -11.745  15.026  69.383  0.00  0.00    +0.002 C 
ATOM     32  C   UNL     1     -12.180  14.007  70.418  0.00  0.00    +0.000 C 
ATOM     33  C   UNL     1     -11.299  16.261  70.112  0.00  0.00    +0.000 C 
ENDBRANCH  30  31
ENDBRANCH   1  30
TORSDOF 10
ENDMDL
MODEL 8
REMARK VINA RESULT:      -6.6      3.461      8.310
REMARK  Name = 
REMARK  10 active torsions:
REMARK  status: ('A' for Active; 'I' for Inactive)
REMARK    1  A    between atoms: C_2  and  O_3
REMARK    2  A    between atoms: O_3  and  C_4
REMARK    3  A    between atoms: C_6  and  C_7
REMARK    4  A    between atoms: C_7  and  C_8
REMARK    5  A    between atoms: N_10  and  C_11
REMARK    6  A    between atoms: C_11  and  C_12
REMARK    7  A    between atoms: C_11  and  C_16
REMARK    8  A    between atoms: C_12  and  C_13
REMARK    9  A    between atoms: C_21  and  N_22
REMARK   10  A    between atoms: C_30  and  C_31
REMARK                            x       y       z     vdW  Elec       q    Type
REMARK                         _______ _______ _______ _____ _____    ______ ____
ROOT
ATOM      1  C   UNL     1     -12.255  13.648  69.322  0.00  0.00    +0.119 C 
ENDROOT
BRANCH   1   2
ATOM      2  C   UNL     1     -11.083  14.087  68.281  0.00  0.00    +0.011 A 
ATOM      3  C   UNL     1     -10.851  13.363  67.194  0.00  0.00    +0.045 A 
ATOM      4  C   UNL     1      -9.668  13.642  66.512  0.00  0.00    +0.014 A 
ATOM      5  C   UNL     1      -8.673  14.417  67.097  0.00  0.00    +0.001 A 
ATOM      6  C   UNL     1      -9.034  15.278  68.127  0.00  0.00    -0.000 A 
ATOM      7  C   UNL     1     -10.090  14.831  68.911  0.00  0.00    -0.001 A 
BRANCH   3   8
ATOM      8  N   UNL     1     -11.987  12.852  66.476  0.00  0.00    -0.308 N 
ATOM      9  C   UNL     1     -11.563  11.935  65.401  0.00  0.00    +0.091 C 
ATOM     10  C   UNL     1     -12.344  12.118  64.146  0.00  0.00    +0.021 C 
ATOM     11  C   UNL     1     -11.987  13.453  63.504  0.00  0.00    +0.004 C 
ATOM     12  C   UNL     1     -11.932  14.463  64.644  0.00  0.00    +0.021 C 
ATOM     13  C   UNL     1     -12.723  13.946  65.814  0.00  0.00    +0.091 C 
ENDBRANCH   3   8
ENDBRANCH   1   2
BRANCH   1  15
ATOM     14  C   UNL     1     -12.109  11.258  70.032  0.00  0.00    +0.246 C 
ATOM     15  N   UNL     1     -11.367  12.489  69.975  0.00  0.00    -0.202 NA
ATOM     16  O   UNL     1     -12.463  10.848  68.884  0.00  0.00    -0.273 OA
BRANCH  14  17
ATOM     17  C   UNL     1     -12.622  10.615  71.227  0.00  0.00    +0.113 C 
BRANCH  17  22
ATOM     18  C   UNL     1     -10.127   7.986  70.769  0.00  0.00    +0.145 A 
ATOM     19  C   UNL     1     -11.043   7.008  70.390  0.00  0.00    +0.114 A 
ATOM     20  C   UNL     1     -12.243   7.040  71.094  0.00  0.00    +0.009 A 
ATOM     21  C   UNL     1     -12.616   8.201  71.765  0.00  0.00    -0.003 A 
ATOM     22  C   UNL     1     -11.893   9.386  71.650  0.00  0.00    -0.010 A 
ATOM     23  C   UNL     1     -10.546   9.175  71.362  0.00  0.00    +0.033 A 
BRANCH  19  24
ATOM     24  C   UNL     1     -10.931   6.370  69.076  0.00  0.00    +0.391 C 
ATOM     25  O   UNL     1     -10.849   7.209  67.960  0.00  0.00    -0.240 OA
ATOM     26  O   UNL     1     -10.500   5.212  68.899  0.00  0.00    -0.240 OA
ENDBRANCH  19  24
BRANCH  18  27
ATOM     27  O   UNL     1      -8.809   7.706  70.478  0.00  0.00    -0.475 OA
BRANCH  27  29
ATOM     28  C   UNL     1      -6.905   9.173  70.489  0.00  0.00    +0.051 C 
ATOM     29  C   UNL     1      -7.998   8.590  69.715  0.00  0.00    +0.206 C 
ENDBRANCH  27  29
ENDBRANCH  18  27
ENDBRANCH  17  22
ENDBRANCH  14  17
ENDBRANCH   1  15
BRANCH   1  30
ATOM     30  C   UNL     1     -11.860  14.747  70.509  0.00  0.00    +0.026 C 
BRANCH  30  31
ATOM     31  C   UNL     1     -12.772  14.400  71.654  0.00  0.00    +0.002 C 
ATOM     32  C   UNL     1     -12.270  14.948  72.976  0.00  0.00    +0.000 C 
ATOM     33  C   UNL     1     -14.134  14.982  71.403  0.00  0.00    +0.000 C 
ENDBRANCH  30  31
ENDBRANCH   1  30
TORSDOF 10
ENDMDL
MODEL 9
REMARK VINA RESULT:      -6.6      5.458      9.348
REMARK  Name = 
REMARK  10 active torsions:
REMARK  status: ('A' for Active; 'I' for Inactive)
REMARK    1  A    between atoms: C_2  and  O_3
REMARK    2  A    between atoms: O_3  and  C_4
REMARK    3  A    between atoms: C_6  and  C_7
REMARK    4  A    between atoms: C_7  and  C_8
REMARK    5  A    between atoms: N_10  and  C_11
REMARK    6  A    between atoms: C_11  and  C_12
REMARK    7  A    between atoms: C_11  and  C_16
REMARK    8  A    between atoms: C_12  and  C_13
REMARK    9  A    between atoms: C_21  and  N_22
REMARK   10  A    between atoms: C_30  and  C_31
REMARK                            x       y       z     vdW  Elec       q    Type
REMARK                         _______ _______ _______ _____ _____    ______ ____
ROOT
ATOM      1  C   UNL     1     -10.445   9.463  66.906  0.00  0.00    +0.119 C 
ENDROOT
BRANCH   1   2
ATOM      2  C   UNL     1      -9.969  10.201  65.535  0.00  0.00    +0.011 A 
ATOM      3  C   UNL     1     -10.776  11.061  64.926  0.00  0.00    +0.045 A 
ATOM      4  C   UNL     1     -10.413  11.430  63.633  0.00  0.00    +0.014 A 
ATOM      5  C   UNL     1      -9.442  10.723  62.934  0.00  0.00    +0.001 A 
ATOM      6  C   UNL     1      -8.526   9.973  63.663  0.00  0.00    -0.000 A 
ATOM      7  C   UNL     1      -9.024   9.446  64.849  0.00  0.00    -0.001 A 
BRANCH   3   8
ATOM      8  N   UNL     1     -11.522  11.974  65.748  0.00  0.00    -0.308 N 
ATOM      9  C   UNL     1     -12.539  12.689  64.953  0.00  0.00    +0.091 C 
ATOM     10  C   UNL     1     -12.647  14.129  65.317  0.00  0.00    +0.021 C 
ATOM     11  C   UNL     1     -11.395  14.872  64.867  0.00  0.00    +0.004 C 
ATOM     12  C   UNL     1     -10.221  13.973  65.235  0.00  0.00    +0.021 C 
ATOM     13  C   UNL     1     -10.640  13.012  66.313  0.00  0.00    +0.091 C 
ENDBRANCH   3   8
ENDBRANCH   1   2
BRANCH   1  15
ATOM     14  C   UNL     1     -10.110   7.023  67.315  0.00  0.00    +0.246 C 
ATOM     15  N   UNL     1      -9.570   8.157  66.615  0.00  0.00    -0.202 NA
ATOM     16  O   UNL     1     -11.300   6.754  66.965  0.00  0.00    -0.273 OA
BRANCH  14  17
ATOM     17  C   UNL     1      -9.514   6.349  68.454  0.00  0.00    +0.113 C 
BRANCH  17  22
ATOM     18  C   UNL     1     -11.824   6.460  71.283  0.00  0.00    +0.145 A 
ATOM     19  C   UNL     1     -10.946   5.864  72.185  0.00  0.00    +0.114 A 
ATOM     20  C   UNL     1     -10.179   4.834  71.648  0.00  0.00    +0.009 A 
ATOM     21  C   UNL     1     -10.015   4.745  70.269  0.00  0.00    -0.003 A 
ATOM     22  C   UNL     1     -10.482   5.733  69.404  0.00  0.00    -0.010 A 
ATOM     23  C   UNL     1     -11.581   6.424  69.911  0.00  0.00    +0.033 A 
BRANCH  19  24
ATOM     24  C   UNL     1     -10.539   6.585  73.394  0.00  0.00    +0.391 C 
ATOM     25  O   UNL     1     -10.302   5.826  74.546  0.00  0.00    -0.240 OA
ATOM     26  O   UNL     1     -10.004   7.712  73.386  0.00  0.00    -0.240 OA
ENDBRANCH  19  24
BRANCH  18  27
ATOM     27  O   UNL     1     -12.902   7.106  71.847  0.00  0.00    -0.475 OA
BRANCH  27  29
ATOM     28  C   UNL     1     -12.997   9.489  72.148  0.00  0.00    +0.051 C 
ATOM     29  C   UNL     1     -13.396   8.339  71.340  0.00  0.00    +0.206 C 
ENDBRANCH  27  29
ENDBRANCH  18  27
ENDBRANCH  17  22
ENDBRANCH  14  17
ENDBRANCH   1  15
BRANCH   1  30
ATOM     30  C   UNL     1      -9.281  10.139  67.886  0.00  0.00    +0.026 C 
BRANCH  30  31
ATOM     31  C   UNL     1     -10.025  10.528  69.134  0.00  0.00    +0.002 C 
ATOM     32  C   UNL     1     -11.529  10.492  68.942  0.00  0.00    +0.000 C 
ATOM     33  C   UNL     1      -9.679   9.574  70.242  0.00  0.00    +0.000 C 
ENDBRANCH  30  31
ENDBRANCH   1  30
TORSDOF 10
ENDMDL
