MODEL 1
REMARK VINA RESULT:      -7.7      0.000      0.000
REMARK  Name = 
REMARK  6 active torsions:
REMARK  status: ('A' for Active; 'I' for Inactive)
REMARK    1  A    between atoms: C_2  and  O_3
REMARK    2  A    between atoms: O_3  and  C_4
REMARK    3  A    between atoms: N_6  and  C_7
REMARK    4  A    between atoms: C_20  and  C_21
REMARK    5  A    between atoms: C_22  and  C_23
REMARK    6  A    between atoms: C_26  and  C_27
REMARK                            x       y       z     vdW  Elec       q    Type
REMARK                         _______ _______ _______ _____ _____    ______ ____
ROOT
ATOM      1  C   UNL     1      -8.725   8.761  66.728  0.00  0.00    +0.099 C 
ATOM      2  C   UNL     1      -9.805   9.397  65.675  0.00  0.00    +0.022 C 
ATOM      3  C   UNL     1      -9.335  10.896  65.339  0.00  0.00    +0.003 C 
ATOM      4  C   UNL     1     -10.812  11.289  64.796  0.00  0.00    +0.011 C 
ATOM      5  C   UNL     1     -10.612  12.824  64.304  0.00  0.00    +0.103 C 
ATOM      6  C   UNL     1     -10.701  13.622  65.780  0.00  0.00    +0.055 C 
ATOM      7  C   UNL     1      -9.281  13.045  66.437  0.00  0.00    +0.026 C 
ATOM      8  C   UNL     1     -11.789  12.523  66.421  0.00  0.00    +0.170 C 
ATOM      9  C   UNL     1     -12.408  13.668  67.424  0.00  0.00    +0.047 C 
ATOM     10  O   UNL     1     -12.791  12.845  65.321  0.00  0.00    -0.452 OA
ATOM     11  C   UNL     1     -12.187  13.052  64.152  0.00  0.00    +0.316 C 
ATOM     12  O   UNL     1     -12.447  14.073  63.439  0.00  0.00    -0.250 OA
ATOM     13  C   UNL     1      -9.769  11.494  66.850  0.00  0.00    +0.004 C 
ATOM     14  C   UNL     1      -8.337  11.168  67.487  0.00  0.00    +0.002 C 
ATOM     15  C   UNL     1      -7.707  10.039  66.859  0.00  0.00    +0.022 C 
ENDROOT
BRANCH   1  17
ATOM     16  C   UNL     1     -10.234   8.179  68.717  0.00  0.00    +0.421 C 
ATOM     17  N   UNL     1      -9.642   9.158  67.940  0.00  0.00    -0.170 NA
ATOM     18  O   UNL     1      -9.774   7.026  68.744  0.00  0.00    -0.225 OA
BRANCH  16  19
ATOM     19  O   UNL     1     -10.890   8.620  69.874  0.00  0.00    -0.434 OA
BRANCH  19  21
ATOM     20  C   UNL     1     -11.851  10.510  70.373  0.00  0.00    +0.051 C 
ATOM     21  C   UNL     1     -10.926   9.965  70.298  0.00  0.00    +0.210 C 
ENDBRANCH  19  21
ENDBRANCH  16  19
ENDBRANCH   1  17
BRANCH   7  22
ATOM     22  C   UNL     1      -9.665  13.582  67.890  0.00  0.00    -0.025 C 
ATOM     23  C   UNL     1      -8.793  14.493  68.241  0.00  0.00    +0.015 C 
BRANCH  23  24
ATOM     24  C   UNL     1      -8.851  15.702  67.441  0.00  0.00    +0.081 A 
ATOM     25  N   UNL     1      -9.787  16.667  67.605  0.00  0.00    -0.244 NA
ATOM     26  C   UNL     1      -9.431  17.959  67.395  0.00  0.00    +0.099 A 
ATOM     27  C   UNL     1      -8.136  18.300  67.019  0.00  0.00    +0.019 A 
ATOM     28  C   UNL     1      -7.489  17.313  66.283  0.00  0.00    +0.003 A 
ATOM     29  C   UNL     1      -7.904  15.998  66.465  0.00  0.00    +0.019 A 
BRANCH  27  30
ATOM     30  C   UNL     1      -7.410  19.407  67.646  0.00  0.00    +0.004 A 
ATOM     31  C   UNL     1      -7.142  19.403  69.008  0.00  0.00    +0.030 A 
ATOM     32  C   UNL     1      -6.044  20.115  69.476  0.00  0.00    +0.140 A 
ATOM     33  F   UNL     1      -6.047  20.373  70.809  0.00  0.00    -0.204 F 
ATOM     34  C   UNL     1      -5.620  21.151  68.669  0.00  0.00    +0.030 A 
ATOM     35  C   UNL     1      -5.898  21.170  67.315  0.00  0.00    +0.002 A 
ATOM     36  C   UNL     1      -7.031  20.484  66.893  0.00  0.00    +0.000 A 
ENDBRANCH  27  30
ENDBRANCH  23  24
ENDBRANCH   7  22
TORSDOF 6
ENDMDL
MODEL 2
REMARK VINA RESULT:      -7.6      3.845      8.799
REMARK  Name = 
REMARK  6 active torsions:
REMARK  status: ('A' for Active; 'I' for Inactive)
REMARK    1  A    between atoms: C_2  and  O_3
REMARK    2  A    between atoms: O_3  and  C_4
REMARK    3  A    between atoms: N_6  and  C_7
REMARK    4  A    between atoms: C_20  and  C_21
REMARK    5  A    between atoms: C_22  and  C_23
REMARK    6  A    between atoms: C_26  and  C_27
REMARK                            x       y       z     vdW  Elec       q    Type
REMARK                         _______ _______ _______ _____ _____    ______ ____
ROOT
ATOM      1  C   UNL     1     -12.048  14.104  64.205  0.00  0.00    +0.099 C 
ATOM      2  C   UNL     1     -10.979  12.929  63.807  0.00  0.00    +0.022 C 
ATOM      3  C   UNL     1     -11.270  11.664  64.752  0.00  0.00    +0.003 C 
ATOM      4  C   UNL     1      -9.802  11.043  64.455  0.00  0.00    +0.011 C 
ATOM      5  C   UNL     1      -9.833   9.646  65.283  0.00  0.00    +0.103 C 
ATOM      6  C   UNL     1      -9.523  10.212  66.833  0.00  0.00    +0.055 C 
ATOM      7  C   UNL     1     -10.950  11.042  67.063  0.00  0.00    +0.026 C 
ATOM      8  C   UNL     1      -8.543  11.457  66.289  0.00  0.00    +0.170 C 
ATOM      9  C   UNL     1      -7.700  11.456  67.700  0.00  0.00    +0.047 C 
ATOM     10  O   UNL     1      -7.597  10.454  65.642  0.00  0.00    -0.452 OA
ATOM     11  C   UNL     1      -8.259   9.428  65.109  0.00  0.00    +0.316 C 
ATOM     12  O   UNL     1      -7.922   8.224  65.344  0.00  0.00    -0.250 OA
ATOM     13  C   UNL     1     -10.642  12.401  66.128  0.00  0.00    +0.004 C 
ATOM     14  C   UNL     1     -12.050  13.048  66.530  0.00  0.00    +0.002 C 
ATOM     15  C   UNL     1     -12.872  13.316  65.382  0.00  0.00    +0.022 C 
ENDROOT
BRANCH   1  17
ATOM     16  C   UNL     1     -10.589  16.075  64.955  0.00  0.00    +0.421 C 
ATOM     17  N   UNL     1     -10.993  14.768  65.161  0.00  0.00    -0.170 NA
ATOM     18  O   UNL     1     -11.293  16.860  64.300  0.00  0.00    -0.225 OA
BRANCH  16  19
ATOM     19  O   UNL     1      -9.782  16.637  65.953  0.00  0.00    -0.434 OA
BRANCH  19  21
ATOM     20  C   UNL     1     -10.533  17.931  67.536  0.00  0.00    +0.051 C 
ATOM     21  C   UNL     1     -10.045  17.874  66.578  0.00  0.00    +0.210 C 
ENDBRANCH  19  21
ENDBRANCH  16  19
ENDBRANCH   1  17
BRANCH   7  22
ATOM     22  C   UNL     1     -10.385  11.775  68.362  0.00  0.00    -0.025 C 
ATOM     23  C   UNL     1     -11.304  11.740  69.294  0.00  0.00    +0.015 C 
BRANCH  23  24
ATOM     24  C   UNL     1     -11.587  10.407  69.792  0.00  0.00    +0.081 A 
ATOM     25  N   UNL     1     -10.979   9.289  69.330  0.00  0.00    -0.244 NA
ATOM     26  C   UNL     1     -10.730   8.278  70.201  0.00  0.00    +0.099 A 
ATOM     27  C   UNL     1     -11.087   8.376  71.542  0.00  0.00    +0.019 A 
ATOM     28  C   UNL     1     -12.201   9.178  71.767  0.00  0.00    +0.003 A 
ATOM     29  C   UNL     1     -12.478  10.172  70.835  0.00  0.00    +0.019 A 
BRANCH  27  30
ATOM     30  C   UNL     1     -10.175   7.989  72.620  0.00  0.00    +0.004 A 
ATOM     31  C   UNL     1     -10.612   7.193  73.671  0.00  0.00    +0.030 A 
ATOM     32  C   UNL     1      -9.685   6.409  74.347  0.00  0.00    +0.140 A 
ATOM     33  F   UNL     1     -10.088   5.954  75.560  0.00  0.00    -0.204 F 
ATOM     34  C   UNL     1      -8.377   6.843  74.277  0.00  0.00    +0.030 A 
ATOM     35  C   UNL     1      -7.939   7.649  73.242  0.00  0.00    +0.002 A 
ATOM     36  C   UNL     1      -8.889   8.453  72.623  0.00  0.00    +0.000 A 
ENDBRANCH  27  30
ENDBRANCH  23  24
ENDBRANCH   7  22
TORSDOF 6
ENDMDL
MODEL 3
REMARK VINA RESULT:      -7.6      3.926      8.996
REMARK  Name = 
REMARK  6 active torsions:
REMARK  status: ('A' for Active; 'I' for Inactive)
REMARK    1  A    between atoms: C_2  and  O_3
REMARK    2  A    between atoms: O_3  and  C_4
REMARK    3  A    between atoms: N_6  and  C_7
REMARK    4  A    between atoms: C_20  and  C_21
REMARK    5  A    between atoms: C_22  and  C_23
REMARK    6  A    between atoms: C_26  and  C_27
REMARK                            x       y       z     vdW  Elec       q    Type
REMARK                         _______ _______ _______ _____ _____    ______ ____
ROOT
ATOM      1  C   UNL     1     -12.085  13.982  64.313  0.00  0.00    +0.099 C 
ATOM      2  C   UNL     1     -11.061  12.784  63.871  0.00  0.00    +0.022 C 
ATOM      3  C   UNL     1     -11.278  11.557  64.885  0.00  0.00    +0.003 C 
ATOM      4  C   UNL     1      -9.843  10.912  64.488  0.00  0.00    +0.011 C 
ATOM      5  C   UNL     1      -9.812   9.548  65.368  0.00  0.00    +0.103 C 
ATOM      6  C   UNL     1      -9.367  10.169  66.863  0.00  0.00    +0.055 C 
ATOM      7  C   UNL     1     -10.765  11.020  67.182  0.00  0.00    +0.026 C 
ATOM      8  C   UNL     1      -8.431  11.384  66.191  0.00  0.00    +0.170 C 
ATOM      9  C   UNL     1      -7.470  11.428  67.523  0.00  0.00    +0.047 C 
ATOM     10  O   UNL     1      -7.549  10.349  65.505  0.00  0.00    -0.452 OA
ATOM     11  C   UNL     1      -8.260   9.310  65.069  0.00  0.00    +0.316 C 
ATOM     12  O   UNL     1      -7.911   8.112  65.320  0.00  0.00    -0.250 OA
ATOM     13  C   UNL     1     -10.530  12.340  66.173  0.00  0.00    +0.004 C 
ATOM     14  C   UNL     1     -11.895  13.014  66.669  0.00  0.00    +0.002 C 
ATOM     15  C   UNL     1     -12.811  13.246  65.585  0.00  0.00    +0.022 C 
ENDROOT
BRANCH   1  17
ATOM     16  C   UNL     1     -10.563  15.969  64.866  0.00  0.00    +0.421 C 
ATOM     17  N   UNL     1     -10.949  14.672  65.150  0.00  0.00    -0.170 NA
ATOM     18  O   UNL     1     -11.321  16.736  64.250  0.00  0.00    -0.225 OA
BRANCH  16  19
ATOM     19  O   UNL     1      -9.670  16.560  65.769  0.00  0.00    -0.434 OA
BRANCH  19  21
ATOM     20  C   UNL     1     -10.405  17.369  67.652  0.00  0.00    +0.051 C 
ATOM     21  C   UNL     1     -10.021  17.586  66.671  0.00  0.00    +0.210 C 
ENDBRANCH  19  21
ENDBRANCH  16  19
ENDBRANCH   1  17
BRANCH   7  22
ATOM     22  C   UNL     1     -10.086  11.797  68.399  0.00  0.00    -0.025 C 
ATOM     23  C   UNL     1     -10.725  11.486  69.500  0.00  0.00    +0.015 C 
BRANCH  23  24
ATOM     24  C   UNL     1     -10.574  10.099  69.897  0.00  0.00    +0.081 A 
ATOM     25  N   UNL     1     -11.584   9.198  69.878  0.00  0.00    -0.244 NA
ATOM     26  C   UNL     1     -11.298   7.908  69.569  0.00  0.00    +0.099 A 
ATOM     27  C   UNL     1      -9.998   7.506  69.276  0.00  0.00    +0.019 A 
ATOM     28  C   UNL     1      -9.022   8.260  69.919  0.00  0.00    +0.003 A 
ATOM     29  C   UNL     1      -9.349   9.562  70.283  0.00  0.00    +0.019 A 
BRANCH  27  30
ATOM     30  C   UNL     1      -9.690   6.640  68.137  0.00  0.00    +0.004 A 
ATOM     31  C   UNL     1      -8.432   6.070  67.996  0.00  0.00    +0.030 A 
ATOM     32  C   UNL     1      -8.312   4.884  67.282  0.00  0.00    +0.140 A 
ATOM     33  F   UNL     1      -7.053   4.579  66.873  0.00  0.00    -0.204 F 
ATOM     34  C   UNL     1      -9.313   4.638  66.365  0.00  0.00    +0.030 A 
ATOM     35  C   UNL     1     -10.562   5.216  66.489  0.00  0.00    +0.002 A 
ATOM     36  C   UNL     1     -10.634   6.426  67.170  0.00  0.00    +0.000 A 
ENDBRANCH  27  30
ENDBRANCH  23  24
ENDBRANCH   7  22
TORSDOF 6
ENDMDL
MODEL 4
REMARK VINA RESULT:      -7.5      2.985      4.210
REMARK  Name = 
REMARK  6 active torsions:
REMARK  status: ('A' for Active; 'I' for Inactive)
REMARK    1  A    between atoms: C_2  and  O_3
REMARK    2  A    between atoms: O_3  and  C_4
REMARK    3  A    between atoms: N_6  and  C_7
REMARK    4  A    between atoms: C_20  and  C_21
REMARK    5  A    between atoms: C_22  and  C_23
REMARK    6  A    between atoms: C_26  and  C_27
REMARK                            x       y       z     vdW  Elec       q    Type
REMARK                         _______ _______ _______ _____ _____    ______ ____
ROOT
ATOM      1  C   UNL     1     -10.979  12.390  66.002  0.00  0.00    +0.099 C 
ATOM      2  C   UNL     1     -11.204  13.966  65.621  0.00  0.00    +0.022 C 
ATOM      3  C   UNL     1      -9.786  14.708  65.754  0.00  0.00    +0.003 C 
ATOM      4  C   UNL     1     -10.501  16.162  65.844  0.00  0.00    +0.011 C 
ATOM      5  C   UNL     1      -9.234  17.175  65.930  0.00  0.00    +0.103 C 
ATOM      6  C   UNL     1      -8.843  17.022  67.557  0.00  0.00    +0.055 C 
ATOM      7  C   UNL     1      -8.308  15.443  67.515  0.00  0.00    +0.026 C 
ATOM      8  C   UNL     1     -10.434  16.780  68.019  0.00  0.00    +0.170 C 
ATOM      9  C   UNL     1     -10.132  17.401  69.510  0.00  0.00    +0.047 C 
ATOM     10  O   UNL     1     -10.824  18.139  67.455  0.00  0.00    -0.452 OA
ATOM     11  C   UNL     1     -10.165  18.412  66.330  0.00  0.00    +0.316 C 
ATOM     12  O   UNL     1      -9.568  19.523  66.160  0.00  0.00    -0.250 OA
ATOM     13  C   UNL     1      -9.781  14.646  67.435  0.00  0.00    +0.004 C 
ATOM     14  C   UNL     1      -9.057  13.218  67.466  0.00  0.00    +0.002 C 
ATOM     15  C   UNL     1      -9.369  12.426  66.308  0.00  0.00    +0.022 C 
ENDROOT
BRANCH   1  17
ATOM     16  C   UNL     1     -11.903  11.627  68.269  0.00  0.00    +0.421 C 
ATOM     17  N   UNL     1     -11.432  12.662  67.481  0.00  0.00    -0.170 NA
ATOM     18  O   UNL     1     -11.625  10.448  67.999  0.00  0.00    -0.225 OA
BRANCH  16  19
ATOM     19  O   UNL     1     -12.119  11.928  69.620  0.00  0.00    -0.434 OA
BRANCH  19  21
ATOM     20  C   UNL     1     -12.538  13.474  71.095  0.00  0.00    +0.051 C 
ATOM     21  C   UNL     1     -12.068  13.230  70.158  0.00  0.00    +0.210 C 
ENDBRANCH  19  21
ENDBRANCH  16  19
ENDBRANCH   1  17
BRANCH   7  22
ATOM     22  C   UNL     1      -8.306  15.338  69.107  0.00  0.00    -0.025 C 
ATOM     23  C   UNL     1      -7.140  14.885  69.494  0.00  0.00    +0.015 C 
BRANCH  23  24
ATOM     24  C   UNL     1      -6.042  15.801  69.245  0.00  0.00    +0.081 A 
ATOM     25  N   UNL     1      -5.068  15.575  68.332  0.00  0.00    -0.244 NA
ATOM     26  C   UNL     1      -4.545  16.635  67.666  0.00  0.00    +0.099 A 
ATOM     27  C   UNL     1      -4.990  17.931  67.906  0.00  0.00    +0.019 A 
ATOM     28  C   UNL     1      -5.450  18.133  69.203  0.00  0.00    +0.003 A 
ATOM     29  C   UNL     1      -5.930  17.026  69.896  0.00  0.00    +0.019 A 
BRANCH  27  30
ATOM     30  C   UNL     1      -5.290  18.865  66.818  0.00  0.00    +0.004 A 
ATOM     31  C   UNL     1      -5.319  18.435  65.499  0.00  0.00    +0.030 A 
ATOM     32  C   UNL     1      -6.102  19.132  64.586  0.00  0.00    +0.140 A 
ATOM     33  F   UNL     1      -5.810  18.902  63.280  0.00  0.00    -0.204 F 
ATOM     34  C   UNL     1      -6.371  20.445  64.914  0.00  0.00    +0.030 A 
ATOM     35  C   UNL     1      -6.326  20.884  66.225  0.00  0.00    +0.002 A 
ATOM     36  C   UNL     1      -5.496  20.188  67.096  0.00  0.00    +0.000 A 
ENDBRANCH  27  30
ENDBRANCH  23  24
ENDBRANCH   7  22
TORSDOF 6
ENDMDL
MODEL 5
REMARK VINA RESULT:      -7.4      3.958      8.723
REMARK  Name = 
REMARK  6 active torsions:
REMARK  status: ('A' for Active; 'I' for Inactive)
REMARK    1  A    between atoms: C_2  and  O_3
REMARK    2  A    between atoms: O_3  and  C_4
REMARK    3  A    between atoms: N_6  and  C_7
REMARK    4  A    between atoms: C_20  and  C_21
REMARK    5  A    between atoms: C_22  and  C_23
REMARK    6  A    between atoms: C_26  and  C_27
REMARK                            x       y       z     vdW  Elec       q    Type
REMARK                         _______ _______ _______ _____ _____    ______ ____
ROOT
ATOM      1  C   UNL     1      -9.721  16.944  67.225  0.00  0.00    +0.099 C 
ATOM      2  C   UNL     1     -10.531  16.326  65.944  0.00  0.00    +0.022 C 
ATOM      3  C   UNL     1     -11.356  15.048  66.460  0.00  0.00    +0.003 C 
ATOM      4  C   UNL     1     -11.519  14.482  64.949  0.00  0.00    +0.011 C 
ATOM      5  C   UNL     1     -12.416  13.146  65.164  0.00  0.00    +0.103 C 
ATOM      6  C   UNL     1     -11.231  12.072  65.674  0.00  0.00    +0.055 C 
ATOM      7  C   UNL     1     -10.900  12.780  67.147  0.00  0.00    +0.026 C 
ATOM      8  C   UNL     1     -10.041  12.782  64.734  0.00  0.00    +0.170 C 
ATOM      9  C   UNL     1      -9.222  11.361  64.635  0.00  0.00    +0.047 C 
ATOM     10  O   UNL     1     -10.840  12.490  63.471  0.00  0.00    -0.452 OA
ATOM     11  C   UNL     1     -12.148  12.643  63.671  0.00  0.00    +0.316 C 
ATOM     12  O   UNL     1     -12.985  11.751  63.318  0.00  0.00    -0.250 OA
ATOM     13  C   UNL     1      -9.986  14.089  66.634  0.00  0.00    +0.004 C 
ATOM     14  C   UNL     1      -9.740  14.562  68.144  0.00  0.00    +0.002 C 
ATOM     15  C   UNL     1     -10.222  15.895  68.380  0.00  0.00    +0.022 C 
ENDROOT
BRANCH   1  17
ATOM     16  C   UNL     1      -7.178  16.628  67.144  0.00  0.00    +0.421 C 
ATOM     17  N   UNL     1      -8.432  16.141  66.823  0.00  0.00    -0.170 NA
ATOM     18  O   UNL     1      -7.033  17.456  68.058  0.00  0.00    -0.225 OA
BRANCH  16  19
ATOM     19  O   UNL     1      -6.100  15.766  66.903  0.00  0.00    -0.434 OA
BRANCH  19  21
ATOM     20  C   UNL     1      -6.080  13.761  67.753  0.00  0.00    +0.051 C 
ATOM     21  C   UNL     1      -5.677  14.759  67.795  0.00  0.00    +0.210 C 
ENDBRANCH  19  21
ENDBRANCH  16  19
ENDBRANCH   1  17
BRANCH   7  22
ATOM     22  C   UNL     1      -9.583  11.901  67.342  0.00  0.00    -0.025 C 
ATOM     23  C   UNL     1      -9.495  11.554  68.601  0.00  0.00    +0.015 C 
BRANCH  23  24
ATOM     24  C   UNL     1     -10.539  10.643  69.034  0.00  0.00    +0.081 A 
ATOM     25  N   UNL     1     -10.653   9.367  68.593  0.00  0.00    -0.244 NA
ATOM     26  C   UNL     1     -11.111   8.422  69.452  0.00  0.00    +0.099 A 
ATOM     27  C   UNL     1     -11.459   8.742  70.760  0.00  0.00    +0.019 A 
ATOM     28  C   UNL     1     -11.918  10.046  70.913  0.00  0.00    +0.003 A 
ATOM     29  C   UNL     1     -11.487  10.993  69.991  0.00  0.00    +0.019 A 
BRANCH  27  30
ATOM     30  C   UNL     1     -11.036   7.926  71.900  0.00  0.00    +0.004 A 
ATOM     31  C   UNL     1     -11.692   6.742  72.210  0.00  0.00    +0.030 A 
ATOM     32  C   UNL     1     -10.995   5.749  72.888  0.00  0.00    +0.140 A 
ATOM     33  F   UNL     1     -11.766   4.797  73.473  0.00  0.00    -0.204 F 
ATOM     34  C   UNL     1      -9.916   6.182  73.631  0.00  0.00    +0.030 A 
ATOM     35  C   UNL     1      -9.269   7.369  73.339  0.00  0.00    +0.002 A 
ATOM     36  C   UNL     1     -10.014   8.354  72.702  0.00  0.00    +0.000 A 
ENDBRANCH  27  30
ENDBRANCH  23  24
ENDBRANCH   7  22
TORSDOF 6
ENDMDL
MODEL 6
REMARK VINA RESULT:      -7.1      2.090      2.761
REMARK  Name = 
REMARK  6 active torsions:
REMARK  status: ('A' for Active; 'I' for Inactive)
REMARK    1  A    between atoms: C_2  and  O_3
REMARK    2  A    between atoms: O_3  and  C_4
REMARK    3  A    between atoms: N_6  and  C_7
REMARK    4  A    between atoms: C_20  and  C_21
REMARK    5  A    between atoms: C_22  and  C_23
REMARK    6  A    between atoms: C_26  and  C_27
REMARK                            x       y       z     vdW  Elec       q    Type
REMARK                         _______ _______ _______ _____ _____    ______ ____
ROOT
ATOM      1  C   UNL     1      -8.304   8.669  64.983  0.00  0.00    +0.099 C 
ATOM      2  C   UNL     1      -9.544   9.609  64.476  0.00  0.00    +0.022 C 
ATOM      3  C   UNL     1      -9.110  11.142  64.681  0.00  0.00    +0.003 C 
ATOM      4  C   UNL     1     -10.653  11.638  64.607  0.00  0.00    +0.011 C 
ATOM      5  C   UNL     1     -10.512  13.251  64.734  0.00  0.00    +0.103 C 
ATOM      6  C   UNL     1     -10.312  13.402  66.394  0.00  0.00    +0.055 C 
ATOM      7  C   UNL     1      -8.809  12.689  66.508  0.00  0.00    +0.026 C 
ATOM      8  C   UNL     1     -11.288  12.084  66.732  0.00  0.00    +0.170 C 
ATOM      9  C   UNL     1     -11.688  12.712  68.198  0.00  0.00    +0.047 C 
ATOM     10  O   UNL     1     -12.467  12.759  66.044  0.00  0.00    -0.452 OA
ATOM     11  C   UNL     1     -12.083  13.438  64.965  0.00  0.00    +0.316 C 
ATOM     12  O   UNL     1     -12.447  14.642  64.771  0.00  0.00    -0.250 OA
ATOM     13  C   UNL     1      -9.247  11.077  66.356  0.00  0.00    +0.004 C 
ATOM     14  C   UNL     1      -7.730  10.604  66.548  0.00  0.00    +0.002 C 
ATOM     15  C   UNL     1      -7.251   9.845  65.425  0.00  0.00    +0.022 C 
ENDROOT
BRANCH   1  17
ATOM     16  C   UNL     1      -9.655   7.351  66.719  0.00  0.00    +0.421 C 
ATOM     17  N   UNL     1      -8.974   8.511  66.395  0.00  0.00    -0.170 NA
ATOM     18  O   UNL     1      -9.435   6.294  66.105  0.00  0.00    -0.225 OA
BRANCH  16  19
ATOM     19  O   UNL     1     -10.069   7.228  68.051  0.00  0.00    -0.434 OA
BRANCH  19  21
ATOM     20  C   UNL     1     -11.313   6.210  69.521  0.00  0.00    +0.051 C 
ATOM     21  C   UNL     1     -10.888   6.186  68.532  0.00  0.00    +0.210 C 
ENDBRANCH  19  21
ENDBRANCH  16  19
ENDBRANCH   1  17
BRANCH   7  22
ATOM     22  C   UNL     1      -8.908  12.593  68.098  0.00  0.00    -0.025 C 
ATOM     23  C   UNL     1      -7.726  12.838  68.605  0.00  0.00    +0.015 C 
BRANCH  23  24
ATOM     24  C   UNL     1      -7.271  14.202  68.407  0.00  0.00    +0.081 A 
ATOM     25  N   UNL     1      -6.846  14.686  67.216  0.00  0.00    -0.244 NA
ATOM     26  C   UNL     1      -7.105  15.982  66.912  0.00  0.00    +0.099 A 
ATOM     27  C   UNL     1      -7.793  16.808  67.796  0.00  0.00    +0.019 A 
ATOM     28  C   UNL     1      -7.610  16.470  69.133  0.00  0.00    +0.003 A 
ATOM     29  C   UNL     1      -7.287  15.149  69.426  0.00  0.00    +0.019 A 
BRANCH  27  30
ATOM     30  C   UNL     1      -8.877  17.689  67.356  0.00  0.00    +0.004 A 
ATOM     31  C   UNL     1      -8.884  19.034  67.697  0.00  0.00    +0.030 A 
ATOM     32  C   UNL     1      -9.553  19.930  66.872  0.00  0.00    +0.140 A 
ATOM     33  F   UNL     1      -9.835  21.134  67.433  0.00  0.00    -0.204 F 
ATOM     34  C   UNL     1     -10.555  19.386  66.094  0.00  0.00    +0.030 A 
ATOM     35  C   UNL     1     -10.563  18.044  65.764  0.00  0.00    +0.002 A 
ATOM     36  C   UNL     1      -9.922  17.174  66.639  0.00  0.00    +0.000 A 
ENDBRANCH  27  30
ENDBRANCH  23  24
ENDBRANCH   7  22
TORSDOF 6
ENDMDL
MODEL 7
REMARK VINA RESULT:      -7.0      3.636      8.082
REMARK  Name = 
REMARK  6 active torsions:
REMARK  status: ('A' for Active; 'I' for Inactive)
REMARK    1  A    between atoms: C_2  and  O_3
REMARK    2  A    between atoms: O_3  and  C_4
REMARK    3  A    between atoms: N_6  and  C_7
REMARK    4  A    between atoms: C_20  and  C_21
REMARK    5  A    between atoms: C_22  and  C_23
REMARK    6  A    between atoms: C_26  and  C_27
REMARK                            x       y       z     vdW  Elec       q    Type
REMARK                         _______ _______ _______ _____ _____    ______ ____
ROOT
ATOM      1  C   UNL     1      -4.872  16.070  68.929  0.00  0.00    +0.099 C 
ATOM      2  C   UNL     1      -6.335  16.722  69.267  0.00  0.00    +0.022 C 
ATOM      3  C   UNL     1      -7.376  15.514  69.457  0.00  0.00    +0.003 C 
ATOM      4  C   UNL     1      -8.640  16.504  69.226  0.00  0.00    +0.011 C 
ATOM      5  C   UNL     1      -9.910  15.511  69.431  0.00  0.00    +0.103 C 
ATOM      6  C   UNL     1      -9.943  14.759  67.930  0.00  0.00    +0.055 C 
ATOM      7  C   UNL     1      -8.520  13.901  68.073  0.00  0.00    +0.026 C 
ATOM      8  C   UNL     1      -9.386  16.118  67.125  0.00  0.00    +0.170 C 
ATOM      9  C   UNL     1     -10.146  15.655  65.744  0.00  0.00    +0.047 C 
ATOM     10  O   UNL     1     -10.592  16.917  67.603  0.00  0.00    -0.452 OA
ATOM     11  C   UNL     1     -10.935  16.591  68.848  0.00  0.00    +0.316 C 
ATOM     12  O   UNL     1     -12.137  16.312  69.157  0.00  0.00    -0.250 OA
ATOM     13  C   UNL     1      -7.416  15.138  67.818  0.00  0.00    +0.004 C 
ATOM     14  C   UNL     1      -6.186  14.119  67.933  0.00  0.00    +0.002 C 
ATOM     15  C   UNL     1      -5.277  14.482  68.985  0.00  0.00    +0.022 C 
ENDROOT
BRANCH   1  17
ATOM     16  C   UNL     1      -4.806  17.439  66.762  0.00  0.00    +0.421 C 
ATOM     17  N   UNL     1      -5.126  16.248  67.389  0.00  0.00    -0.170 NA
ATOM     18  O   UNL     1      -3.984  18.221  67.267  0.00  0.00    -0.225 OA
BRANCH  16  19
ATOM     19  O   UNL     1      -4.903  17.447  65.364  0.00  0.00    -0.434 OA
BRANCH  19  21
ATOM     20  C   UNL     1      -5.034  18.859  63.711  0.00  0.00    +0.051 C 
ATOM     21  C   UNL     1      -5.484  18.494  64.619  0.00  0.00    +0.210 C 
ENDBRANCH  19  21
ENDBRANCH  16  19
ENDBRANCH   1  17
BRANCH   7  22
ATOM     22  C   UNL     1      -8.513  13.538  66.520  0.00  0.00    -0.025 C 
ATOM     23  C   UNL     1      -8.299  12.252  66.393  0.00  0.00    +0.015 C 
BRANCH  23  24
ATOM     24  C   UNL     1      -9.379  11.424  66.898  0.00  0.00    +0.081 A 
ATOM     25  N   UNL     1      -9.198  10.404  67.770  0.00  0.00    -0.244 NA
ATOM     26  C   UNL     1     -10.164  10.158  68.690  0.00  0.00    +0.099 A 
ATOM     27  C   UNL     1     -11.320  10.931  68.749  0.00  0.00    +0.019 A 
ATOM     28  C   UNL     1     -11.703  11.457  67.520  0.00  0.00    +0.003 A 
ATOM     29  C   UNL     1     -10.711  11.649  66.564  0.00  0.00    +0.019 A 
BRANCH  27  30
ATOM     30  C   UNL     1     -11.854  11.437  70.015  0.00  0.00    +0.004 A 
ATOM     31  C   UNL     1     -11.986  12.801  70.237  0.00  0.00    +0.030 A 
ATOM     32  C   UNL     1     -12.948  13.242  71.138  0.00  0.00    +0.140 A 
ATOM     33  F   UNL     1     -12.786  14.515  71.581  0.00  0.00    -0.204 F 
ATOM     34  C   UNL     1     -13.332  12.323  72.093  0.00  0.00    +0.030 A 
ATOM     35  C   UNL     1     -13.188  10.964  71.886  0.00  0.00    +0.002 A 
ATOM     36  C   UNL     1     -12.184  10.561  71.012  0.00  0.00    +0.000 A 
ENDBRANCH  27  30
ENDBRANCH  23  24
ENDBRANCH   7  22
TORSDOF 6
ENDMDL
MODEL 8
REMARK VINA RESULT:      -6.9      2.669      4.404
REMARK  Name = 
REMARK  6 active torsions:
REMARK  status: ('A' for Active; 'I' for Inactive)
REMARK    1  A    between atoms: C_2  and  O_3
REMARK    2  A    between atoms: O_3  and  C_4
REMARK    3  A    between atoms: N_6  and  C_7
REMARK    4  A    between atoms: C_20  and  C_21
REMARK    5  A    between atoms: C_22  and  C_23
REMARK    6  A    between atoms: C_26  and  C_27
REMARK                            x       y       z     vdW  Elec       q    Type
REMARK                         _______ _______ _______ _____ _____    ______ ____
ROOT
ATOM      1  C   UNL     1     -10.309   8.478  70.459  0.00  0.00    +0.099 C 
ATOM      2  C   UNL     1      -8.811   8.963  70.011  0.00  0.00    +0.022 C 
ATOM      3  C   UNL     1      -8.909  10.501  69.560  0.00  0.00    +0.003 C 
ATOM      4  C   UNL     1      -7.506  10.405  68.752  0.00  0.00    +0.011 C 
ATOM      5  C   UNL     1      -7.307  11.921  68.206  0.00  0.00    +0.103 C 
ATOM      6  C   UNL     1      -8.329  11.892  66.874  0.00  0.00    +0.055 C 
ATOM      7  C   UNL     1      -9.774  11.770  67.698  0.00  0.00    +0.026 C 
ATOM      8  C   UNL     1      -8.034  10.275  66.556  0.00  0.00    +0.170 C 
ATOM      9  C   UNL     1      -8.354  10.494  64.959  0.00  0.00    +0.047 C 
ATOM     10  O   UNL     1      -6.551  10.563  66.370  0.00  0.00    -0.452 OA
ATOM     11  C   UNL     1      -6.118  11.484  67.229  0.00  0.00    +0.316 C 
ATOM     12  O   UNL     1      -5.435  12.487  66.844  0.00  0.00    -0.250 OA
ATOM     13  C   UNL     1      -9.718  10.149  68.128  0.00  0.00    +0.004 C 
ATOM     14  C   UNL     1     -11.160  10.241  68.818  0.00  0.00    +0.002 C 
ATOM     15  C   UNL     1     -11.120   9.881  70.209  0.00  0.00    +0.022 C 
ENDROOT
BRANCH   1  17
ATOM     16  C   UNL     1     -10.861   6.541  68.872  0.00  0.00    +0.421 C 
ATOM     17  N   UNL     1     -10.566   7.884  69.028  0.00  0.00    -0.170 NA
ATOM     18  O   UNL     1     -11.307   5.876  69.821  0.00  0.00    -0.225 OA
BRANCH  16  19
ATOM     19  O   UNL     1     -11.245   6.137  67.587  0.00  0.00    -0.434 OA
BRANCH  19  21
ATOM     20  C   UNL     1     -10.515   4.722  66.102  0.00  0.00    +0.051 C 
ATOM     21  C   UNL     1     -10.349   5.656  66.609  0.00  0.00    +0.210 C 
ENDBRANCH  19  21
ENDBRANCH  16  19
ENDBRANCH   1  17
BRANCH   7  22
ATOM     22  C   UNL     1     -10.574  11.416  66.364  0.00  0.00    -0.025 C 
ATOM     23  C   UNL     1     -11.679  12.119  66.342  0.00  0.00    +0.015 C 
BRANCH  23  24
ATOM     24  C   UNL     1     -11.464  13.547  66.202  0.00  0.00    +0.081 A 
ATOM     25  N   UNL     1     -11.907  14.464  67.095  0.00  0.00    -0.244 NA
ATOM     26  C   UNL     1     -11.153  15.570  67.317  0.00  0.00    +0.099 A 
ATOM     27  C   UNL     1      -9.949  15.770  66.648  0.00  0.00    +0.019 A 
ATOM     28  C   UNL     1      -9.909  15.191  65.384  0.00  0.00    +0.003 A 
ATOM     29  C   UNL     1     -10.731  14.093  65.153  0.00  0.00    +0.019 A 
BRANCH  27  30
ATOM     30  C   UNL     1      -8.738  16.214  67.342  0.00  0.00    +0.004 A 
ATOM     31  C   UNL     1      -7.522  15.580  67.127  0.00  0.00    +0.030 A 
ATOM     32  C   UNL     1      -6.349  16.298  67.327  0.00  0.00    +0.140 A 
ATOM     33  F   UNL     1      -5.226  15.546  67.460  0.00  0.00    -0.204 F 
ATOM     34  C   UNL     1      -6.451  17.374  68.185  0.00  0.00    +0.030 A 
ATOM     35  C   UNL     1      -7.662  17.999  68.417  0.00  0.00    +0.002 A 
ATOM     36  C   UNL     1      -8.810  17.234  68.250  0.00  0.00    +0.000 A 
ENDBRANCH  27  30
ENDBRANCH  23  24
ENDBRANCH   7  22
TORSDOF 6
ENDMDL
MODEL 9
REMARK VINA RESULT:      -6.8      4.525      8.296
REMARK  Name = 
REMARK  6 active torsions:
REMARK  status: ('A' for Active; 'I' for Inactive)
REMARK    1  A    between atoms: C_2  and  O_3
REMARK    2  A    between atoms: O_3  and  C_4
REMARK    3  A    between atoms: N_6  and  C_7
REMARK    4  A    between atoms: C_20  and  C_21
REMARK    5  A    between atoms: C_22  and  C_23
REMARK    6  A    between atoms: C_26  and  C_27
REMARK                            x       y       z     vdW  Elec       q    Type
REMARK                         _______ _______ _______ _____ _____    ______ ____
ROOT
ATOM      1  C   UNL     1      -4.886  16.980  67.395  0.00  0.00    +0.099 C 
ATOM      2  C   UNL     1      -5.763  18.188  68.065  0.00  0.00    +0.022 C 
ATOM      3  C   UNL     1      -7.151  17.559  68.574  0.00  0.00    +0.003 C 
ATOM      4  C   UNL     1      -7.850  19.022  68.629  0.00  0.00    +0.011 C 
ATOM      5  C   UNL     1      -9.333  18.685  69.200  0.00  0.00    +0.103 C 
ATOM      6  C   UNL     1     -10.075  18.140  67.795  0.00  0.00    +0.055 C 
ATOM      7  C   UNL     1      -9.203  16.731  67.609  0.00  0.00    +0.026 C 
ATOM      8  C   UNL     1      -9.189  19.165  66.811  0.00  0.00    +0.170 C 
ATOM      9  C   UNL     1     -10.395  19.192  65.694  0.00  0.00    +0.047 C 
ATOM     10  O   UNL     1      -9.745  20.379  67.543  0.00  0.00    -0.452 OA
ATOM     11  C   UNL     1      -9.874  20.148  68.849  0.00  0.00    +0.316 C 
ATOM     12  O   UNL     1     -10.953  20.412  69.469  0.00  0.00    -0.250 OA
ATOM     13  C   UNL     1      -7.765  17.363  67.020  0.00  0.00    +0.004 C 
ATOM     14  C   UNL     1      -7.137  15.897  66.865  0.00  0.00    +0.002 C 
ATOM     15  C   UNL     1      -5.931  15.739  67.630  0.00  0.00    +0.022 C 
ENDROOT
BRANCH   1  17
ATOM     16  C   UNL     1      -4.798  18.378  65.248  0.00  0.00    +0.421 C 
ATOM     17  N   UNL     1      -5.409  17.366  65.965  0.00  0.00    -0.170 NA
ATOM     18  O   UNL     1      -3.636  18.728  65.509  0.00  0.00    -0.225 OA
BRANCH  16  19
ATOM     19  O   UNL     1      -5.218  18.536  63.920  0.00  0.00    -0.434 OA
BRANCH  19  21
ATOM     20  C   UNL     1      -5.482  20.025  62.353  0.00  0.00    +0.051 C 
ATOM     21  C   UNL     1      -5.678  19.753  63.376  0.00  0.00    +0.210 C 
ENDBRANCH  19  21
ENDBRANCH  16  19
ENDBRANCH   1  17
BRANCH   7  22
ATOM     22  C   UNL     1      -9.748  16.518  66.125  0.00  0.00    -0.025 C 
ATOM     23  C   UNL     1      -9.543  15.272  65.780  0.00  0.00    +0.015 C 
BRANCH  23  24
ATOM     24  C   UNL     1     -10.329  14.315  66.537  0.00  0.00    +0.081 A 
ATOM     25  N   UNL     1      -9.788  13.355  67.325  0.00  0.00    -0.244 NA
ATOM     26  C   UNL     1     -10.443  13.003  68.460  0.00  0.00    +0.099 A 
ATOM     27  C   UNL     1     -11.644  13.606  68.818  0.00  0.00    +0.019 A 
ATOM     28  C   UNL     1     -12.398  14.038  67.732  0.00  0.00    +0.003 A 
ATOM     29  C   UNL     1     -11.720  14.340  66.556  0.00  0.00    +0.019 A 
BRANCH  27  30
ATOM     30  C   UNL     1     -11.906  14.068  70.183  0.00  0.00    +0.004 A 
ATOM     31  C   UNL     1     -11.509  15.333  70.595  0.00  0.00    +0.030 A 
ATOM     32  C   UNL     1     -12.204  15.948  71.629  0.00  0.00    +0.140 A 
ATOM     33  F   UNL     1     -11.561  16.988  72.220  0.00  0.00    -0.204 F 
ATOM     34  C   UNL     1     -12.872  15.096  72.485  0.00  0.00    +0.030 A 
ATOM     35  C   UNL     1     -13.255  13.829  72.087  0.00  0.00    +0.002 A 
ATOM     36  C   UNL     1     -12.506  13.229  71.081  0.00  0.00    +0.000 A 
ENDBRANCH  27  30
ENDBRANCH  23  24
ENDBRANCH   7  22
TORSDOF 6
ENDMDL
