MODEL 1
REMARK VINA RESULT:      -6.5      0.000      0.000
REMARK  Name = 
REMARK  6 active torsions:
REMARK  status: ('A' for Active; 'I' for Inactive)
REMARK    1  A    between atoms: C_2  and  O_4
REMARK    2  A    between atoms: O_4  and  C_5
REMARK    3  A    between atoms: N_12  and  C_13
REMARK    4  A    between atoms: C_13  and  C_14
REMARK    5  A    between atoms: C_13  and  C_19
REMARK    6  A    between atoms: C_14  and  C_16
REMARK                            x       y       z     vdW  Elec       q    Type
REMARK                         _______ _______ _______ _____ _____    ______ ____
ROOT
ATOM      1  C   UNL     1     -12.723  14.250  71.295  0.00  0.00    +0.178 A 
ATOM      2  S   UNL     1     -12.152  12.923  70.365  0.00  0.00    -0.055 S 
ATOM      3  C   UNL     1     -11.558  13.788  69.005  0.00  0.00    +0.009 A 
ATOM      4  C   UNL     1     -10.648  13.529  67.845  0.00  0.00    +0.050 C 
ATOM      5  C   UNL     1      -9.441  14.430  68.085  0.00  0.00    +0.078 C 
ATOM      6  N   UNL     1      -9.918  15.798  67.878  0.00  0.00    -0.260 NA
ATOM      7  C   UNL     1     -10.840  16.207  68.897  0.00  0.00    +0.100 C 
ATOM      8  C   UNL     1     -11.625  15.092  69.486  0.00  0.00    -0.000 A 
ATOM      9  C   UNL     1     -12.735  15.234  70.312  0.00  0.00    +0.042 A 
ENDROOT
BRANCH   1  10
ATOM     10  O   UNL     1     -13.332  14.282  72.556  0.00  0.00    -0.417 OA
BRANCH  10  12
ATOM     11  C   UNL     1     -12.435  15.493  74.277  0.00  0.00    +0.122 C 
ATOM     12  C   UNL     1     -13.226  15.405  73.383  0.00  0.00    +0.323 C 
ATOM     13  O   UNL     1     -14.073  16.335  73.220  0.00  0.00    -0.250 OA
ENDBRANCH  10  12
ENDBRANCH   1  10
BRANCH   6  14
ATOM     14  C   UNL     1      -8.604  16.574  68.396  0.00  0.00    +0.141 C 
BRANCH  14  15
ATOM     15  C   UNL     1      -8.981  17.937  67.547  0.00  0.00    +0.027 A 
ATOM     16  C   UNL     1      -8.209  19.017  67.972  0.00  0.00    +0.138 A 
ATOM     17  F   UNL     1      -7.092  18.850  68.734  0.00  0.00    -0.204 F 
ATOM     18  C   UNL     1      -8.649  20.272  67.573  0.00  0.00    +0.029 A 
ATOM     19  C   UNL     1      -9.820  20.408  66.840  0.00  0.00    +0.002 A 
ATOM     20  C   UNL     1     -10.735  19.365  66.911  0.00  0.00    -0.000 A 
ATOM     21  C   UNL     1     -10.336  18.175  67.494  0.00  0.00    -0.000 A 
ENDBRANCH  14  15
BRANCH  14  22
ATOM     22  C   UNL     1      -7.689  15.967  67.166  0.00  0.00    +0.169 C 
ATOM     23  O   UNL     1      -8.250  16.124  66.093  0.00  0.00    -0.294 OA
BRANCH  22  24
ATOM     24  C   UNL     1      -6.307  15.701  67.387  0.00  0.00    +0.059 C 
ATOM     25  C   UNL     1      -5.173  16.614  67.206  0.00  0.00    +0.008 C 
ATOM     26  C   UNL     1      -5.492  15.935  68.568  0.00  0.00    +0.008 C 
ENDBRANCH  22  24
ENDBRANCH  14  22
ENDBRANCH   6  14
TORSDOF 6
ENDMDL
MODEL 2
REMARK VINA RESULT:      -6.2      3.676      7.077
REMARK  Name = 
REMARK  6 active torsions:
REMARK  status: ('A' for Active; 'I' for Inactive)
REMARK    1  A    between atoms: C_2  and  O_4
REMARK    2  A    between atoms: O_4  and  C_5
REMARK    3  A    between atoms: N_12  and  C_13
REMARK    4  A    between atoms: C_13  and  C_14
REMARK    5  A    between atoms: C_13  and  C_19
REMARK    6  A    between atoms: C_14  and  C_16
REMARK                            x       y       z     vdW  Elec       q    Type
REMARK                         _______ _______ _______ _____ _____    ______ ____
ROOT
ATOM      1  C   UNL     1      -9.294  18.552  66.819  0.00  0.00    +0.178 A 
ATOM      2  S   UNL     1      -9.845  18.318  68.430  0.00  0.00    -0.055 S 
ATOM      3  C   UNL     1     -10.819  16.926  68.177  0.00  0.00    +0.009 A 
ATOM      4  C   UNL     1     -11.449  15.855  69.012  0.00  0.00    +0.050 C 
ATOM      5  C   UNL     1     -10.718  14.574  68.623  0.00  0.00    +0.078 C 
ATOM      6  N   UNL     1     -11.145  14.272  67.256  0.00  0.00    -0.260 NA
ATOM      7  C   UNL     1     -10.651  15.232  66.312  0.00  0.00    +0.100 C 
ATOM      8  C   UNL     1     -10.446  16.589  66.880  0.00  0.00    -0.000 A 
ATOM      9  C   UNL     1     -10.202  17.744  66.144  0.00  0.00    +0.042 A 
ENDROOT
BRANCH   1  10
ATOM     10  O   UNL     1      -8.435  19.520  66.283  0.00  0.00    -0.417 OA
BRANCH  10  12
ATOM     11  C   UNL     1      -6.185  19.693  66.659  0.00  0.00    +0.122 C 
ATOM     12  C   UNL     1      -7.091  19.233  66.026  0.00  0.00    +0.323 C 
ATOM     13  O   UNL     1      -6.829  18.514  65.015  0.00  0.00    -0.250 OA
ENDBRANCH  10  12
ENDBRANCH   1  10
BRANCH   6  14
ATOM     14  C   UNL     1     -10.115  13.068  66.960  0.00  0.00    +0.141 C 
BRANCH  14  15
ATOM     15  C   UNL     1     -11.030  12.488  65.716  0.00  0.00    +0.027 A 
ATOM     16  C   UNL     1     -10.326  11.535  64.984  0.00  0.00    +0.138 A 
ATOM     17  F   UNL     1      -9.189  10.954  65.459  0.00  0.00    -0.204 F 
ATOM     18  C   UNL     1     -10.853  11.214  63.740  0.00  0.00    +0.029 A 
ATOM     19  C   UNL     1     -11.985  11.863  63.266  0.00  0.00    +0.002 A 
ATOM     20  C   UNL     1     -12.289  13.096  63.828  0.00  0.00    -0.000 A 
ATOM     21  C   UNL     1     -11.608  13.488  64.967  0.00  0.00    -0.000 A 
ENDBRANCH  14  15
BRANCH  14  22
ATOM     22  C   UNL     1     -10.853  12.089  68.063  0.00  0.00    +0.169 C 
ATOM     23  O   UNL     1     -12.060  12.066  67.881  0.00  0.00    -0.294 OA
BRANCH  22  24
ATOM     24  C   UNL     1     -10.073  11.149  68.797  0.00  0.00    +0.059 C 
ATOM     25  C   UNL     1     -10.538  10.157  69.772  0.00  0.00    +0.008 C 
ATOM     26  C   UNL     1      -9.752   9.765  68.490  0.00  0.00    +0.008 C 
ENDBRANCH  22  24
ENDBRANCH  14  22
ENDBRANCH   6  14
TORSDOF 6
ENDMDL
MODEL 3
REMARK VINA RESULT:      -6.1      3.166      7.452
REMARK  Name = 
REMARK  6 active torsions:
REMARK  status: ('A' for Active; 'I' for Inactive)
REMARK    1  A    between atoms: C_2  and  O_4
REMARK    2  A    between atoms: O_4  and  C_5
REMARK    3  A    between atoms: N_12  and  C_13
REMARK    4  A    between atoms: C_13  and  C_14
REMARK    5  A    between atoms: C_13  and  C_19
REMARK    6  A    between atoms: C_14  and  C_16
REMARK                            x       y       z     vdW  Elec       q    Type
REMARK                         _______ _______ _______ _____ _____    ______ ____
ROOT
ATOM      1  C   UNL     1      -6.140  18.887  66.540  0.00  0.00    +0.178 A 
ATOM      2  S   UNL     1      -7.036  19.940  67.560  0.00  0.00    -0.055 S 
ATOM      3  C   UNL     1      -8.573  19.181  67.439  0.00  0.00    +0.009 A 
ATOM      4  C   UNL     1      -9.874  19.201  68.179  0.00  0.00    +0.050 C 
ATOM      5  C   UNL     1      -9.997  17.810  68.792  0.00  0.00    +0.078 C 
ATOM      6  N   UNL     1     -10.228  16.900  67.669  0.00  0.00    -0.260 NA
ATOM      7  C   UNL     1      -9.077  16.785  66.823  0.00  0.00    +0.100 C 
ATOM      8  C   UNL     1      -8.221  17.999  66.797  0.00  0.00    -0.000 A 
ATOM      9  C   UNL     1      -7.188  18.240  65.896  0.00  0.00    +0.042 A 
ENDROOT
BRANCH   1  10
ATOM     10  O   UNL     1      -4.784  18.901  66.185  0.00  0.00    -0.417 OA
BRANCH  10  12
ATOM     11  C   UNL     1      -3.813  17.863  64.393  0.00  0.00    +0.122 C 
ATOM     12  C   UNL     1      -4.199  17.816  65.525  0.00  0.00    +0.323 C 
ATOM     13  O   UNL     1      -4.158  16.708  66.140  0.00  0.00    -0.250 OA
ENDBRANCH  10  12
ENDBRANCH   1  10
BRANCH   6  14
ATOM     14  C   UNL     1     -10.093  15.511  68.475  0.00  0.00    +0.141 C 
BRANCH  14  15
ATOM     15  C   UNL     1     -11.145  14.736  67.468  0.00  0.00    +0.027 A 
ATOM     16  C   UNL     1     -11.163  13.367  67.727  0.00  0.00    +0.138 A 
ATOM     17  F   UNL     1     -10.637  12.841  68.869  0.00  0.00    -0.204 F 
ATOM     18  C   UNL     1     -11.748  12.572  66.752  0.00  0.00    +0.029 A 
ATOM     19  C   UNL     1     -12.228  13.137  65.578  0.00  0.00    +0.002 A 
ATOM     20  C   UNL     1     -11.719  14.377  65.218  0.00  0.00    -0.000 A 
ATOM     21  C   UNL     1     -10.966  15.076  66.146  0.00  0.00    -0.000 A 
ENDBRANCH  14  15
BRANCH  14  22
ATOM     22  C   UNL     1     -11.291  15.937  69.525  0.00  0.00    +0.169 C 
ATOM     23  O   UNL     1     -12.271  16.341  68.921  0.00  0.00    -0.294 OA
BRANCH  22  24
ATOM     24  C   UNL     1     -11.236  15.476  70.872  0.00  0.00    +0.059 C 
ATOM     25  C   UNL     1     -11.933  16.024  72.042  0.00  0.00    +0.008 C 
ATOM     26  C   UNL     1     -12.111  14.552  71.576  0.00  0.00    +0.008 C 
ENDBRANCH  22  24
ENDBRANCH  14  22
ENDBRANCH   6  14
TORSDOF 6
ENDMDL
MODEL 4
REMARK VINA RESULT:      -6.0      3.130      5.317
REMARK  Name = 
REMARK  6 active torsions:
REMARK  status: ('A' for Active; 'I' for Inactive)
REMARK    1  A    between atoms: C_2  and  O_4
REMARK    2  A    between atoms: O_4  and  C_5
REMARK    3  A    between atoms: N_12  and  C_13
REMARK    4  A    between atoms: C_13  and  C_14
REMARK    5  A    between atoms: C_13  and  C_19
REMARK    6  A    between atoms: C_14  and  C_16
REMARK                            x       y       z     vdW  Elec       q    Type
REMARK                         _______ _______ _______ _____ _____    ______ ____
ROOT
ATOM      1  C   UNL     1     -11.380  12.899  66.660  0.00  0.00    +0.178 A 
ATOM      2  S   UNL     1     -11.729  13.495  68.234  0.00  0.00    -0.055 S 
ATOM      3  C   UNL     1     -10.248  14.309  68.543  0.00  0.00    +0.009 A 
ATOM      4  C   UNL     1      -9.735  15.339  69.501  0.00  0.00    +0.050 C 
ATOM      5  C   UNL     1      -9.438  16.561  68.640  0.00  0.00    +0.078 C 
ATOM      6  N   UNL     1      -8.273  16.203  67.829  0.00  0.00    -0.260 NA
ATOM      7  C   UNL     1      -8.580  15.188  66.864  0.00  0.00    +0.100 C 
ATOM      8  C   UNL     1      -9.668  14.267  67.279  0.00  0.00    -0.000 A 
ATOM      9  C   UNL     1     -10.001  13.073  66.647  0.00  0.00    +0.042 A 
ENDROOT
BRANCH   1  10
ATOM     10  O   UNL     1     -12.163  12.140  65.781  0.00  0.00    -0.417 OA
BRANCH  10  12
ATOM     11  C   UNL     1     -12.435  11.979  63.515  0.00  0.00    +0.122 C 
ATOM     12  C   UNL     1     -12.513  12.628  64.518  0.00  0.00    +0.323 C 
ATOM     13  O   UNL     1     -12.846  13.849  64.433  0.00  0.00    -0.250 OA
ENDBRANCH  10  12
ENDBRANCH   1  10
BRANCH   6  14
ATOM     14  C   UNL     1      -8.272  17.489  66.858  0.00  0.00    +0.141 C 
BRANCH  14  15
ATOM     15  C   UNL     1      -6.635  17.664  66.964  0.00  0.00    +0.027 A 
ATOM     16  C   UNL     1      -6.143  18.400  65.888  0.00  0.00    +0.138 A 
ATOM     17  F   UNL     1      -6.960  19.132  65.081  0.00  0.00    -0.204 F 
ATOM     18  C   UNL     1      -4.771  18.340  65.689  0.00  0.00    +0.029 A 
ATOM     19  C   UNL     1      -3.975  17.542  66.500  0.00  0.00    +0.002 A 
ATOM     20  C   UNL     1      -4.602  16.505  67.177  0.00  0.00    -0.000 A 
ATOM     21  C   UNL     1      -5.986  16.473  67.200  0.00  0.00    -0.000 A 
ENDBRANCH  14  15
BRANCH  14  22
ATOM     22  C   UNL     1      -8.542  18.515  68.120  0.00  0.00    +0.169 C 
ATOM     23  O   UNL     1      -7.562  18.574  68.845  0.00  0.00    -0.294 OA
BRANCH  22  24
ATOM     24  C   UNL     1      -9.620  19.443  68.049  0.00  0.00    +0.059 C 
ATOM     25  C   UNL     1      -9.680  20.700  67.293  0.00  0.00    +0.008 C 
ATOM     26  C   UNL     1     -10.698  19.545  67.079  0.00  0.00    +0.008 C 
ENDBRANCH  22  24
ENDBRANCH  14  22
ENDBRANCH   6  14
TORSDOF 6
ENDMDL
MODEL 5
REMARK VINA RESULT:      -6.0      3.150      6.234
REMARK  Name = 
REMARK  6 active torsions:
REMARK  status: ('A' for Active; 'I' for Inactive)
REMARK    1  A    between atoms: C_2  and  O_4
REMARK    2  A    between atoms: O_4  and  C_5
REMARK    3  A    between atoms: N_12  and  C_13
REMARK    4  A    between atoms: C_13  and  C_14
REMARK    5  A    between atoms: C_13  and  C_19
REMARK    6  A    between atoms: C_14  and  C_16
REMARK                            x       y       z     vdW  Elec       q    Type
REMARK                         _______ _______ _______ _____ _____    ______ ____
ROOT
ATOM      1  C   UNL     1     -10.774  12.252  64.343  0.00  0.00    +0.178 A 
ATOM      2  S   UNL     1     -12.217  12.725  65.147  0.00  0.00    -0.055 S 
ATOM      3  C   UNL     1     -11.518  13.481  66.522  0.00  0.00    +0.009 A 
ATOM      4  C   UNL     1     -11.954  14.419  67.605  0.00  0.00    +0.050 C 
ATOM      5  C   UNL     1     -11.169  15.701  67.352  0.00  0.00    +0.078 C 
ATOM      6  N   UNL     1      -9.777  15.386  67.678  0.00  0.00    -0.260 NA
ATOM      7  C   UNL     1      -9.202  14.460  66.747  0.00  0.00    +0.100 C 
ATOM      8  C   UNL     1     -10.184  13.530  66.133  0.00  0.00    -0.000 A 
ATOM      9  C   UNL     1      -9.868  12.398  65.388  0.00  0.00    +0.042 A 
ENDROOT
BRANCH   1  10
ATOM     10  O   UNL     1     -10.588  11.583  63.127  0.00  0.00    -0.417 OA
BRANCH  10  12
ATOM     11  C   UNL     1      -8.592  11.049  62.146  0.00  0.00    +0.122 C 
ATOM     12  C   UNL     1      -9.470  10.771  62.911  0.00  0.00    +0.323 C 
ATOM     13  O   UNL     1      -9.439   9.647  63.497  0.00  0.00    -0.250 OA
ENDBRANCH  10  12
ENDBRANCH   1  10
BRANCH   6  14
ATOM     14  C   UNL     1      -9.106  16.746  67.133  0.00  0.00    +0.141 C 
BRANCH  14  15
ATOM     15  C   UNL     1      -8.010  16.790  68.365  0.00  0.00    +0.027 A 
ATOM     16  C   UNL     1      -7.000  17.712  68.100  0.00  0.00    +0.138 A 
ATOM     17  F   UNL     1      -7.122  18.655  67.124  0.00  0.00    -0.204 F 
ATOM     18  C   UNL     1      -5.862  17.612  68.889  0.00  0.00    +0.029 A 
ATOM     19  C   UNL     1      -5.752  16.606  69.840  0.00  0.00    +0.002 A 
ATOM     20  C   UNL     1      -6.556  15.486  69.673  0.00  0.00    -0.000 A 
ATOM     21  C   UNL     1      -7.572  15.538  68.733  0.00  0.00    -0.000 A 
ENDBRANCH  14  15
BRANCH  14  22
ATOM     22  C   UNL     1     -10.187  17.679  67.958  0.00  0.00    +0.169 C 
ATOM     23  O   UNL     1     -10.240  17.343  69.130  0.00  0.00    -0.294 OA
BRANCH  22  24
ATOM     24  C   UNL     1     -10.621  18.912  67.393  0.00  0.00    +0.059 C 
ATOM     25  C   UNL     1      -9.949  20.216  67.446  0.00  0.00    +0.008 C 
ATOM     26  C   UNL     1     -10.302  19.510  66.107  0.00  0.00    +0.008 C 
ENDBRANCH  22  24
ENDBRANCH  14  22
ENDBRANCH   6  14
TORSDOF 6
ENDMDL
MODEL 6
REMARK VINA RESULT:      -5.9      4.380      6.506
REMARK  Name = 
REMARK  6 active torsions:
REMARK  status: ('A' for Active; 'I' for Inactive)
REMARK    1  A    between atoms: C_2  and  O_4
REMARK    2  A    between atoms: O_4  and  C_5
REMARK    3  A    between atoms: N_12  and  C_13
REMARK    4  A    between atoms: C_13  and  C_14
REMARK    5  A    between atoms: C_13  and  C_19
REMARK    6  A    between atoms: C_14  and  C_16
REMARK                            x       y       z     vdW  Elec       q    Type
REMARK                         _______ _______ _______ _____ _____    ______ ____
ROOT
ATOM      1  C   UNL     1     -12.714  10.323  71.057  0.00  0.00    +0.178 A 
ATOM      2  S   UNL     1     -12.870  12.008  71.352  0.00  0.00    -0.055 S 
ATOM      3  C   UNL     1     -11.886  12.594  70.071  0.00  0.00    +0.009 A 
ATOM      4  C   UNL     1     -11.658  13.892  69.362  0.00  0.00    +0.050 C 
ATOM      5  C   UNL     1     -12.174  13.660  67.945  0.00  0.00    +0.078 C 
ATOM      6  N   UNL     1     -11.228  12.731  67.325  0.00  0.00    -0.260 NA
ATOM      7  C   UNL     1     -11.288  11.426  67.914  0.00  0.00    +0.100 C 
ATOM      8  C   UNL     1     -11.699  11.424  69.342  0.00  0.00    -0.000 A 
ATOM      9  C   UNL     1     -11.615  10.337  70.206  0.00  0.00    +0.042 A 
ENDROOT
BRANCH   1  10
ATOM     10  O   UNL     1     -13.274   9.226  71.725  0.00  0.00    -0.417 OA
BRANCH  10  12
ATOM     11  C   UNL     1     -12.783   7.022  71.362  0.00  0.00    +0.122 C 
ATOM     12  C   UNL     1     -12.543   8.050  71.925  0.00  0.00    +0.323 C 
ATOM     13  O   UNL     1     -11.640   8.066  72.814  0.00  0.00    -0.250 OA
ENDBRANCH  10  12
ENDBRANCH   1  10
BRANCH   6  14
ATOM     14  C   UNL     1     -12.054  12.440  65.972  0.00  0.00    +0.141 C 
BRANCH  14  15
ATOM     15  C   UNL     1     -10.704  11.948  65.162  0.00  0.00    +0.027 A 
ATOM     16  C   UNL     1     -11.031  11.474  63.893  0.00  0.00    +0.138 A 
ATOM     17  F   UNL     1     -12.245  11.716  63.323  0.00  0.00    -0.204 F 
ATOM     18  C   UNL     1     -10.046  10.741  63.246  0.00  0.00    +0.029 A 
ATOM     19  C   UNL     1      -8.840  10.470  63.879  0.00  0.00    +0.002 A 
ATOM     20  C   UNL     1      -8.822  10.546  65.265  0.00  0.00    -0.000 A 
ATOM     21  C   UNL     1      -9.910  11.109  65.910  0.00  0.00    -0.000 A 
ENDBRANCH  14  15
BRANCH  14  22
ATOM     22  C   UNL     1     -11.886  14.000  65.464  0.00  0.00    +0.169 C 
ATOM     23  O   UNL     1     -12.907  14.388  64.919  0.00  0.00    -0.294 OA
BRANCH  22  24
ATOM     24  C   UNL     1     -10.833  14.799  65.995  0.00  0.00    +0.059 C 
ATOM     25  C   UNL     1      -9.595  15.218  65.329  0.00  0.00    +0.008 C 
ATOM     26  C   UNL     1     -10.619  16.234  65.906  0.00  0.00    +0.008 C 
ENDBRANCH  22  24
ENDBRANCH  14  22
ENDBRANCH   6  14
TORSDOF 6
ENDMDL
MODEL 7
REMARK VINA RESULT:      -5.9      5.441      7.052
REMARK  Name = 
REMARK  6 active torsions:
REMARK  status: ('A' for Active; 'I' for Inactive)
REMARK    1  A    between atoms: C_2  and  O_4
REMARK    2  A    between atoms: O_4  and  C_5
REMARK    3  A    between atoms: N_12  and  C_13
REMARK    4  A    between atoms: C_13  and  C_14
REMARK    5  A    between atoms: C_13  and  C_19
REMARK    6  A    between atoms: C_14  and  C_16
REMARK                            x       y       z     vdW  Elec       q    Type
REMARK                         _______ _______ _______ _____ _____    ______ ____
ROOT
ATOM      1  C   UNL     1     -12.367   9.569  71.477  0.00  0.00    +0.178 A 
ATOM      2  S   UNL     1     -12.986  11.170  71.394  0.00  0.00    -0.055 S 
ATOM      3  C   UNL     1     -11.846  11.838  70.295  0.00  0.00    +0.009 A 
ATOM      4  C   UNL     1     -11.735  13.049  69.421  0.00  0.00    +0.050 C 
ATOM      5  C   UNL     1     -11.765  12.507  67.996  0.00  0.00    +0.078 C 
ATOM      6  N   UNL     1     -10.495  11.804  67.811  0.00  0.00    -0.260 NA
ATOM      7  C   UNL     1     -10.414  10.617  68.612  0.00  0.00    +0.100 C 
ATOM      8  C   UNL     1     -11.196  10.683  69.872  0.00  0.00    -0.000 A 
ATOM      9  C   UNL     1     -11.108   9.778  70.926  0.00  0.00    +0.042 A 
ENDROOT
BRANCH   1  10
ATOM     10  O   UNL     1     -12.822   8.454  72.194  0.00  0.00    -0.417 OA
BRANCH  10  12
ATOM     11  C   UNL     1     -14.436   7.083  71.331  0.00  0.00    +0.122 C 
ATOM     12  C   UNL     1     -14.132   7.989  72.052  0.00  0.00    +0.323 C 
ATOM     13  O   UNL     1     -15.048   8.622  72.659  0.00  0.00    -0.250 OA
ENDBRANCH  10  12
ENDBRANCH   1  10
BRANCH   6  14
ATOM     14  C   UNL     1     -10.818  11.129  66.384  0.00  0.00    +0.141 C 
BRANCH  14  15
ATOM     15  C   UNL     1      -9.231  11.133  65.936  0.00  0.00    +0.027 A 
ATOM     16  C   UNL     1      -9.027  10.322  64.821  0.00  0.00    +0.138 A 
ATOM     17  F   UNL     1     -10.060   9.885  64.048  0.00  0.00    -0.204 F 
ATOM     18  C   UNL     1      -7.708   9.986  64.548  0.00  0.00    +0.029 A 
ATOM     19  C   UNL     1      -6.685  10.407  65.387  0.00  0.00    +0.002 A 
ATOM     20  C   UNL     1      -7.036  10.757  66.685  0.00  0.00    -0.000 A 
ATOM     21  C   UNL     1      -8.378  10.897  66.991  0.00  0.00    -0.000 A 
ENDBRANCH  14  15
BRANCH  14  22
ATOM     22  C   UNL     1     -11.099  12.596  65.688  0.00  0.00    +0.169 C 
ATOM     23  O   UNL     1     -10.140  13.336  65.837  0.00  0.00    -0.294 OA
BRANCH  22  24
ATOM     24  C   UNL     1     -12.152  12.730  64.737  0.00  0.00    +0.059 C 
ATOM     25  C   UNL     1     -12.044  13.071  63.314  0.00  0.00    +0.008 C 
ATOM     26  C   UNL     1     -12.698  11.752  63.811  0.00  0.00    +0.008 C 
ENDBRANCH  22  24
ENDBRANCH  14  22
ENDBRANCH   6  14
TORSDOF 6
ENDMDL
MODEL 8
REMARK VINA RESULT:      -5.9      3.386      6.984
REMARK  Name = 
REMARK  6 active torsions:
REMARK  status: ('A' for Active; 'I' for Inactive)
REMARK    1  A    between atoms: C_2  and  O_4
REMARK    2  A    between atoms: O_4  and  C_5
REMARK    3  A    between atoms: N_12  and  C_13
REMARK    4  A    between atoms: C_13  and  C_14
REMARK    5  A    between atoms: C_13  and  C_19
REMARK    6  A    between atoms: C_14  and  C_16
REMARK                            x       y       z     vdW  Elec       q    Type
REMARK                         _______ _______ _______ _____ _____    ______ ____
ROOT
ATOM      1  C   UNL     1      -5.663  18.670  68.450  0.00  0.00    +0.178 A 
ATOM      2  S   UNL     1      -6.885  19.687  69.102  0.00  0.00    -0.055 S 
ATOM      3  C   UNL     1      -8.257  18.953  68.376  0.00  0.00    +0.009 A 
ATOM      4  C   UNL     1      -9.742  18.955  68.570  0.00  0.00    +0.050 C 
ATOM      5  C   UNL     1     -10.079  17.540  69.027  0.00  0.00    +0.078 C 
ATOM      6  N   UNL     1      -9.864  16.683  67.860  0.00  0.00    -0.260 NA
ATOM      7  C   UNL     1      -8.477  16.592  67.507  0.00  0.00    +0.100 C 
ATOM      8  C   UNL     1      -7.682  17.795  67.862  0.00  0.00    -0.000 A 
ATOM      9  C   UNL     1      -6.387  18.064  67.429  0.00  0.00    +0.042 A 
ENDROOT
BRANCH   1  10
ATOM     10  O   UNL     1      -4.274  18.683  68.634  0.00  0.00    -0.417 OA
BRANCH  10  12
ATOM     11  C   UNL     1      -4.074  16.840  69.974  0.00  0.00    +0.122 C 
ATOM     12  C   UNL     1      -3.669  17.913  69.632  0.00  0.00    +0.323 C 
ATOM     13  O   UNL     1      -2.694  18.428  70.258  0.00  0.00    -0.250 OA
ENDBRANCH  10  12
ENDBRANCH   1  10
BRANCH   6  14
ATOM     14  C   UNL     1     -10.035  15.259  68.594  0.00  0.00    +0.141 C 
BRANCH  14  15
ATOM     15  C   UNL     1     -11.093  14.711  67.453  0.00  0.00    +0.027 A 
ATOM     16  C   UNL     1     -11.328  13.347  67.607  0.00  0.00    +0.138 A 
ATOM     17  F   UNL     1     -10.985  12.679  68.744  0.00  0.00    -0.204 F 
ATOM     18  C   UNL     1     -11.932  12.710  66.532  0.00  0.00    +0.029 A 
ATOM     19  C   UNL     1     -12.222  13.411  65.369  0.00  0.00    +0.002 A 
ATOM     20  C   UNL     1     -11.512  14.583  65.145  0.00  0.00    -0.000 A 
ATOM     21  C   UNL     1     -10.752  15.103  66.178  0.00  0.00    -0.000 A 
ENDBRANCH  14  15
BRANCH  14  22
ATOM     22  C   UNL     1     -11.247  15.833  69.554  0.00  0.00    +0.169 C 
ATOM     23  O   UNL     1     -12.166  16.265  68.877  0.00  0.00    -0.294 OA
BRANCH  22  24
ATOM     24  C   UNL     1     -11.289  15.457  70.928  0.00  0.00    +0.059 C 
ATOM     25  C   UNL     1     -12.125  16.023  71.992  0.00  0.00    +0.008 C 
ATOM     26  C   UNL     1     -12.164  14.518  71.609  0.00  0.00    +0.008 C 
ENDBRANCH  22  24
ENDBRANCH  14  22
ENDBRANCH   6  14
TORSDOF 6
ENDMDL
MODEL 9
REMARK VINA RESULT:      -5.7      3.729      7.051
REMARK  Name = 
REMARK  6 active torsions:
REMARK  status: ('A' for Active; 'I' for Inactive)
REMARK    1  A    between atoms: C_2  and  O_4
REMARK    2  A    between atoms: O_4  and  C_5
REMARK    3  A    between atoms: N_12  and  C_13
REMARK    4  A    between atoms: C_13  and  C_14
REMARK    5  A    between atoms: C_13  and  C_19
REMARK    6  A    between atoms: C_14  and  C_16
REMARK                            x       y       z     vdW  Elec       q    Type
REMARK                         _______ _______ _______ _____ _____    ______ ____
ROOT
ATOM      1  C   UNL     1      -9.172  17.765  67.466  0.00  0.00    +0.178 A 
ATOM      2  S   UNL     1     -10.209  17.505  68.811  0.00  0.00    -0.055 S 
ATOM      3  C   UNL     1     -11.025  16.102  68.249  0.00  0.00    +0.009 A 
ATOM      4  C   UNL     1     -11.873  15.013  68.829  0.00  0.00    +0.050 C 
ATOM      5  C   UNL     1     -11.035  13.747  68.689  0.00  0.00    +0.078 C 
ATOM      6  N   UNL     1     -10.993  13.455  67.255  0.00  0.00    -0.260 NA
ATOM      7  C   UNL     1     -10.237  14.432  66.528  0.00  0.00    +0.100 C 
ATOM      8  C   UNL     1     -10.248  15.785  67.139  0.00  0.00    -0.000 A 
ATOM      9  C   UNL     1      -9.799  16.951  66.529  0.00  0.00    +0.042 A 
ENDROOT
BRANCH   1  10
ATOM     10  O   UNL     1      -8.202  18.751  67.241  0.00  0.00    -0.417 OA
BRANCH  10  12
ATOM     11  C   UNL     1      -9.643  20.526  67.223  0.00  0.00    +0.122 C 
ATOM     12  C   UNL     1      -8.524  20.110  67.302  0.00  0.00    +0.323 C 
ATOM     13  O   UNL     1      -7.565  20.938  67.357  0.00  0.00    -0.250 OA
ENDBRANCH  10  12
ENDBRANCH   1  10
BRANCH   6  14
ATOM     14  C   UNL     1      -9.903  12.269  67.300  0.00  0.00    +0.141 C 
BRANCH  14  15
ATOM     15  C   UNL     1     -10.408  11.646  65.859  0.00  0.00    +0.027 A 
ATOM     16  C   UNL     1      -9.495  10.711  65.374  0.00  0.00    +0.138 A 
ATOM     17  F   UNL     1      -8.523  10.175  66.164  0.00  0.00    -0.204 F 
ATOM     18  C   UNL     1      -9.635  10.361  64.038  0.00  0.00    +0.029 A 
ATOM     19  C   UNL     1     -10.605  10.966  63.250  0.00  0.00    +0.002 A 
ATOM     20  C   UNL     1     -11.094  12.193  63.679  0.00  0.00    -0.000 A 
ATOM     21  C   UNL     1     -10.779  12.618  64.958  0.00  0.00    -0.000 A 
ENDBRANCH  14  15
BRANCH  14  22
ATOM     22  C   UNL     1     -10.914  11.294  68.164  0.00  0.00    +0.169 C 
ATOM     23  O   UNL     1     -12.000  11.203  67.615  0.00  0.00    -0.294 OA
BRANCH  22  24
ATOM     24  C   UNL     1     -10.370  10.423  69.152  0.00  0.00    +0.059 C 
ATOM     25  C   UNL     1     -11.037   9.880  70.341  0.00  0.00    +0.008 C 
ATOM     26  C   UNL     1     -10.419   8.973  69.242  0.00  0.00    +0.008 C 
ENDBRANCH  22  24
ENDBRANCH  14  22
ENDBRANCH   6  14
TORSDOF 6
ENDMDL
