MODEL 1
REMARK VINA RESULT:      -6.6      0.000      0.000
REMARK  Name = 
REMARK  4 active torsions:
REMARK  status: ('A' for Active; 'I' for Inactive)
REMARK    1  A    between atoms: C_2  and  C_3
REMARK    2  A    between atoms: C_12  and  C_13
REMARK    3  A    between atoms: C_12  and  C_15
REMARK    4  A    between atoms: C_15  and  C_16
REMARK                            x       y       z     vdW  Elec       q    Type
REMARK                         _______ _______ _______ _____ _____    ______ ____
ROOT
ATOM      1  C   UNL     1     -10.775   9.327  68.015  0.00  0.00    -0.005 A 
ATOM      2  C   UNL     1     -11.261  10.602  67.885  0.00  0.00    +0.077 A 
ATOM      3  C   UNL     1     -11.494  11.311  69.057  0.00  0.00    +0.015 A 
ATOM      4  C   UNL     1     -11.766  12.598  68.680  0.00  0.00    -0.002 A 
ATOM      5  C   UNL     1     -12.094  13.835  69.406  0.00  0.00    +0.060 C 
ATOM      6  C   UNL     1     -11.821  15.091  68.697  0.00  0.00    +0.147 C 
ATOM      7  O   UNL     1     -11.479  15.100  67.412  0.00  0.00    -0.352 OA
ATOM      8  C   UNL     1     -11.550  14.002  66.637  0.00  0.00    +0.138 C 
ATOM      9  C   UNL     1     -11.649  12.706  67.310  0.00  0.00    +0.080 A 
ATOM     10  C   UNL     1     -11.340  10.731  70.294  0.00  0.00    +0.001 A 
ATOM     11  C   UNL     1     -10.883   9.435  70.412  0.00  0.00    -0.000 A 
ATOM     12  N   UNL     1     -11.496  11.459  66.862  0.00  0.00    -0.248 NA
ATOM     13  C   UNL     1     -10.676   8.713  69.256  0.00  0.00    -0.003 A 
ENDROOT
BRANCH   1  15
ATOM     14  C   UNL     1     -10.506   7.238  66.886  0.00  0.00    +0.005 C 
ATOM     15  C   UNL     1     -10.286   8.613  66.809  0.00  0.00    +0.028 C 
ENDBRANCH   1  15
BRANCH   8  16
ATOM     16  C   UNL     1     -10.305  13.994  65.754  0.00  0.00    +0.034 C 
ATOM     17  C   UNL     1      -9.056  14.196  66.599  0.00  0.00    +0.003 C 
ENDBRANCH   8  16
BRANCH   8  18
ATOM     18  C   UNL     1     -12.728  14.108  65.676  0.00  0.00    +0.147 C 
BRANCH  18  19
ATOM     19  C   UNL     1     -12.272  14.483  64.301  0.00  0.00    +0.368 C 
ATOM     20  O   UNL     1     -12.370  15.845  63.995  0.00  0.00    -0.246 OA
ATOM     21  O   UNL     1     -12.538  13.706  63.334  0.00  0.00    -0.246 OA
ENDBRANCH  18  19
ENDBRANCH   8  18
TORSDOF 4
ENDMDL
MODEL 2
REMARK VINA RESULT:      -6.5      2.814      4.016
REMARK  Name = 
REMARK  4 active torsions:
REMARK  status: ('A' for Active; 'I' for Inactive)
REMARK    1  A    between atoms: C_2  and  C_3
REMARK    2  A    between atoms: C_12  and  C_13
REMARK    3  A    between atoms: C_12  and  C_15
REMARK    4  A    between atoms: C_15  and  C_16
REMARK                            x       y       z     vdW  Elec       q    Type
REMARK                         _______ _______ _______ _____ _____    ______ ____
ROOT
ATOM      1  C   UNL     1     -12.262  13.663  70.576  0.00  0.00    -0.005 A 
ATOM      2  C   UNL     1     -12.012  14.280  69.378  0.00  0.00    +0.077 A 
ATOM      3  C   UNL     1     -11.544  15.587  69.427  0.00  0.00    +0.015 A 
ATOM      4  C   UNL     1     -11.172  15.910  68.150  0.00  0.00    -0.002 A 
ATOM      5  C   UNL     1     -10.608  17.112  67.515  0.00  0.00    +0.060 C 
ATOM      6  C   UNL     1      -9.890  16.899  66.253  0.00  0.00    +0.147 C 
ATOM      7  O   UNL     1      -9.916  15.723  65.632  0.00  0.00    -0.352 OA
ATOM      8  C   UNL     1     -10.742  14.728  66.004  0.00  0.00    +0.138 C 
ATOM      9  C   UNL     1     -11.348  14.814  67.333  0.00  0.00    +0.080 A 
ATOM     10  C   UNL     1     -11.430  16.268  70.615  0.00  0.00    +0.001 A 
ATOM     11  C   UNL     1     -11.717  15.648  71.813  0.00  0.00    -0.000 A 
ATOM     12  N   UNL     1     -11.994  13.911  68.074  0.00  0.00    -0.248 NA
ATOM     13  C   UNL     1     -12.210  14.362  71.775  0.00  0.00    -0.003 A 
ENDROOT
BRANCH   1  15
ATOM     14  C   UNL     1     -13.094  11.788  71.803  0.00  0.00    +0.005 C 
ATOM     15  C   UNL     1     -12.533  12.204  70.595  0.00  0.00    +0.028 C 
ENDBRANCH   1  15
BRANCH   8  16
ATOM     16  C   UNL     1      -9.947  13.428  65.918  0.00  0.00    +0.034 C 
ATOM     17  C   UNL     1      -8.805  13.440  66.924  0.00  0.00    +0.003 C 
ENDBRANCH   8  16
BRANCH   8  18
ATOM     18  C   UNL     1     -11.874  14.577  64.994  0.00  0.00    +0.147 C 
BRANCH  18  19
ATOM     19  C   UNL     1     -12.051  13.147  64.589  0.00  0.00    +0.368 C 
ATOM     20  O   UNL     1     -11.710  12.861  63.263  0.00  0.00    -0.246 OA
ATOM     21  O   UNL     1     -13.056  12.507  65.025  0.00  0.00    -0.246 OA
ENDBRANCH  18  19
ENDBRANCH   8  18
TORSDOF 4
ENDMDL
MODEL 3
REMARK VINA RESULT:      -6.4      2.343      3.626
REMARK  Name = 
REMARK  4 active torsions:
REMARK  status: ('A' for Active; 'I' for Inactive)
REMARK    1  A    between atoms: C_2  and  C_3
REMARK    2  A    between atoms: C_12  and  C_13
REMARK    3  A    between atoms: C_12  and  C_15
REMARK    4  A    between atoms: C_15  and  C_16
REMARK                            x       y       z     vdW  Elec       q    Type
REMARK                         _______ _______ _______ _____ _____    ______ ____
ROOT
ATOM      1  C   UNL     1     -12.325  12.871  70.367  0.00  0.00    -0.005 A 
ATOM      2  C   UNL     1     -11.956  13.369  69.146  0.00  0.00    +0.077 A 
ATOM      3  C   UNL     1     -11.847  14.750  69.034  0.00  0.00    +0.015 A 
ATOM      4  C   UNL     1     -11.272  14.993  67.816  0.00  0.00    -0.002 A 
ATOM      5  C   UNL     1     -10.884  16.210  67.085  0.00  0.00    +0.060 C 
ATOM      6  C   UNL     1      -9.856  16.043  66.051  0.00  0.00    +0.147 C 
ATOM      7  O   UNL     1      -9.446  14.835  65.673  0.00  0.00    -0.352 OA
ATOM      8  C   UNL     1     -10.068  13.706  66.059  0.00  0.00    +0.138 C 
ATOM      9  C   UNL     1     -10.975  13.793  67.204  0.00  0.00    +0.080 A 
ATOM     10  C   UNL     1     -12.188  15.587  70.069  0.00  0.00    +0.001 A 
ATOM     11  C   UNL     1     -12.592  15.074  71.285  0.00  0.00    -0.000 A 
ATOM     12  N   UNL     1     -11.538  12.852  67.964  0.00  0.00    -0.248 NA
ATOM     13  C   UNL     1     -12.733  13.708  71.397  0.00  0.00    -0.003 A 
ENDROOT
BRANCH   1  15
ATOM     14  C   UNL     1     -13.057  10.994  71.654  0.00  0.00    +0.005 C 
ATOM     15  C   UNL     1     -12.229  11.410  70.611  0.00  0.00    +0.028 C 
ENDBRANCH   1  15
BRANCH   8  16
ATOM     16  C   UNL     1      -8.982  12.682  66.379  0.00  0.00    +0.034 C 
ATOM     17  C   UNL     1      -7.993  13.257  67.383  0.00  0.00    +0.003 C 
ENDBRANCH   8  16
BRANCH   8  18
ATOM     18  C   UNL     1     -10.855  13.113  64.897  0.00  0.00    +0.147 C 
BRANCH  18  19
ATOM     19  C   UNL     1     -12.240  13.678  64.837  0.00  0.00    +0.368 C 
ATOM     20  O   UNL     1     -13.268  12.730  64.853  0.00  0.00    -0.246 OA
ATOM     21  O   UNL     1     -12.460  14.681  64.091  0.00  0.00    -0.246 OA
ENDBRANCH  18  19
ENDBRANCH   8  18
TORSDOF 4
ENDMDL
MODEL 4
REMARK VINA RESULT:      -6.4      2.112      4.486
REMARK  Name = 
REMARK  4 active torsions:
REMARK  status: ('A' for Active; 'I' for Inactive)
REMARK    1  A    between atoms: C_2  and  C_3
REMARK    2  A    between atoms: C_12  and  C_13
REMARK    3  A    between atoms: C_12  and  C_15
REMARK    4  A    between atoms: C_15  and  C_16
REMARK                            x       y       z     vdW  Elec       q    Type
REMARK                         _______ _______ _______ _____ _____    ______ ____
ROOT
ATOM      1  C   UNL     1     -12.890  13.638  71.278  0.00  0.00    -0.005 A 
ATOM      2  C   UNL     1     -12.073  13.355  70.215  0.00  0.00    +0.077 A 
ATOM      3  C   UNL     1     -11.873  12.014  69.912  0.00  0.00    +0.015 A 
ATOM      4  C   UNL     1     -11.213  11.984  68.714  0.00  0.00    -0.002 A 
ATOM      5  C   UNL     1     -10.707  10.910  67.844  0.00  0.00    +0.060 C 
ATOM      6  C   UNL     1     -10.513  11.261  66.432  0.00  0.00    +0.147 C 
ATOM      7  O   UNL     1     -10.607  12.519  66.013  0.00  0.00    -0.352 OA
ATOM      8  C   UNL     1     -10.690  13.560  66.862  0.00  0.00    +0.138 C 
ATOM      9  C   UNL     1     -11.054  13.272  68.250  0.00  0.00    +0.080 A 
ATOM     10  C   UNL     1     -12.390  11.012  70.700  0.00  0.00    +0.001 A 
ATOM     11  C   UNL     1     -13.183  11.310  71.788  0.00  0.00    -0.000 A 
ATOM     12  N   UNL     1     -11.445  14.067  69.248  0.00  0.00    -0.248 NA
ATOM     13  C   UNL     1     -13.363  12.637  72.115  0.00  0.00    -0.003 A 
ENDROOT
BRANCH   1  15
ATOM     14  C   UNL     1     -14.711  15.144  71.642  0.00  0.00    +0.005 C 
ATOM     15  C   UNL     1     -13.327  15.039  71.501  0.00  0.00    +0.028 C 
ENDBRANCH   1  15
BRANCH   8  16
ATOM     16  C   UNL     1     -11.717  14.531  66.284  0.00  0.00    +0.034 C 
ATOM     17  C   UNL     1     -12.691  13.792  65.377  0.00  0.00    +0.003 C 
ENDBRANCH   8  16
BRANCH   8  18
ATOM     18  C   UNL     1      -9.374  14.329  66.885  0.00  0.00    +0.147 C 
BRANCH  18  19
ATOM     19  C   UNL     1      -9.608  15.804  66.780  0.00  0.00    +0.368 C 
ATOM     20  O   UNL     1      -9.060  16.411  65.645  0.00  0.00    -0.246 OA
ATOM     21  O   UNL     1      -9.553  16.509  67.833  0.00  0.00    -0.246 OA
ENDBRANCH  18  19
ENDBRANCH   8  18
TORSDOF 4
ENDMDL
MODEL 5
REMARK VINA RESULT:      -6.3      3.440      5.671
REMARK  Name = 
REMARK  4 active torsions:
REMARK  status: ('A' for Active; 'I' for Inactive)
REMARK    1  A    between atoms: C_2  and  C_3
REMARK    2  A    between atoms: C_12  and  C_13
REMARK    3  A    between atoms: C_12  and  C_15
REMARK    4  A    between atoms: C_15  and  C_16
REMARK                            x       y       z     vdW  Elec       q    Type
REMARK                         _______ _______ _______ _____ _____    ______ ____
ROOT
ATOM      1  C   UNL     1     -11.780  15.234  71.093  0.00  0.00    -0.005 A 
ATOM      2  C   UNL     1     -11.096  15.489  69.933  0.00  0.00    +0.077 A 
ATOM      3  C   UNL     1     -11.170  14.528  68.933  0.00  0.00    +0.015 A 
ATOM      4  C   UNL     1     -10.600  15.086  67.820  0.00  0.00    -0.002 A 
ATOM      5  C   UNL     1     -10.357  14.622  66.446  0.00  0.00    +0.060 C 
ATOM      6  C   UNL     1     -10.186  15.669  65.431  0.00  0.00    +0.147 C 
ATOM      7  O   UNL     1     -10.069  16.949  65.772  0.00  0.00    -0.352 OA
ATOM      8  C   UNL     1      -9.904  17.346  67.047  0.00  0.00    +0.138 C 
ATOM      9  C   UNL     1     -10.231  16.385  68.101  0.00  0.00    +0.080 A 
ATOM     10  C   UNL     1     -11.816  13.331  69.129  0.00  0.00    +0.001 A 
ATOM     11  C   UNL     1     -12.473  13.070  70.314  0.00  0.00    -0.000 A 
ATOM     12  N   UNL     1     -10.406  16.534  69.415  0.00  0.00    -0.248 NA
ATOM     13  C   UNL     1     -12.381  14.004  71.324  0.00  0.00    -0.003 A 
ENDROOT
BRANCH   1  15
ATOM     14  C   UNL     1     -12.666  15.906  73.209  0.00  0.00    +0.005 C 
ATOM     15  C   UNL     1     -11.933  16.318  72.095  0.00  0.00    +0.028 C 
ENDBRANCH   1  15
BRANCH   8  16
ATOM     16  C   UNL     1     -10.764  18.591  67.245  0.00  0.00    +0.034 C 
ATOM     17  C   UNL     1     -10.422  19.642  66.198  0.00  0.00    +0.003 C 
ENDBRANCH   8  16
BRANCH   8  18
ATOM     18  C   UNL     1      -8.469  17.804  67.276  0.00  0.00    +0.147 C 
BRANCH  18  19
ATOM     19  C   UNL     1      -7.561  17.299  66.199  0.00  0.00    +0.368 C 
ATOM     20  O   UNL     1      -6.745  16.224  66.568  0.00  0.00    -0.246 OA
ATOM     21  O   UNL     1      -7.010  18.135  65.420  0.00  0.00    -0.246 OA
ENDBRANCH  18  19
ENDBRANCH   8  18
TORSDOF 4
ENDMDL
MODEL 6
REMARK VINA RESULT:      -6.2      3.096      6.375
REMARK  Name = 
REMARK  4 active torsions:
REMARK  status: ('A' for Active; 'I' for Inactive)
REMARK    1  A    between atoms: C_2  and  C_3
REMARK    2  A    between atoms: C_12  and  C_13
REMARK    3  A    between atoms: C_12  and  C_15
REMARK    4  A    between atoms: C_15  and  C_16
REMARK                            x       y       z     vdW  Elec       q    Type
REMARK                         _______ _______ _______ _____ _____    ______ ____
ROOT
ATOM      1  C   UNL     1      -9.346  18.509  67.512  0.00  0.00    -0.005 A 
ATOM      2  C   UNL     1      -9.318  17.208  67.084  0.00  0.00    +0.077 A 
ATOM      3  C   UNL     1      -8.269  16.417  67.536  0.00  0.00    +0.015 A 
ATOM      4  C   UNL     1      -8.564  15.135  67.159  0.00  0.00    -0.002 A 
ATOM      5  C   UNL     1      -7.891  13.835  67.316  0.00  0.00    +0.060 C 
ATOM      6  C   UNL     1      -8.750  12.649  67.223  0.00  0.00    +0.147 C 
ATOM      7  O   UNL     1     -10.018  12.741  66.831  0.00  0.00    -0.352 OA
ATOM      8  C   UNL     1     -10.535  13.872  66.316  0.00  0.00    +0.138 C 
ATOM      9  C   UNL     1      -9.794  15.115  66.537  0.00  0.00    +0.080 A 
ATOM     10  C   UNL     1      -7.250  16.937  68.298  0.00  0.00    +0.001 A 
ATOM     11  C   UNL     1      -7.270  18.258  68.696  0.00  0.00    -0.000 A 
ATOM     12  N   UNL     1     -10.139  16.394  66.377  0.00  0.00    -0.248 NA
ATOM     13  C   UNL     1      -8.290  19.059  68.229  0.00  0.00    -0.003 A 
ENDROOT
BRANCH   1  15
ATOM     14  C   UNL     1     -10.547  19.903  65.987  0.00  0.00    +0.005 C 
ATOM     15  C   UNL     1     -10.557  19.329  67.258  0.00  0.00    +0.028 C 
ENDBRANCH   1  15
BRANCH   8  16
ATOM     16  C   UNL     1     -11.935  14.034  66.902  0.00  0.00    +0.034 C 
ATOM     17  C   UNL     1     -11.880  13.989  68.423  0.00  0.00    +0.003 C 
ENDBRANCH   8  16
BRANCH   8  18
ATOM     18  C   UNL     1     -10.739  13.723  64.813  0.00  0.00    +0.147 C 
BRANCH  18  19
ATOM     19  C   UNL     1     -12.187  13.835  64.451  0.00  0.00    +0.368 C 
ATOM     20  O   UNL     1     -12.768  12.659  63.963  0.00  0.00    -0.246 OA
ATOM     21  O   UNL     1     -12.598  14.897  63.891  0.00  0.00    -0.246 OA
ENDBRANCH  18  19
ENDBRANCH   8  18
TORSDOF 4
ENDMDL
MODEL 7
REMARK VINA RESULT:      -6.0      6.967      9.728
REMARK  Name = 
REMARK  4 active torsions:
REMARK  status: ('A' for Active; 'I' for Inactive)
REMARK    1  A    between atoms: C_2  and  C_3
REMARK    2  A    between atoms: C_12  and  C_13
REMARK    3  A    between atoms: C_12  and  C_15
REMARK    4  A    between atoms: C_15  and  C_16
REMARK                            x       y       z     vdW  Elec       q    Type
REMARK                         _______ _______ _______ _____ _____    ______ ____
ROOT
ATOM      1  C   UNL     1      -9.461  18.447  67.530  0.00  0.00    -0.005 A 
ATOM      2  C   UNL     1      -8.346  18.460  68.326  0.00  0.00    +0.077 A 
ATOM      3  C   UNL     1      -7.564  17.311  68.336  0.00  0.00    +0.015 A 
ATOM      4  C   UNL     1      -6.421  17.630  69.019  0.00  0.00    -0.002 A 
ATOM      5  C   UNL     1      -5.203  16.892  69.387  0.00  0.00    +0.060 C 
ATOM      6  C   UNL     1      -4.016  17.706  69.670  0.00  0.00    +0.147 C 
ATOM      7  O   UNL     1      -4.093  19.030  69.772  0.00  0.00    -0.352 OA
ATOM      8  C   UNL     1      -5.268  19.684  69.818  0.00  0.00    +0.138 C 
ATOM      9  C   UNL     1      -6.461  18.961  69.377  0.00  0.00    +0.080 A 
ATOM     10  C   UNL     1      -7.941  16.177  67.657  0.00  0.00    +0.001 A 
ATOM     11  C   UNL     1      -9.084  16.164  66.885  0.00  0.00    -0.000 A 
ATOM     12  N   UNL     1      -7.693  19.379  69.078  0.00  0.00    -0.248 NA
ATOM     13  C   UNL     1      -9.882  17.288  66.892  0.00  0.00    -0.003 A 
ENDROOT
BRANCH   1  15
ATOM     14  C   UNL     1     -10.529  19.891  65.952  0.00  0.00    +0.005 C 
ATOM     15  C   UNL     1     -10.197  19.715  67.295  0.00  0.00    +0.028 C 
ENDBRANCH   1  15
BRANCH   8  16
ATOM     16  C   UNL     1      -5.118  20.938  68.960  0.00  0.00    +0.034 C 
ATOM     17  C   UNL     1      -4.149  20.682  67.815  0.00  0.00    +0.003 C 
ENDBRANCH   8  16
BRANCH   8  18
ATOM     18  C   UNL     1      -5.536  20.190  71.231  0.00  0.00    +0.147 C 
BRANCH  18  19
ATOM     19  C   UNL     1      -4.342  20.901  71.786  0.00  0.00    +0.368 C 
ATOM     20  O   UNL     1      -3.505  20.117  72.586  0.00  0.00    -0.246 OA
ATOM     21  O   UNL     1      -4.471  22.101  72.177  0.00  0.00    -0.246 OA
ENDBRANCH  18  19
ENDBRANCH   8  18
TORSDOF 4
ENDMDL
MODEL 8
REMARK VINA RESULT:      -5.7      1.664      2.573
REMARK  Name = 
REMARK  4 active torsions:
REMARK  status: ('A' for Active; 'I' for Inactive)
REMARK    1  A    between atoms: C_2  and  C_3
REMARK    2  A    between atoms: C_12  and  C_13
REMARK    3  A    between atoms: C_12  and  C_15
REMARK    4  A    between atoms: C_15  and  C_16
REMARK                            x       y       z     vdW  Elec       q    Type
REMARK                         _______ _______ _______ _____ _____    ______ ____
ROOT
ATOM      1  C   UNL     1     -11.262  11.222  69.359  0.00  0.00    -0.005 A 
ATOM      2  C   UNL     1     -11.144  12.409  68.684  0.00  0.00    +0.077 A 
ATOM      3  C   UNL     1     -11.745  13.523  69.257  0.00  0.00    +0.015 A 
ATOM      4  C   UNL     1     -11.322  14.604  68.532  0.00  0.00    -0.002 A 
ATOM      5  C   UNL     1     -11.573  16.052  68.602  0.00  0.00    +0.060 C 
ATOM      6  C   UNL     1     -10.560  16.914  67.982  0.00  0.00    +0.147 C 
ATOM      7  O   UNL     1      -9.579  16.406  67.241  0.00  0.00    -0.352 OA
ATOM      8  C   UNL     1      -9.560  15.117  66.853  0.00  0.00    +0.138 C 
ATOM      9  C   UNL     1     -10.433  14.184  67.565  0.00  0.00    +0.080 A 
ATOM     10  C   UNL     1     -12.506  13.425  70.398  0.00  0.00    +0.001 A 
ATOM     11  C   UNL     1     -12.646  12.218  71.050  0.00  0.00    -0.000 A 
ATOM     12  N   UNL     1     -10.473  12.851  67.592  0.00  0.00    -0.248 NA
ATOM     13  C   UNL     1     -12.080  11.101  70.474  0.00  0.00    -0.003 A 
ENDROOT
BRANCH   1  15
ATOM     14  C   UNL     1      -9.305   9.893  69.704  0.00  0.00    +0.005 C 
ATOM     15  C   UNL     1     -10.449  10.059  68.923  0.00  0.00    +0.028 C 
ENDBRANCH   1  15
BRANCH   8  16
ATOM     16  C   UNL     1      -8.120  14.629  66.986  0.00  0.00    +0.034 C 
ATOM     17  C   UNL     1      -7.175  15.811  67.159  0.00  0.00    +0.003 C 
ENDBRANCH   8  16
BRANCH   8  18
ATOM     18  C   UNL     1      -9.888  15.008  65.368  0.00  0.00    +0.147 C 
BRANCH  18  19
ATOM     19  C   UNL     1     -11.191  15.674  65.052  0.00  0.00    +0.368 C 
ATOM     20  O   UNL     1     -12.248  14.803  64.768  0.00  0.00    -0.246 OA
ATOM     21  O   UNL     1     -11.183  16.737  64.359  0.00  0.00    -0.246 OA
ENDBRANCH  18  19
ENDBRANCH   8  18
TORSDOF 4
ENDMDL
MODEL 9
REMARK VINA RESULT:      -5.5      2.030      2.647
REMARK  Name = 
REMARK  4 active torsions:
REMARK  status: ('A' for Active; 'I' for Inactive)
REMARK    1  A    between atoms: C_2  and  C_3
REMARK    2  A    between atoms: C_12  and  C_13
REMARK    3  A    between atoms: C_12  and  C_15
REMARK    4  A    between atoms: C_15  and  C_16
REMARK                            x       y       z     vdW  Elec       q    Type
REMARK                         _______ _______ _______ _____ _____    ______ ____
ROOT
ATOM      1  C   UNL     1     -11.249   9.034  70.139  0.00  0.00    -0.005 A 
ATOM      2  C   UNL     1     -11.261   9.872  69.056  0.00  0.00    +0.077 A 
ATOM      3  C   UNL     1     -11.807  11.136  69.242  0.00  0.00    +0.015 A 
ATOM      4  C   UNL     1     -11.520  11.850  68.110  0.00  0.00    -0.002 A 
ATOM      5  C   UNL     1     -11.800  13.222  67.660  0.00  0.00    +0.060 C 
ATOM      6  C   UNL     1     -10.907  13.758  66.625  0.00  0.00    +0.147 C 
ATOM      7  O   UNL     1     -10.025  12.981  66.004  0.00  0.00    -0.352 OA
ATOM      8  C   UNL     1     -10.023  11.641  66.134  0.00  0.00    +0.138 C 
ATOM      9  C   UNL     1     -10.762  11.071  67.261  0.00  0.00    +0.080 A 
ATOM     10  C   UNL     1     -12.400  11.498  70.428  0.00  0.00    +0.001 A 
ATOM     11  C   UNL     1     -12.414  10.632  71.502  0.00  0.00    -0.000 A 
ATOM     12  N   UNL     1     -10.760   9.849  67.796  0.00  0.00    -0.248 NA
ATOM     13  C   UNL     1     -11.901   9.366  71.320  0.00  0.00    -0.003 A 
ENDROOT
BRANCH   1  15
ATOM     14  C   UNL     1     -11.286   6.664  69.824  0.00  0.00    +0.005 C 
ATOM     15  C   UNL     1     -10.472   7.771  70.068  0.00  0.00    +0.028 C 
ENDBRANCH   1  15
BRANCH   8  16
ATOM     16  C   UNL     1      -8.564  11.203  66.241  0.00  0.00    +0.034 C 
ATOM     17  C   UNL     1      -7.860  11.976  67.347  0.00  0.00    +0.003 C 
ENDBRANCH   8  16
BRANCH   8  18
ATOM     18  C   UNL     1     -10.550  10.986  64.863  0.00  0.00    +0.147 C 
BRANCH  18  19
ATOM     19  C   UNL     1     -10.357  11.876  63.675  0.00  0.00    +0.368 C 
ATOM     20  O   UNL     1     -11.523  12.475  63.188  0.00  0.00    -0.246 OA
ATOM     21  O   UNL     1      -9.528  11.529  62.779  0.00  0.00    -0.246 OA
ENDBRANCH  18  19
ENDBRANCH   8  18
TORSDOF 4
ENDMDL
