MODEL 1
REMARK VINA RESULT:      -8.1      0.000      0.000
REMARK  Name = 
REMARK  3 active torsions:
REMARK  status: ('A' for Active; 'I' for Inactive)
REMARK    1  A    between atoms: C_21  and  O_22
REMARK    2  A    between atoms: O_22  and  C_23
REMARK    3  A    between atoms: C_62  and  C_63
REMARK                            x       y       z     vdW  Elec       q    Type
REMARK                         _______ _______ _______ _____ _____    ______ ____
ROOT
ATOM      1  C   UNL     1      -5.082  21.506  61.251  0.00  0.00    +0.006 C 
ATOM      2  C   UNL     1      -4.687  20.748  62.606  0.00  0.00    +0.071 C 
ATOM      3  C   UNL     1      -6.243  20.466  63.224  0.00  0.00    +0.171 C 
ATOM      4  C   UNL     1      -6.966  21.817  62.645  0.00  0.00    +0.047 C 
ATOM      5  O   UNL     1      -5.879  21.187  64.522  0.00  0.00    -0.452 OA
ATOM      6  C   UNL     1      -6.449  20.702  65.682  0.00  0.00    +0.319 C 
ATOM      7  O   UNL     1      -5.741  20.970  66.707  0.00  0.00    -0.250 OA
ATOM      8  C   UNL     1      -7.211  19.450  65.742  0.00  0.00    +0.142 C 
ATOM      9  C   UNL     1      -8.547  19.734  66.666  0.00  0.00    +0.166 C 
ATOM     10  O   UNL     1      -7.790  20.608  67.646  0.00  0.00    -0.222 OA
ATOM     11  C   UNL     1      -8.249  18.406  67.576  0.00  0.00    +0.066 C 
ATOM     12  C   UNL     1      -9.269  17.270  66.978  0.00  0.00    +0.155 C 
ATOM     13  O   UNL     1      -9.563  17.950  65.654  0.00  0.00    -0.223 OA
ATOM     14  C   UNL     1     -10.561  17.992  67.707  0.00  0.00    +0.036 C 
ATOM     15  C   UNL     1     -11.316  16.717  68.065  0.00  0.00    +0.038 C 
ATOM     16  C   UNL     1     -10.246  16.017  69.089  0.00  0.00    +0.182 C 
ATOM     17  O   UNL     1     -11.042  16.454  70.290  0.00  0.00    -0.220 OA
ATOM     18  C   UNL     1     -11.082  14.520  68.982  0.00  0.00    +0.185 C 
ATOM     19  O   UNL     1     -10.740  14.117  70.393  0.00  0.00    -0.220 OA
ATOM     20  C   UNL     1      -9.750  13.763  68.401  0.00  0.00    +0.069 C 
ATOM     21  C   UNL     1     -10.537  12.727  67.393  0.00  0.00    +0.160 C 
ATOM     22  O   UNL     1     -11.359  12.165  68.537  0.00  0.00    -0.223 OA
ATOM     23  C   UNL     1      -9.378  11.567  67.557  0.00  0.00    +0.092 C 
ATOM     24  C   UNL     1      -9.561  10.847  66.217  0.00  0.00    +0.224 C 
ATOM     25  C   UNL     1     -10.733  10.075  66.326  0.00  0.00    +0.093 C 
ATOM     26  C   UNL     1     -10.563   8.563  66.875  0.00  0.00    +0.170 C 
ATOM     27  C   UNL     1      -8.868   8.514  66.982  0.00  0.00    +0.161 C 
ATOM     28  C   UNL     1      -8.535   8.924  65.370  0.00  0.00    +0.134 C 
ATOM     29  C   UNL     1      -6.952   8.706  65.670  0.00  0.00    +0.064 C 
ATOM     30  C   UNL     1      -6.173   8.607  64.234  0.00  0.00    +0.142 C 
ATOM     31  C   UNL     1      -5.907  10.199  64.074  0.00  0.00    +0.003 C 
ATOM     32  C   UNL     1      -4.756  10.121  63.377  0.00  0.00    -0.002 C 
ATOM     33  C   UNL     1      -5.015   9.844  61.952  0.00  0.00    -0.000 C 
ATOM     34  C   UNL     1      -5.671  10.913  61.353  0.00  0.00    -0.000 C 
ATOM     35  C   UNL     1      -4.768  12.015  61.004  0.00  0.00    -0.000 C 
ATOM     36  C   UNL     1      -3.536  12.092  61.504  0.00  0.00    -0.000 C 
ATOM     37  C   UNL     1      -2.480  11.676  60.595  0.00  0.00    +0.000 C 
ATOM     38  C   UNL     1      -2.406  12.184  59.393  0.00  0.00    +0.000 C 
ATOM     39  C   UNL     1      -2.009  13.604  59.425  0.00  0.00    -0.000 C 
ATOM     40  C   UNL     1      -3.037  14.353  59.727  0.00  0.00    -0.000 C 
ATOM     41  C   UNL     1      -2.754  15.774  59.704  0.00  0.00    -0.000 C 
ATOM     42  C   UNL     1      -1.968  16.174  60.700  0.00  0.00    -0.000 C 
ATOM     43  C   UNL     1      -1.938  17.622  60.983  0.00  0.00    -0.005 C 
ATOM     44  C   UNL     1      -2.969  18.241  60.559  0.00  0.00    -0.024 C 
ATOM     45  C   UNL     1      -3.328  19.742  60.879  0.00  0.00    +0.053 C 
ATOM     46  C   UNL     1      -2.290  19.922  62.117  0.00  0.00    +0.007 C 
ATOM     47  O   UNL     1     -10.615   9.003  68.325  0.00  0.00    -0.222 OA
ATOM     48  O   UNL     1      -9.886  11.776  65.195  0.00  0.00    -0.195 OA
ATOM     49  O   UNL     1      -8.391  10.373  65.754  0.00  0.00    -0.334 OA
ATOM     50  C   UNL     1      -4.694  19.267  61.799  0.00  0.00    +0.159 C 
ATOM     51  O   UNL     1      -3.962  18.539  62.886  0.00  0.00    -0.223 OA
ENDROOT
BRANCH  27  52
ATOM     52  C   UNL     1      -8.958   6.941  66.833  0.00  0.00    +0.369 C 
ATOM     53  O   UNL     1     -10.235   6.342  66.778  0.00  0.00    -0.245 OA
ATOM     54  O   UNL     1      -8.370   6.368  67.778  0.00  0.00    -0.245 OA
ENDBRANCH  27  52
BRANCH  30  55
ATOM     55  O   UNL     1      -7.371   8.622  63.275  0.00  0.00    -0.327 OA
BRANCH  55  56
ATOM     56  C   UNL     1      -6.840   7.200  63.149  0.00  0.00    +0.268 C 
ATOM     57  C   UNL     1      -8.382   6.463  63.062  0.00  0.00    +0.228 C 
ATOM     58  O   UNL     1      -8.688   6.797  61.632  0.00  0.00    -0.216 OA
ATOM     59  C   UNL     1      -7.813   4.882  62.937  0.00  0.00    +0.160 C 
ATOM     60  N   UNL     1      -8.486   4.553  61.545  0.00  0.00    -0.127 NA
ATOM     61  C   UNL     1      -6.327   4.820  62.162  0.00  0.00    +0.199 C 
ATOM     62  O   UNL     1      -5.680   4.478  63.514  0.00  0.00    -0.219 OA
ATOM     63  C   UNL     1      -5.555   6.323  62.249  0.00  0.00    +0.150 C 
ATOM     64  C   UNL     1      -4.836   5.989  60.789  0.00  0.00    +0.035 C 
ATOM     65  O   UNL     1      -6.617   7.204  61.636  0.00  0.00    -0.328 OA
ENDBRANCH  55  56
ENDBRANCH  30  55
TORSDOF 3
ENDMDL
MODEL 2
REMARK VINA RESULT:      -7.2      5.344     12.686
REMARK  Name = 
REMARK  3 active torsions:
REMARK  status: ('A' for Active; 'I' for Inactive)
REMARK    1  A    between atoms: C_21  and  O_22
REMARK    2  A    between atoms: O_22  and  C_23
REMARK    3  A    between atoms: C_62  and  C_63
REMARK                            x       y       z     vdW  Elec       q    Type
REMARK                         _______ _______ _______ _____ _____    ______ ____
ROOT
ATOM      1  C   UNL     1      -2.903   0.796  61.587  0.00  0.00    +0.006 C 
ATOM      2  C   UNL     1      -4.460   0.771  61.963  0.00  0.00    +0.071 C 
ATOM      3  C   UNL     1      -4.330   0.715  63.655  0.00  0.00    +0.171 C 
ATOM      4  C   UNL     1      -2.948  -0.161  63.749  0.00  0.00    +0.047 C 
ATOM      5  O   UNL     1      -5.171  -0.562  63.696  0.00  0.00    -0.452 OA
ATOM      6  C   UNL     1      -6.006  -0.719  64.784  0.00  0.00    +0.319 C 
ATOM      7  O   UNL     1      -7.001  -1.468  64.514  0.00  0.00    -0.250 OA
ATOM      8  C   UNL     1      -6.253   0.339  65.769  0.00  0.00    +0.142 C 
ATOM      9  C   UNL     1      -6.208  -0.362  67.261  0.00  0.00    +0.166 C 
ATOM     10  O   UNL     1      -6.922  -1.613  66.791  0.00  0.00    -0.222 OA
ATOM     11  C   UNL     1      -7.633   0.331  67.673  0.00  0.00    +0.066 C 
ATOM     12  C   UNL     1      -7.205   1.619  68.593  0.00  0.00    +0.155 C 
ATOM     13  O   UNL     1      -5.753   1.695  68.157  0.00  0.00    -0.223 OA
ATOM     14  C   UNL     1      -6.837   0.637  69.866  0.00  0.00    +0.036 C 
ATOM     15  C   UNL     1      -7.325   1.566  70.972  0.00  0.00    +0.038 C 
ATOM     16  C   UNL     1      -8.919   1.653  70.603  0.00  0.00    +0.182 C 
ATOM     17  O   UNL     1      -9.269   0.678  71.696  0.00  0.00    -0.220 OA
ATOM     18  C   UNL     1      -9.112   3.007  71.643  0.00  0.00    +0.185 C 
ATOM     19  O   UNL     1     -10.529   2.648  72.008  0.00  0.00    -0.220 OA
ATOM     20  C   UNL     1      -9.628   3.946  70.403  0.00  0.00    +0.069 C 
ATOM     21  C   UNL     1      -8.951   5.352  70.926  0.00  0.00    +0.160 C 
ATOM     22  O   UNL     1      -9.690   5.270  72.248  0.00  0.00    -0.223 OA
ATOM     23  C   UNL     1     -10.133   6.267  70.234  0.00  0.00    +0.092 C 
ATOM     24  C   UNL     1      -9.344   7.562  70.016  0.00  0.00    +0.224 C 
ATOM     25  C   UNL     1      -9.223   8.182  71.274  0.00  0.00    +0.093 C 
ATOM     26  C   UNL     1     -10.395   9.215  71.693  0.00  0.00    +0.170 C 
ATOM     27  C   UNL     1     -11.291   9.195  70.251  0.00  0.00    +0.161 C 
ATOM     28  C   UNL     1     -10.033   9.645  69.205  0.00  0.00    +0.134 C 
ATOM     29  C   UNL     1     -11.098   9.674  67.979  0.00  0.00    +0.064 C 
ATOM     30  C   UNL     1     -10.410  10.475  66.728  0.00  0.00    +0.142 C 
ATOM     31  C   UNL     1      -9.704   9.175  66.062  0.00  0.00    +0.003 C 
ATOM     32  C   UNL     1      -9.744   9.585  64.778  0.00  0.00    -0.002 C 
ATOM     33  C   UNL     1      -8.658  10.539  64.491  0.00  0.00    -0.000 C 
ATOM     34  C   UNL     1      -7.418   9.918  64.581  0.00  0.00    -0.000 C 
ATOM     35  C   UNL     1      -7.084   9.133  63.388  0.00  0.00    -0.000 C 
ATOM     36  C   UNL     1      -8.007   8.809  62.485  0.00  0.00    -0.000 C 
ATOM     37  C   UNL     1      -7.991   9.618  61.276  0.00  0.00    +0.000 C 
ATOM     38  C   UNL     1      -6.881   9.780  60.605  0.00  0.00    +0.000 C 
ATOM     39  C   UNL     1      -6.460   8.532  59.941  0.00  0.00    -0.000 C 
ATOM     40  C   UNL     1      -5.877   7.739  60.801  0.00  0.00    -0.000 C 
ATOM     41  C   UNL     1      -5.359   6.518  60.215  0.00  0.00    -0.000 C 
ATOM     42  C   UNL     1      -6.309   5.669  59.834  0.00  0.00    -0.000 C 
ATOM     43  C   UNL     1      -5.896   4.273  59.590  0.00  0.00    -0.005 C 
ATOM     44  C   UNL     1      -4.814   3.956  60.186  0.00  0.00    -0.024 C 
ATOM     45  C   UNL     1      -4.223   2.498  60.290  0.00  0.00    +0.053 C 
ATOM     46  C   UNL     1      -5.574   1.716  59.835  0.00  0.00    +0.007 C 
ATOM     47  O   UNL     1     -11.282   8.109  72.229  0.00  0.00    -0.222 OA
ATOM     48  O   UNL     1      -7.999   7.271  69.673  0.00  0.00    -0.195 OA
ATOM     49  O   UNL     1      -9.749   8.197  68.901  0.00  0.00    -0.334 OA
ATOM     50  C   UNL     1      -4.499   2.458  61.981  0.00  0.00    +0.159 C 
ATOM     51  O   UNL     1      -5.995   2.539  61.943  0.00  0.00    -0.223 OA
ENDROOT
BRANCH  27  52
ATOM     52  C   UNL     1     -11.835  10.632  70.630  0.00  0.00    +0.369 C 
ATOM     53  O   UNL     1     -12.776  10.739  71.677  0.00  0.00    -0.245 OA
ATOM     54  O   UNL     1     -12.380  11.178  69.645  0.00  0.00    -0.245 OA
ENDBRANCH  27  52
BRANCH  30  55
ATOM     55  O   UNL     1      -9.111  10.948  67.393  0.00  0.00    -0.327 OA
BRANCH  55  56
ATOM     56  C   UNL     1      -9.981  12.198  67.397  0.00  0.00    +0.268 C 
ATOM     57  C   UNL     1      -9.045  13.040  68.556  0.00  0.00    +0.228 C 
ATOM     58  O   UNL     1      -7.925  13.456  67.649  0.00  0.00    -0.216 OA
ATOM     59  C   UNL     1     -10.005  14.423  68.585  0.00  0.00    +0.160 C 
ATOM     60  N   UNL     1      -8.877  15.440  68.144  0.00  0.00    -0.127 NA
ATOM     61  C   UNL     1     -10.741  14.696  67.102  0.00  0.00    +0.199 C 
ATOM     62  O   UNL     1     -12.080  14.288  67.738  0.00  0.00    -0.219 OA
ATOM     63  C   UNL     1     -10.806  13.262  66.206  0.00  0.00    +0.150 C 
ATOM     64  C   UNL     1     -10.698  14.174  64.823  0.00  0.00    +0.035 C 
ATOM     65  O   UNL     1      -9.343  12.890  66.192  0.00  0.00    -0.328 OA
ENDBRANCH  55  56
ENDBRANCH  30  55
TORSDOF 3
ENDMDL
MODEL 3
REMARK VINA RESULT:      -5.9      5.684     12.758
REMARK  Name = 
REMARK  3 active torsions:
REMARK  status: ('A' for Active; 'I' for Inactive)
REMARK    1  A    between atoms: C_21  and  O_22
REMARK    2  A    between atoms: O_22  and  C_23
REMARK    3  A    between atoms: C_62  and  C_63
REMARK                            x       y       z     vdW  Elec       q    Type
REMARK                         _______ _______ _______ _____ _____    ______ ____
ROOT
ATOM      1  C   UNL     1      -4.686  -0.640  73.316  0.00  0.00    +0.006 C 
ATOM      2  C   UNL     1      -6.084  -0.381  72.577  0.00  0.00    +0.071 C 
ATOM      3  C   UNL     1      -6.442   1.157  73.200  0.00  0.00    +0.171 C 
ATOM      4  C   UNL     1      -5.759   0.969  74.678  0.00  0.00    +0.047 C 
ATOM      5  O   UNL     1      -7.784   0.652  73.729  0.00  0.00    -0.452 OA
ATOM      6  C   UNL     1      -8.835   1.548  73.709  0.00  0.00    +0.319 C 
ATOM      7  O   UNL     1      -9.961   0.957  73.650  0.00  0.00    -0.250 OA
ATOM      8  C   UNL     1      -8.765   2.856  73.048  0.00  0.00    +0.142 C 
ATOM      9  C   UNL     1      -9.462   3.954  74.062  0.00  0.00    +0.166 C 
ATOM     10  O   UNL     1     -10.556   2.996  74.489  0.00  0.00    -0.222 OA
ATOM     11  C   UNL     1     -10.402   4.533  72.852  0.00  0.00    +0.066 C 
ATOM     12  C   UNL     1      -9.642   5.904  72.371  0.00  0.00    +0.155 C 
ATOM     13  O   UNL     1      -8.291   5.606  72.994  0.00  0.00    -0.223 OA
ATOM     14  C   UNL     1     -10.156   6.707  73.718  0.00  0.00    +0.036 C 
ATOM     15  C   UNL     1     -10.381   8.063  73.059  0.00  0.00    +0.038 C 
ATOM     16  C   UNL     1     -11.562   7.679  71.989  0.00  0.00    +0.182 C 
ATOM     17  O   UNL     1     -12.620   8.283  72.874  0.00  0.00    -0.220 OA
ATOM     18  C   UNL     1     -11.315   9.154  71.146  0.00  0.00    +0.185 C 
ATOM     19  O   UNL     1     -12.761   9.278  70.740  0.00  0.00    -0.220 OA
ATOM     20  C   UNL     1     -10.953   8.358  69.760  0.00  0.00    +0.069 C 
ATOM     21  C   UNL     1      -9.826   9.424  69.209  0.00  0.00    +0.160 C 
ATOM     22  O   UNL     1     -10.820  10.569  69.254  0.00  0.00    -0.223 OA
ATOM     23  C   UNL     1     -10.170   9.087  67.632  0.00  0.00    +0.092 C 
ATOM     24  C   UNL     1      -8.815   9.434  67.008  0.00  0.00    +0.224 C 
ATOM     25  C   UNL     1      -8.730  10.839  66.973  0.00  0.00    +0.093 C 
ATOM     26  C   UNL     1      -9.293  11.571  65.644  0.00  0.00    +0.170 C 
ATOM     27  C   UNL     1      -9.672  10.193  64.727  0.00  0.00    +0.161 C 
ATOM     28  C   UNL     1      -8.137   9.472  64.769  0.00  0.00    +0.134 C 
ATOM     29  C   UNL     1      -8.687   8.303  63.784  0.00  0.00    +0.064 C 
ATOM     30  C   UNL     1      -7.396   7.502  63.175  0.00  0.00    +0.142 C 
ATOM     31  C   UNL     1      -7.289   6.416  64.375  0.00  0.00    +0.003 C 
ATOM     32  C   UNL     1      -6.786   5.396  63.652  0.00  0.00    -0.002 C 
ATOM     33  C   UNL     1      -5.337   5.560  63.436  0.00  0.00    -0.000 C 
ATOM     34  C   UNL     1      -4.644   5.462  64.636  0.00  0.00    -0.000 C 
ATOM     35  C   UNL     1      -4.451   4.075  65.073  0.00  0.00    -0.000 C 
ATOM     36  C   UNL     1      -5.144   3.072  64.536  0.00  0.00    -0.000 C 
ATOM     37  C   UNL     1      -4.416   2.280  63.558  0.00  0.00    +0.000 C 
ATOM     38  C   UNL     1      -3.244   1.782  63.852  0.00  0.00    +0.000 C 
ATOM     39  C   UNL     1      -3.346   0.704  64.854  0.00  0.00    -0.000 C 
ATOM     40  C   UNL     1      -3.482   1.212  66.051  0.00  0.00    -0.000 C 
ATOM     41  C   UNL     1      -3.511   0.221  67.108  0.00  0.00    -0.000 C 
ATOM     42  C   UNL     1      -4.622  -0.509  67.119  0.00  0.00    -0.000 C 
ATOM     43  C   UNL     1      -4.913  -1.260  68.356  0.00  0.00    -0.005 C 
ATOM     44  C   UNL     1      -4.330  -0.782  69.385  0.00  0.00    -0.024 C 
ATOM     45  C   UNL     1      -4.595  -1.229  70.873  0.00  0.00    +0.053 C 
ATOM     46  C   UNL     1      -5.986  -2.021  70.586  0.00  0.00    +0.007 C 
ATOM     47  O   UNL     1     -10.716  11.585  66.164  0.00  0.00    -0.222 OA
ATOM     48  O   UNL     1      -7.759   9.073  67.883  0.00  0.00    -0.195 OA
ATOM     49  O   UNL     1      -8.545   8.639  65.957  0.00  0.00    -0.334 OA
ATOM     50  C   UNL     1      -5.280   0.294  71.257  0.00  0.00    +0.159 C 
ATOM     51  O   UNL     1      -6.468   0.217  70.346  0.00  0.00    -0.223 OA
ENDROOT
BRANCH  27  52
ATOM     52  C   UNL     1      -9.503  11.078  63.426  0.00  0.00    +0.369 C 
ATOM     53  O   UNL     1     -10.358  12.188  63.252  0.00  0.00    -0.245 OA
ATOM     54  O   UNL     1      -9.652  10.387  62.393  0.00  0.00    -0.245 OA
ENDBRANCH  27  52
BRANCH  30  55
ATOM     55  O   UNL     1      -6.257   8.364  63.735  0.00  0.00    -0.327 OA
BRANCH  55  56
ATOM     56  C   UNL     1      -6.227   8.671  62.244  0.00  0.00    +0.268 C 
ATOM     57  C   UNL     1      -5.990  10.356  62.434  0.00  0.00    +0.228 C 
ATOM     58  O   UNL     1      -4.527  10.320  62.762  0.00  0.00    -0.216 OA
ATOM     59  C   UNL     1      -5.971  10.716  60.789  0.00  0.00    +0.160 C 
ATOM     60  N   UNL     1      -4.522  11.349  60.756  0.00  0.00    -0.127 NA
ATOM     61  C   UNL     1      -5.366   9.441  59.883  0.00  0.00    +0.199 C 
ATOM     62  O   UNL     1      -6.791   9.188  59.362  0.00  0.00    -0.219 OA
ATOM     63  C   UNL     1      -5.498   7.992  60.748  0.00  0.00    +0.150 C 
ATOM     64  C   UNL     1      -4.137   7.453  59.966  0.00  0.00    +0.035 C 
ATOM     65  O   UNL     1      -4.749   8.363  62.005  0.00  0.00    -0.328 OA
ENDBRANCH  55  56
ENDBRANCH  30  55
TORSDOF 3
ENDMDL
MODEL 4
REMARK VINA RESULT:      -5.6      3.602      4.204
REMARK  Name = 
REMARK  3 active torsions:
REMARK  status: ('A' for Active; 'I' for Inactive)
REMARK    1  A    between atoms: C_21  and  O_22
REMARK    2  A    between atoms: O_22  and  C_23
REMARK    3  A    between atoms: C_62  and  C_63
REMARK                            x       y       z     vdW  Elec       q    Type
REMARK                         _______ _______ _______ _____ _____    ______ ____
ROOT
ATOM      1  C   UNL     1      -5.352  20.816  63.662  0.00  0.00    +0.006 C 
ATOM      2  C   UNL     1      -4.156  19.919  64.239  0.00  0.00    +0.071 C 
ATOM      3  C   UNL     1      -4.869  19.418  65.696  0.00  0.00    +0.171 C 
ATOM      4  C   UNL     1      -5.753  20.766  65.992  0.00  0.00    +0.047 C 
ATOM      5  O   UNL     1      -3.692  19.986  66.489  0.00  0.00    -0.452 OA
ATOM      6  C   UNL     1      -3.322  19.298  67.628  0.00  0.00    +0.319 C 
ATOM      7  O   UNL     1      -2.097  19.486  67.919  0.00  0.00    -0.250 OA
ATOM      8  C   UNL     1      -3.872  17.987  67.990  0.00  0.00    +0.142 C 
ATOM      9  C   UNL     1      -4.197  18.023  69.606  0.00  0.00    +0.166 C 
ATOM     10  O   UNL     1      -2.949  18.819  69.929  0.00  0.00    -0.222 OA
ATOM     11  C   UNL     1      -3.395  16.615  69.840  0.00  0.00    +0.066 C 
ATOM     12  C   UNL     1      -4.580  15.485  69.928  0.00  0.00    +0.155 C 
ATOM     13  O   UNL     1      -5.684  16.310  69.292  0.00  0.00    -0.223 OA
ATOM     14  C   UNL     1      -4.996  15.984  71.445  0.00  0.00    +0.036 C 
ATOM     15  C   UNL     1      -5.335  14.609  72.011  0.00  0.00    +0.038 C 
ATOM     16  C   UNL     1      -3.875  13.874  71.900  0.00  0.00    +0.182 C 
ATOM     17  O   UNL     1      -3.615  14.072  73.370  0.00  0.00    -0.220 OA
ATOM     18  C   UNL     1      -4.600  12.338  72.155  0.00  0.00    +0.185 C 
ATOM     19  O   UNL     1      -3.393  11.778  72.864  0.00  0.00    -0.220 OA
ATOM     20  C   UNL     1      -4.054  11.788  70.710  0.00  0.00    +0.069 C 
ATOM     21  C   UNL     1      -5.349  10.833  70.363  0.00  0.00    +0.160 C 
ATOM     22  O   UNL     1      -5.176  10.050  71.650  0.00  0.00    -0.223 OA
ATOM     23  C   UNL     1      -4.430   9.769  69.503  0.00  0.00    +0.092 C 
ATOM     24  C   UNL     1      -5.505   9.226  68.557  0.00  0.00    +0.224 C 
ATOM     25  C   UNL     1      -6.303   8.345  69.311  0.00  0.00    +0.093 C 
ATOM     26  C   UNL     1      -5.847   6.793  69.345  0.00  0.00    +0.170 C 
ATOM     27  C   UNL     1      -4.544   6.880  68.257  0.00  0.00    +0.161 C 
ATOM     28  C   UNL     1      -5.398   7.534  66.945  0.00  0.00    +0.134 C 
ATOM     29  C   UNL     1      -4.051   7.419  66.045  0.00  0.00    +0.064 C 
ATOM     30  C   UNL     1      -4.475   7.585  64.473  0.00  0.00    +0.142 C 
ATOM     31  C   UNL     1      -4.344   9.202  64.432  0.00  0.00    +0.003 C 
ATOM     32  C   UNL     1      -3.990   9.322  63.136  0.00  0.00    -0.002 C 
ATOM     33  C   UNL     1      -5.166   9.220  62.253  0.00  0.00    -0.000 C 
ATOM     34  C   UNL     1      -6.022  10.298  62.443  0.00  0.00    -0.000 C 
ATOM     35  C   UNL     1      -5.574  11.513  61.755  0.00  0.00    -0.000 C 
ATOM     36  C   UNL     1      -4.334  11.630  61.283  0.00  0.00    -0.000 C 
ATOM     37  C   UNL     1      -4.204  11.438  59.848  0.00  0.00    +0.000 C 
ATOM     38  C   UNL     1      -4.962  12.109  59.021  0.00  0.00    +0.000 C 
ATOM     39  C   UNL     1      -4.610  13.541  59.000  0.00  0.00    -0.000 C 
ATOM     40  C   UNL     1      -5.126  14.147  60.036  0.00  0.00    -0.000 C 
ATOM     41  C   UNL     1      -4.895  15.578  60.054  0.00  0.00    -0.000 C 
ATOM     42  C   UNL     1      -3.628  15.907  60.293  0.00  0.00    -0.000 C 
ATOM     43  C   UNL     1      -3.369  17.300  60.705  0.00  0.00    -0.005 C 
ATOM     44  C   UNL     1      -4.390  17.877  61.205  0.00  0.00    -0.024 C 
ATOM     45  C   UNL     1      -4.387  19.283  61.918  0.00  0.00    +0.053 C 
ATOM     46  C   UNL     1      -2.777  19.384  62.123  0.00  0.00    +0.007 C 
ATOM     47  O   UNL     1      -4.875   7.026  70.485  0.00  0.00    -0.222 OA
ATOM     48  O   UNL     1      -6.415  10.253  68.198  0.00  0.00    -0.195 OA
ATOM     49  O   UNL     1      -4.987   8.925  67.352  0.00  0.00    -0.334 OA
ATOM     50  C   UNL     1      -4.760  18.567  63.430  0.00  0.00    +0.159 C 
ATOM     51  O   UNL     1      -3.503  17.766  63.591  0.00  0.00    -0.223 OA
ENDROOT
BRANCH  27  52
ATOM     52  C   UNL     1      -4.759   5.340  67.960  0.00  0.00    +0.369 C 
ATOM     53  O   UNL     1      -5.758   4.650  68.679  0.00  0.00    -0.245 OA
ATOM     54  O   UNL     1      -3.706   4.695  68.164  0.00  0.00    -0.245 OA
ENDBRANCH  27  52
BRANCH  30  55
ATOM     55  O   UNL     1      -6.002   7.625  64.609  0.00  0.00    -0.327 OA
BRANCH  55  56
ATOM     56  C   UNL     1      -5.739   6.246  64.016  0.00  0.00    +0.268 C 
ATOM     57  C   UNL     1      -6.979   5.458  64.895  0.00  0.00    +0.228 C 
ATOM     58  O   UNL     1      -8.141   5.923  64.068  0.00  0.00    -0.216 OA
ATOM     59  C   UNL     1      -6.691   3.923  64.262  0.00  0.00    +0.160 C 
ATOM     60  N   UNL     1      -8.128   3.709  63.638  0.00  0.00    -0.127 NA
ATOM     61  C   UNL     1      -6.093   4.002  62.697  0.00  0.00    +0.199 C 
ATOM     62  O   UNL     1      -4.726   3.552  63.241  0.00  0.00    -0.219 OA
ATOM     63  C   UNL     1      -5.402   5.519  62.407  0.00  0.00    +0.150 C 
ATOM     64  C   UNL     1      -5.841   5.365  60.813  0.00  0.00    +0.035 C 
ATOM     65  O   UNL     1      -6.572   6.413  62.745  0.00  0.00    -0.328 OA
ENDBRANCH  55  56
ENDBRANCH  30  55
TORSDOF 3
ENDMDL
MODEL 5
REMARK VINA RESULT:      -5.4      6.223     11.502
REMARK  Name = 
REMARK  3 active torsions:
REMARK  status: ('A' for Active; 'I' for Inactive)
REMARK    1  A    between atoms: C_21  and  O_22
REMARK    2  A    between atoms: O_22  and  C_23
REMARK    3  A    between atoms: C_62  and  C_63
REMARK                            x       y       z     vdW  Elec       q    Type
REMARK                         _______ _______ _______ _____ _____    ______ ____
ROOT
ATOM      1  C   UNL     1      -4.685   4.538  59.002  0.00  0.00    +0.006 C 
ATOM      2  C   UNL     1      -4.182   5.344  60.292  0.00  0.00    +0.071 C 
ATOM      3  C   UNL     1      -5.585   6.242  60.616  0.00  0.00    +0.171 C 
ATOM      4  C   UNL     1      -6.096   6.434  59.071  0.00  0.00    +0.047 C 
ATOM      5  O   UNL     1      -4.791   7.546  60.542  0.00  0.00    -0.452 OA
ATOM      6  C   UNL     1      -5.185   8.562  61.391  0.00  0.00    +0.319 C 
ATOM      7  O   UNL     1      -4.227   9.358  61.655  0.00  0.00    -0.250 OA
ATOM      8  C   UNL     1      -6.177   8.381  62.457  0.00  0.00    +0.142 C 
ATOM      9  C   UNL     1      -7.177   9.692  62.422  0.00  0.00    +0.166 C 
ATOM     10  O   UNL     1      -6.045  10.656  62.126  0.00  0.00    -0.222 OA
ATOM     11  C   UNL     1      -6.992   9.925  64.032  0.00  0.00    +0.066 C 
ATOM     12  C   UNL     1      -8.348   9.280  64.691  0.00  0.00    +0.155 C 
ATOM     13  O   UNL     1      -8.766   8.443  63.496  0.00  0.00    -0.223 OA
ATOM     14  C   UNL     1      -9.251  10.565  64.186  0.00  0.00    +0.036 C 
ATOM     15  C   UNL     1     -10.175  10.637  65.396  0.00  0.00    +0.038 C 
ATOM     16  C   UNL     1      -9.091  10.975  66.577  0.00  0.00    +0.182 C 
ATOM     17  O   UNL     1      -9.484  12.429  66.582  0.00  0.00    -0.220 OA
ATOM     18  C   UNL     1     -10.245  10.579  67.786  0.00  0.00    +0.185 C 
ATOM     19  O   UNL     1      -9.700  11.579  68.772  0.00  0.00    -0.220 OA
ATOM     20  C   UNL     1      -9.280   9.400  68.389  0.00  0.00    +0.069 C 
ATOM     21  C   UNL     1     -10.483   8.361  68.817  0.00  0.00    +0.160 C 
ATOM     22  O   UNL     1     -11.137   9.407  69.698  0.00  0.00    -0.223 OA
ATOM     23  C   UNL     1      -9.608   7.744  70.069  0.00  0.00    +0.092 C 
ATOM     24  C   UNL     1     -10.239   6.350  70.146  0.00  0.00    +0.224 C 
ATOM     25  C   UNL     1     -11.502   6.508  70.749  0.00  0.00    +0.093 C 
ATOM     26  C   UNL     1     -11.559   6.392  72.362  0.00  0.00    +0.170 C 
ATOM     27  C   UNL     1      -9.938   5.974  72.652  0.00  0.00    +0.161 C 
ATOM     28  C   UNL     1      -9.885   4.600  71.657  0.00  0.00    +0.134 C 
ATOM     29  C   UNL     1      -8.367   4.323  72.165  0.00  0.00    +0.064 C 
ATOM     30  C   UNL     1      -7.966   2.790  71.756  0.00  0.00    +0.142 C 
ATOM     31  C   UNL     1      -7.390   3.152  70.283  0.00  0.00    +0.003 C 
ATOM     32  C   UNL     1      -6.469   2.170  70.202  0.00  0.00    -0.002 C 
ATOM     33  C   UNL     1      -7.092   0.886  69.835  0.00  0.00    -0.000 C 
ATOM     34  C   UNL     1      -7.607   0.937  68.545  0.00  0.00    -0.000 C 
ATOM     35  C   UNL     1      -6.578   0.767  67.513  0.00  0.00    -0.000 C 
ATOM     36  C   UNL     1      -5.281   0.877  67.795  0.00  0.00    -0.000 C 
ATOM     37  C   UNL     1      -4.573  -0.387  67.922  0.00  0.00    +0.000 C 
ATOM     38  C   UNL     1      -4.654  -1.286  66.976  0.00  0.00    +0.000 C 
ATOM     39  C   UNL     1      -3.951  -0.855  65.753  0.00  0.00    -0.000 C 
ATOM     40  C   UNL     1      -4.691  -0.015  65.080  0.00  0.00    -0.000 C 
ATOM     41  C   UNL     1      -4.108   0.400  63.819  0.00  0.00    -0.000 C 
ATOM     42  C   UNL     1      -3.052   1.197  63.961  0.00  0.00    -0.000 C 
ATOM     43  C   UNL     1      -2.634   1.966  62.773  0.00  0.00    -0.005 C 
ATOM     44  C   UNL     1      -3.567   2.118  61.917  0.00  0.00    -0.024 C 
ATOM     45  C   UNL     1      -3.500   3.053  60.650  0.00  0.00    +0.053 C 
ATOM     46  C   UNL     1      -2.201   3.911  61.120  0.00  0.00    +0.007 C 
ATOM     47  O   UNL     1     -11.189   7.849  72.555  0.00  0.00    -0.222 OA
ATOM     48  O   UNL     1     -10.564   5.881  68.847  0.00  0.00    -0.195 OA
ATOM     49  O   UNL     1      -9.337   5.426  70.522  0.00  0.00    -0.334 OA
ATOM     50  C   UNL     1      -4.700   4.092  61.297  0.00  0.00    +0.159 C 
ATOM     51  O   UNL     1      -3.929   4.574  62.488  0.00  0.00    -0.223 OA
ENDROOT
BRANCH  27  52
ATOM     52  C   UNL     1     -10.410   5.294  74.001  0.00  0.00    +0.369 C 
ATOM     53  O   UNL     1     -10.514   6.097  75.157  0.00  0.00    -0.245 OA
ATOM     54  O   UNL     1      -9.645   4.357  74.322  0.00  0.00    -0.245 OA
ENDBRANCH  27  52
BRANCH  30  55
ATOM     55  O   UNL     1      -9.311   2.298  71.205  0.00  0.00    -0.327 OA
BRANCH  55  56
ATOM     56  C   UNL     1      -9.200   1.583  72.545  0.00  0.00    +0.268 C 
ATOM     57  C   UNL     1     -10.883   1.566  72.856  0.00  0.00    +0.228 C 
ATOM     58  O   UNL     1     -11.247   0.434  71.941  0.00  0.00    -0.216 OA
ATOM     59  C   UNL     1     -10.776   0.790  74.347  0.00  0.00    +0.160 C 
ATOM     60  N   UNL     1     -11.667  -0.460  73.968  0.00  0.00    -0.127 NA
ATOM     61  C   UNL     1      -9.460  -0.247  74.413  0.00  0.00    +0.199 C 
ATOM     62  O   UNL     1      -8.780   0.742  75.374  0.00  0.00    -0.219 OA
ATOM     63  C   UNL     1      -8.307   0.193  73.254  0.00  0.00    +0.150 C 
ATOM     64  C   UNL     1      -7.875  -1.406  73.141  0.00  0.00    +0.035 C 
ATOM     65  O   UNL     1      -9.157   0.154  72.006  0.00  0.00    -0.328 OA
ENDBRANCH  55  56
ENDBRANCH  30  55
TORSDOF 3
ENDMDL
MODEL 6
REMARK VINA RESULT:      -5.3      5.857     11.601
REMARK  Name = 
REMARK  3 active torsions:
REMARK  status: ('A' for Active; 'I' for Inactive)
REMARK    1  A    between atoms: C_21  and  O_22
REMARK    2  A    between atoms: O_22  and  C_23
REMARK    3  A    between atoms: C_62  and  C_63
REMARK                            x       y       z     vdW  Elec       q    Type
REMARK                         _______ _______ _______ _____ _____    ______ ____
ROOT
ATOM      1  C   UNL     1      -5.175   5.991  77.000  0.00  0.00    +0.006 C 
ATOM      2  C   UNL     1      -6.050   7.072  76.205  0.00  0.00    +0.071 C 
ATOM      3  C   UNL     1      -4.799   7.928  75.442  0.00  0.00    +0.171 C 
ATOM      4  C   UNL     1      -3.666   7.770  76.615  0.00  0.00    +0.047 C 
ATOM      5  O   UNL     1      -5.292   9.237  76.059  0.00  0.00    -0.452 OA
ATOM      6  C   UNL     1      -5.148  10.376  75.293  0.00  0.00    +0.319 C 
ATOM      7  O   UNL     1      -6.003  11.268  75.604  0.00  0.00    -0.250 OA
ATOM      8  C   UNL     1      -4.731  10.354  73.887  0.00  0.00    +0.142 C 
ATOM      9  C   UNL     1      -3.631  11.566  73.683  0.00  0.00    +0.166 C 
ATOM     10  O   UNL     1      -4.383  12.518  74.592  0.00  0.00    -0.222 OA
ATOM     11  C   UNL     1      -4.438  12.132  72.375  0.00  0.00    +0.066 C 
ATOM     12  C   UNL     1      -3.591  11.551  71.097  0.00  0.00    +0.155 C 
ATOM     13  O   UNL     1      -2.836  10.465  71.840  0.00  0.00    -0.223 OA
ATOM     14  C   UNL     1      -2.385  12.649  71.349  0.00  0.00    +0.036 C 
ATOM     15  C   UNL     1      -2.053  12.907  69.883  0.00  0.00    +0.038 C 
ATOM     16  C   UNL     1      -3.471  13.544  69.366  0.00  0.00    +0.182 C 
ATOM     17  O   UNL     1      -2.912  14.941  69.416  0.00  0.00    -0.220 OA
ATOM     18  C   UNL     1      -3.000  13.330  67.728  0.00  0.00    +0.185 C 
ATOM     19  O   UNL     1      -3.758  14.542  67.250  0.00  0.00    -0.220 OA
ATOM     20  C   UNL     1      -4.288  12.360  67.434  0.00  0.00    +0.069 C 
ATOM     21  C   UNL     1      -3.538  11.357  66.366  0.00  0.00    +0.160 C 
ATOM     22  O   UNL     1      -3.170  12.518  65.462  0.00  0.00    -0.223 OA
ATOM     23  C   UNL     1      -4.936  11.063  65.545  0.00  0.00    +0.092 C 
ATOM     24  C   UNL     1      -4.602   9.677  64.983  0.00  0.00    +0.224 C 
ATOM     25  C   UNL     1      -3.701   9.875  63.920  0.00  0.00    +0.093 C 
ATOM     26  C   UNL     1      -4.342  10.085  62.450  0.00  0.00    +0.170 C 
ATOM     27  C   UNL     1      -5.976   9.836  62.839  0.00  0.00    +0.161 C 
ATOM     28  C   UNL     1      -5.805   8.295  63.528  0.00  0.00    +0.134 C 
ATOM     29  C   UNL     1      -7.419   8.222  63.702  0.00  0.00    +0.064 C 
ATOM     30  C   UNL     1      -7.827   6.666  64.000  0.00  0.00    +0.142 C 
ATOM     31  C   UNL     1      -7.674   6.756  65.613  0.00  0.00    +0.003 C 
ATOM     32  C   UNL     1      -8.608   5.838  65.935  0.00  0.00    -0.002 C 
ATOM     33  C   UNL     1      -8.080   4.470  65.787  0.00  0.00    -0.000 C 
ATOM     34  C   UNL     1      -7.071   4.226  66.711  0.00  0.00    -0.000 C 
ATOM     35  C   UNL     1      -7.585   3.915  68.049  0.00  0.00    -0.000 C 
ATOM     36  C   UNL     1      -8.851   4.160  68.385  0.00  0.00    -0.000 C 
ATOM     37  C   UNL     1      -9.720   2.995  68.387  0.00  0.00    +0.000 C 
ATOM     38  C   UNL     1      -9.381   1.919  69.048  0.00  0.00    +0.000 C 
ATOM     39  C   UNL     1      -9.438   2.136  70.506  0.00  0.00    -0.000 C 
ATOM     40  C   UNL     1      -8.371   2.774  70.909  0.00  0.00    -0.000 C 
ATOM     41  C   UNL     1      -8.306   2.960  72.344  0.00  0.00    -0.000 C 
ATOM     42  C   UNL     1      -9.197   3.833  72.806  0.00  0.00    -0.000 C 
ATOM     43  C   UNL     1      -8.963   4.370  74.161  0.00  0.00    -0.005 C 
ATOM     44  C   UNL     1      -7.746   4.287  74.533  0.00  0.00    -0.024 C 
ATOM     45  C   UNL     1      -7.141   4.948  75.830  0.00  0.00    +0.053 C 
ATOM     46  C   UNL     1      -8.380   5.962  76.117  0.00  0.00    +0.007 C 
ATOM     47  O   UNL     1      -4.544  11.571  62.668  0.00  0.00    -0.222 OA
ATOM     48  O   UNL     1      -3.835   8.935  65.917  0.00  0.00    -0.195 OA
ATOM     49  O   UNL     1      -5.702   8.906  64.901  0.00  0.00    -0.334 OA
ATOM     50  C   UNL     1      -6.187   6.020  74.893  0.00  0.00    +0.159 C 
ATOM     51  O   UNL     1      -7.308   6.781  74.251  0.00  0.00    -0.223 OA
ENDROOT
BRANCH  27  52
ATOM     52  C   UNL     1      -6.216   9.416  61.331  0.00  0.00    +0.369 C 
ATOM     53  O   UNL     1      -5.168   9.607  60.406  0.00  0.00    -0.245 OA
ATOM     54  O   UNL     1      -7.194  10.028  60.847  0.00  0.00    -0.245 OA
ENDBRANCH  27  52
BRANCH  30  55
ATOM     55  O   UNL     1      -6.461   5.990  63.821  0.00  0.00    -0.327 OA
BRANCH  55  56
ATOM     56  C   UNL     1      -7.220   5.583  62.565  0.00  0.00    +0.268 C 
ATOM     57  C   UNL     1      -5.846   5.582  61.544  0.00  0.00    +0.228 C 
ATOM     58  O   UNL     1      -5.268   4.269  61.983  0.00  0.00    -0.216 OA
ATOM     59  C   UNL     1      -6.672   5.148  60.141  0.00  0.00    +0.160 C 
ATOM     60  N   UNL     1      -5.865   3.819  59.856  0.00  0.00    -0.127 NA
ATOM     61  C   UNL     1      -8.007   4.190  60.480  0.00  0.00    +0.199 C 
ATOM     62  O   UNL     1      -8.905   5.383  60.113  0.00  0.00    -0.219 OA
ATOM     63  C   UNL     1      -8.492   4.406  62.087  0.00  0.00    +0.150 C 
ATOM     64  C   UNL     1      -9.026   2.834  62.090  0.00  0.00    +0.035 C 
ATOM     65  O   UNL     1      -7.203   4.073  62.801  0.00  0.00    -0.328 OA
ENDBRANCH  55  56
ENDBRANCH  30  55
TORSDOF 3
ENDMDL
MODEL 7
REMARK VINA RESULT:      -5.2      6.515     12.986
REMARK  Name = 
REMARK  3 active torsions:
REMARK  status: ('A' for Active; 'I' for Inactive)
REMARK    1  A    between atoms: C_21  and  O_22
REMARK    2  A    between atoms: O_22  and  C_23
REMARK    3  A    between atoms: C_62  and  C_63
REMARK                            x       y       z     vdW  Elec       q    Type
REMARK                         _______ _______ _______ _____ _____    ______ ____
ROOT
ATOM      1  C   UNL     1      -7.311  11.438  61.710  0.00  0.00    +0.006 C 
ATOM      2  C   UNL     1      -8.292  10.171  61.729  0.00  0.00    +0.071 C 
ATOM      3  C   UNL     1      -7.137   8.930  61.637  0.00  0.00    +0.171 C 
ATOM      4  C   UNL     1      -6.033   9.715  60.716  0.00  0.00    +0.047 C 
ATOM      5  O   UNL     1      -7.815   8.366  60.389  0.00  0.00    -0.452 OA
ATOM      6  C   UNL     1      -7.794   6.993  60.239  0.00  0.00    +0.319 C 
ATOM      7  O   UNL     1      -8.766   6.579  59.529  0.00  0.00    -0.250 OA
ATOM      8  C   UNL     1      -7.332   6.076  61.287  0.00  0.00    +0.142 C 
ATOM      9  C   UNL     1      -6.392   4.934  60.557  0.00  0.00    +0.166 C 
ATOM     10  O   UNL     1      -7.289   4.849  59.339  0.00  0.00    -0.222 OA
ATOM     11  C   UNL     1      -7.221   3.727  61.289  0.00  0.00    +0.066 C 
ATOM     12  C   UNL     1      -6.265   3.284  62.545  0.00  0.00    +0.155 C 
ATOM     13  O   UNL     1      -5.401   4.531  62.581  0.00  0.00    -0.223 OA
ATOM     14  C   UNL     1      -5.219   2.514  61.528  0.00  0.00    +0.036 C 
ATOM     15  C   UNL     1      -4.875   1.351  62.452  0.00  0.00    +0.038 C 
ATOM     16  C   UNL     1      -6.346   0.644  62.598  0.00  0.00    +0.182 C 
ATOM     17  O   UNL     1      -5.974  -0.435  61.615  0.00  0.00    -0.220 OA
ATOM     18  C   UNL     1      -5.798  -0.280  63.938  0.00  0.00    +0.185 C 
ATOM     19  O   UNL     1      -6.690  -1.453  63.619  0.00  0.00    -0.220 OA
ATOM     20  C   UNL     1      -6.940   0.372  64.916  0.00  0.00    +0.069 C 
ATOM     21  C   UNL     1      -6.032   0.394  66.289  0.00  0.00    +0.160 C 
ATOM     22  O   UNL     1      -5.788  -1.100  66.207  0.00  0.00    -0.223 OA
ATOM     23  C   UNL     1      -7.353   0.202  67.255  0.00  0.00    +0.092 C 
ATOM     24  C   UNL     1      -6.826   0.873  68.527  0.00  0.00    +0.224 C 
ATOM     25  C   UNL     1      -5.923  -0.030  69.120  0.00  0.00    +0.093 C 
ATOM     26  C   UNL     1      -6.537  -1.083  70.183  0.00  0.00    +0.170 C 
ATOM     27  C   UNL     1      -8.138  -0.516  70.218  0.00  0.00    +0.161 C 
ATOM     28  C   UNL     1      -7.792   1.089  70.647  0.00  0.00    +0.134 C 
ATOM     29  C   UNL     1      -9.388   1.382  70.733  0.00  0.00    +0.064 C 
ATOM     30  C   UNL     1      -9.602   2.793  71.534  0.00  0.00    +0.142 C 
ATOM     31  C   UNL     1      -9.515   3.746  70.224  0.00  0.00    +0.003 C 
ATOM     32  C   UNL     1     -10.332   4.727  70.658  0.00  0.00    -0.002 C 
ATOM     33  C   UNL     1      -9.628   5.635  71.581  0.00  0.00    -0.000 C 
ATOM     34  C   UNL     1      -8.627   6.335  70.919  0.00  0.00    -0.000 C 
ATOM     35  C   UNL     1      -9.140   7.471  70.145  0.00  0.00    -0.000 C 
ATOM     36  C   UNL     1     -10.437   7.598  69.869  0.00  0.00    -0.000 C 
ATOM     37  C   UNL     1     -11.149   8.556  70.699  0.00  0.00    +0.000 C 
ATOM     38  C   UNL     1     -10.696   9.775  70.836  0.00  0.00    +0.000 C 
ATOM     39  C   UNL     1     -10.827  10.549  69.587  0.00  0.00    -0.000 C 
ATOM     40  C   UNL     1      -9.865  10.237  68.760  0.00  0.00    -0.000 C 
ATOM     41  C   UNL     1      -9.872  11.010  67.534  0.00  0.00    -0.000 C 
ATOM     42  C   UNL     1     -10.883  10.709  66.724  0.00  0.00    -0.000 C 
ATOM     43  C   UNL     1     -10.764  11.150  65.320  0.00  0.00    -0.005 C 
ATOM     44  C   UNL     1      -9.560  11.357  64.956  0.00  0.00    -0.024 C 
ATOM     45  C   UNL     1      -9.088  11.637  63.478  0.00  0.00    +0.053 C 
ATOM     46  C   UNL     1     -10.455  11.143  62.750  0.00  0.00    +0.007 C 
ATOM     47  O   UNL     1      -6.936  -2.062  69.097  0.00  0.00    -0.222 OA
ATOM     48  O   UNL     1      -6.000   1.979  68.199  0.00  0.00    -0.195 OA
ATOM     49  O   UNL     1      -7.813   1.495  69.196  0.00  0.00    -0.334 OA
ATOM     50  C   UNL     1      -8.249  10.143  63.416  0.00  0.00    +0.159 C 
ATOM     51  O   UNL     1      -9.437   9.239  63.546  0.00  0.00    -0.223 OA
ENDROOT
BRANCH  27  52
ATOM     52  C   UNL     1      -8.272  -1.144  71.666  0.00  0.00    +0.369 C 
ATOM     53  O   UNL     1      -7.193  -1.899  72.173  0.00  0.00    -0.245 OA
ATOM     54  O   UNL     1      -9.263  -1.904  71.733  0.00  0.00    -0.245 OA
ENDBRANCH  27  52
BRANCH  30  55
ATOM     55  O   UNL     1      -8.155   3.088  71.952  0.00  0.00    -0.327 OA
BRANCH  55  56
ATOM     56  C   UNL     1      -8.817   2.665  73.257  0.00  0.00    +0.268 C 
ATOM     57  C   UNL     1      -7.436   1.875  73.886  0.00  0.00    +0.228 C 
ATOM     58  O   UNL     1      -6.680   3.097  74.316  0.00  0.00    -0.216 OA
ATOM     59  C   UNL     1      -8.157   1.385  75.328  0.00  0.00    +0.160 C 
ATOM     60  N   UNL     1      -7.156   2.133  76.297  0.00  0.00    -0.127 NA
ATOM     61  C   UNL     1      -9.342   2.463  75.823  0.00  0.00    +0.199 C 
ATOM     62  O   UNL     1     -10.399   1.410  75.450  0.00  0.00    -0.219 OA
ATOM     63  C   UNL     1      -9.890   3.379  74.510  0.00  0.00    +0.150 C 
ATOM     64  C   UNL     1     -10.186   4.629  75.562  0.00  0.00    +0.035 C 
ATOM     65  O   UNL     1      -8.582   3.963  74.029  0.00  0.00    -0.328 OA
ENDBRANCH  55  56
ENDBRANCH  30  55
TORSDOF 3
ENDMDL
MODEL 8
REMARK VINA RESULT:      -5.2      6.586     12.234
REMARK  Name = 
REMARK  3 active torsions:
REMARK  status: ('A' for Active; 'I' for Inactive)
REMARK    1  A    between atoms: C_21  and  O_22
REMARK    2  A    between atoms: O_22  and  C_23
REMARK    3  A    between atoms: C_62  and  C_63
REMARK                            x       y       z     vdW  Elec       q    Type
REMARK                         _______ _______ _______ _____ _____    ______ ____
ROOT
ATOM      1  C   UNL     1     -10.371   5.014  59.000  0.00  0.00    +0.006 C 
ATOM      2  C   UNL     1      -9.033   5.266  59.846  0.00  0.00    +0.071 C 
ATOM      3  C   UNL     1      -9.569   6.542  60.829  0.00  0.00    +0.171 C 
ATOM      4  C   UNL     1     -10.589   7.244  59.756  0.00  0.00    +0.047 C 
ATOM      5  O   UNL     1      -8.416   7.423  60.346  0.00  0.00    -0.452 OA
ATOM      6  C   UNL     1      -7.881   8.303  61.266  0.00  0.00    +0.319 C 
ATOM      7  O   UNL     1      -6.670   8.592  60.997  0.00  0.00    -0.250 OA
ATOM      8  C   UNL     1      -8.234   8.293  62.690  0.00  0.00    +0.142 C 
ATOM      9  C   UNL     1      -8.442   9.861  63.154  0.00  0.00    +0.166 C 
ATOM     10  O   UNL     1      -7.282  10.355  62.312  0.00  0.00    -0.222 OA
ATOM     11  C   UNL     1      -7.456   9.652  64.443  0.00  0.00    +0.066 C 
ATOM     12  C   UNL     1      -8.480   9.453  65.708  0.00  0.00    +0.155 C 
ATOM     13  O   UNL     1      -9.722   9.121  64.901  0.00  0.00    -0.223 OA
ATOM     14  C   UNL     1      -8.842  11.064  65.717  0.00  0.00    +0.036 C 
ATOM     15  C   UNL     1      -8.965  11.223  67.228  0.00  0.00    +0.038 C 
ATOM     16  C   UNL     1      -7.437  10.854  67.690  0.00  0.00    +0.182 C 
ATOM     17  O   UNL     1      -7.096  12.309  67.877  0.00  0.00    -0.220 OA
ATOM     18  C   UNL     1      -7.944  10.682  69.322  0.00  0.00    +0.185 C 
ATOM     19  O   UNL     1      -6.628  11.158  69.883  0.00  0.00    -0.220 OA
ATOM     20  C   UNL     1      -7.442   9.123  69.364  0.00  0.00    +0.069 C 
ATOM     21  C   UNL     1      -8.630   8.561  70.356  0.00  0.00    +0.160 C 
ATOM     22  O   UNL     1      -8.266   9.562  71.435  0.00  0.00    -0.223 OA
ATOM     23  C   UNL     1      -7.651   7.401  70.996  0.00  0.00    +0.092 C 
ATOM     24  C   UNL     1      -8.716   6.377  71.399  0.00  0.00    +0.224 C 
ATOM     25  C   UNL     1      -9.341   6.874  72.559  0.00  0.00    +0.093 C 
ATOM     26  C   UNL     1      -8.693   6.444  73.977  0.00  0.00    +0.170 C 
ATOM     27  C   UNL     1      -7.496   5.383  73.407  0.00  0.00    +0.161 C 
ATOM     28  C   UNL     1      -8.519   4.344  72.540  0.00  0.00    +0.134 C 
ATOM     29  C   UNL     1      -7.237   3.402  72.208  0.00  0.00    +0.064 C 
ATOM     30  C   UNL     1      -7.793   1.960  71.669  0.00  0.00    +0.142 C 
ATOM     31  C   UNL     1      -7.869   2.380  70.104  0.00  0.00    +0.003 C 
ATOM     32  C   UNL     1      -7.629   1.162  69.578  0.00  0.00    -0.002 C 
ATOM     33  C   UNL     1      -8.845   0.328  69.593  0.00  0.00    -0.000 C 
ATOM     34  C   UNL     1      -9.812   0.850  68.743  0.00  0.00    -0.000 C 
ATOM     35  C   UNL     1      -9.571   0.524  67.333  0.00  0.00    -0.000 C 
ATOM     36  C   UNL     1      -8.393   0.063  66.916  0.00  0.00    -0.000 C 
ATOM     37  C   UNL     1      -8.347  -1.371  66.679  0.00  0.00    +0.000 C 
ATOM     38  C   UNL     1      -9.241  -1.943  65.916  0.00  0.00    +0.000 C 
ATOM     39  C   UNL     1      -9.073  -1.564  64.501  0.00  0.00    -0.000 C 
ATOM     40  C   UNL     1      -9.583  -0.380  64.288  0.00  0.00    -0.000 C 
ATOM     41  C   UNL     1      -9.531   0.040  62.901  0.00  0.00    -0.000 C 
ATOM     42  C   UNL     1      -8.301   0.318  62.478  0.00  0.00    -0.000 C 
ATOM     43  C   UNL     1      -8.188   1.104  61.234  0.00  0.00    -0.005 C 
ATOM     44  C   UNL     1      -9.234   1.784  60.969  0.00  0.00    -0.024 C 
ATOM     45  C   UNL     1      -9.353   2.871  59.833  0.00  0.00    +0.053 C 
ATOM     46  C   UNL     1      -7.758   3.039  59.568  0.00  0.00    +0.007 C 
ATOM     47  O   UNL     1      -7.677   7.568  73.939  0.00  0.00    -0.222 OA
ATOM     48  O   UNL     1      -9.772   6.360  70.451  0.00  0.00    -0.195 OA
ATOM     49  O   UNL     1      -8.256   5.119  71.275  0.00  0.00    -0.334 OA
ATOM     50  C   UNL     1      -9.521   4.125  60.989  0.00  0.00    +0.159 C 
ATOM     51  O   UNL     1      -8.166   4.005  61.617  0.00  0.00    -0.223 OA
ENDROOT
BRANCH  27  52
ATOM     52  C   UNL     1      -7.538   4.664  74.817  0.00  0.00    +0.369 C 
ATOM     53  O   UNL     1      -8.380   5.194  75.817  0.00  0.00    -0.245 OA
ATOM     54  O   UNL     1      -6.399   4.629  75.335  0.00  0.00    -0.245 OA
ENDBRANCH  27  52
BRANCH  30  55
ATOM     55  O   UNL     1      -9.300   2.155  71.885  0.00  0.00    -0.327 OA
BRANCH  55  56
ATOM     56  C   UNL     1      -8.893   1.262  73.050  0.00  0.00    +0.268 C 
ATOM     57  C   UNL     1     -10.071   1.869  74.133  0.00  0.00    +0.228 C 
ATOM     58  O   UNL     1     -11.253   1.127  73.585  0.00  0.00    -0.216 OA
ATOM     59  C   UNL     1      -9.623   0.901  75.437  0.00  0.00    +0.160 C 
ATOM     60  N   UNL     1     -11.019   0.180  75.618  0.00  0.00    -0.127 NA
ATOM     61  C   UNL     1      -9.000  -0.571  74.929  0.00  0.00    +0.199 C 
ATOM     62  O   UNL     1      -7.609  -0.090  75.376  0.00  0.00    -0.219 OA
ATOM     63  C   UNL     1      -8.452  -0.457  73.332  0.00  0.00    +0.150 C 
ATOM     64  C   UNL     1      -8.837  -2.060  73.133  0.00  0.00    +0.035 C 
ATOM     65  O   UNL     1      -9.709   0.032  72.653  0.00  0.00    -0.328 OA
ENDBRANCH  55  56
ENDBRANCH  30  55
TORSDOF 3
ENDMDL
MODEL 9
REMARK VINA RESULT:      -5.1      5.386      9.756
REMARK  Name = 
REMARK  3 active torsions:
REMARK  status: ('A' for Active; 'I' for Inactive)
REMARK    1  A    between atoms: C_21  and  O_22
REMARK    2  A    between atoms: O_22  and  C_23
REMARK    3  A    between atoms: C_62  and  C_63
REMARK                            x       y       z     vdW  Elec       q    Type
REMARK                         _______ _______ _______ _____ _____    ______ ____
ROOT
ATOM      1  C   UNL     1      -3.108  20.282  60.886  0.00  0.00    +0.006 C 
ATOM      2  C   UNL     1      -4.285  19.235  61.177  0.00  0.00    +0.071 C 
ATOM      3  C   UNL     1      -3.426  17.788  60.950  0.00  0.00    +0.171 C 
ATOM      4  C   UNL     1      -2.402  18.313  59.783  0.00  0.00    +0.047 C 
ATOM      5  O   UNL     1      -4.434  17.334  59.894  0.00  0.00    -0.452 OA
ATOM      6  C   UNL     1      -4.702  15.980  59.835  0.00  0.00    +0.319 C 
ATOM      7  O   UNL     1      -5.857  15.746  59.353  0.00  0.00    -0.250 OA
ATOM      8  C   UNL     1      -4.220  15.020  60.834  0.00  0.00    +0.142 C 
ATOM      9  C   UNL     1      -3.677  13.695  60.017  0.00  0.00    +0.166 C 
ATOM     10  O   UNL     1      -4.800  13.753  59.000  0.00  0.00    -0.222 OA
ATOM     11  C   UNL     1      -4.555  12.696  60.972  0.00  0.00    +0.066 C 
ATOM     12  C   UNL     1      -3.468  12.109  62.050  0.00  0.00    +0.155 C 
ATOM     13  O   UNL     1      -2.395  13.161  61.836  0.00  0.00    -0.223 OA
ATOM     14  C   UNL     1      -2.810  11.119  60.905  0.00  0.00    +0.036 C 
ATOM     15  C   UNL     1      -2.513   9.938  61.822  0.00  0.00    +0.038 C 
ATOM     16  C   UNL     1      -4.031   9.539  62.293  0.00  0.00    +0.182 C 
ATOM     17  O   UNL     1      -4.072   8.381  61.331  0.00  0.00    -0.220 OA
ATOM     18  C   UNL     1      -3.409   8.564  63.563  0.00  0.00    +0.185 C 
ATOM     19  O   UNL     1      -4.551   7.582  63.499  0.00  0.00    -0.220 OA
ATOM     20  C   UNL     1      -4.189   9.456  64.695  0.00  0.00    +0.069 C 
ATOM     21  C   UNL     1      -3.036   9.338  65.865  0.00  0.00    +0.160 C 
ATOM     22  O   UNL     1      -3.099   7.823  65.838  0.00  0.00    -0.223 OA
ATOM     23  C   UNL     1      -4.149   9.438  67.076  0.00  0.00    +0.092 C 
ATOM     24  C   UNL     1      -3.261  10.027  68.176  0.00  0.00    +0.224 C 
ATOM     25  C   UNL     1      -2.444   8.981  68.645  0.00  0.00    +0.093 C 
ATOM     26  C   UNL     1      -3.020   8.100  69.874  0.00  0.00    +0.170 C 
ATOM     27  C   UNL     1      -4.445   8.973  70.176  0.00  0.00    +0.161 C 
ATOM     28  C   UNL     1      -3.725  10.490  70.422  0.00  0.00    +0.134 C 
ATOM     29  C   UNL     1      -5.187  11.095  70.792  0.00  0.00    +0.064 C 
ATOM     30  C   UNL     1      -4.967  12.543  71.522  0.00  0.00    +0.142 C 
ATOM     31  C   UNL     1      -4.967  13.422  70.159  0.00  0.00    +0.003 C 
ATOM     32  C   UNL     1      -5.481  14.557  70.675  0.00  0.00    -0.002 C 
ATOM     33  C   UNL     1      -4.448  15.334  71.384  0.00  0.00    -0.000 C 
ATOM     34  C   UNL     1      -3.487  15.803  70.497  0.00  0.00    -0.000 C 
ATOM     35  C   UNL     1      -3.922  16.996  69.762  0.00  0.00    -0.000 C 
ATOM     36  C   UNL     1      -5.200  17.368  69.730  0.00  0.00    -0.000 C 
ATOM     37  C   UNL     1      -5.538  18.472  70.614  0.00  0.00    +0.000 C 
ATOM     38  C   UNL     1      -4.846  19.580  70.581  0.00  0.00    +0.000 C 
ATOM     39  C   UNL     1      -5.077  20.329  69.331  0.00  0.00    -0.000 C 
ATOM     40  C   UNL     1      -4.377  19.810  68.358  0.00  0.00    -0.000 C 
ATOM     41  C   UNL     1      -4.484  20.534  67.107  0.00  0.00    -0.000 C 
ATOM     42  C   UNL     1      -5.674  20.416  66.527  0.00  0.00    -0.000 C 
ATOM     43  C   UNL     1      -5.759  20.784  65.100  0.00  0.00    -0.005 C 
ATOM     44  C   UNL     1      -4.634  20.739  64.500  0.00  0.00    -0.024 C 
ATOM     45  C   UNL     1      -4.424  20.878  62.944  0.00  0.00    +0.053 C 
ATOM     46  C   UNL     1      -5.978  20.644  62.525  0.00  0.00    +0.007 C 
ATOM     47  O   UNL     1      -3.805   7.189  68.952  0.00  0.00    -0.222 OA
ATOM     48  O   UNL     1      -2.325  10.939  67.623  0.00  0.00    -0.195 OA
ATOM     49  O   UNL     1      -3.960  10.851  68.978  0.00  0.00    -0.334 OA
ATOM     50  C   UNL     1      -3.911  19.247  62.822  0.00  0.00    +0.159 C 
ATOM     51  O   UNL     1      -5.197  18.599  63.238  0.00  0.00    -0.223 OA
ENDROOT
BRANCH  27  52
ATOM     52  C   UNL     1      -4.402   8.426  71.661  0.00  0.00    +0.369 C 
ATOM     53  O   UNL     1      -3.701   7.228  71.915  0.00  0.00    -0.245 OA
ATOM     54  O   UNL     1      -5.558   8.227  72.097  0.00  0.00    -0.245 OA
ENDBRANCH  27  52
BRANCH  30  55
ATOM     55  O   UNL     1      -3.437  12.558  71.636  0.00  0.00    -0.327 OA
BRANCH  55  56
ATOM     56  C   UNL     1      -3.879  11.937  72.954  0.00  0.00    +0.268 C 
ATOM     57  C   UNL     1      -2.294  11.667  73.541  0.00  0.00    +0.228 C 
ATOM     58  O   UNL     1      -1.990  13.074  73.960  0.00  0.00    -0.216 OA
ATOM     59  C   UNL     1      -2.766  10.963  74.998  0.00  0.00    +0.160 C 
ATOM     60  N   UNL     1      -2.055  12.009  75.946  0.00  0.00    -0.127 NA
ATOM     61  C   UNL     1      -4.234  11.572  75.532  0.00  0.00    +0.199 C 
ATOM     62  O   UNL     1      -4.878  10.221  75.179  0.00  0.00    -0.219 OA
ATOM     63  C   UNL     1      -5.097  12.244  74.240  0.00  0.00    +0.150 C 
ATOM     64  C   UNL     1      -5.773  13.320  75.309  0.00  0.00    +0.035 C 
ATOM     65  O   UNL     1      -4.081  13.238  73.730  0.00  0.00    -0.328 OA
ENDBRANCH  55  56
ENDBRANCH  30  55
TORSDOF 3
ENDMDL
