MODEL 1
REMARK VINA RESULT:      -2.8      0.000      0.000
REMARK  Name = 
REMARK  1 active torsions:
REMARK  status: ('A' for Active; 'I' for Inactive)
REMARK    1  A    between atoms: C_2  and  C_3
REMARK                            x       y       z     vdW  Elec       q    Type
REMARK                         _______ _______ _______ _____ _____    ______ ____
ROOT
ATOM      1  C   UNL     1     -13.950  15.513  72.403  0.00  0.00    +0.161 C 
ATOM      2  O   UNL     1     -13.743  13.960  72.790  0.00  0.00    -0.350 OA
ATOM      3  C   UNL     1     -13.348  14.444  71.310  0.00  0.00    +0.173 C 
ENDROOT
BRANCH   1   5
ATOM      4 CL   UNL     1     -12.422  15.663  74.692  0.00  0.00    -0.111 Cl
ATOM      5  C   UNL     1     -12.463  15.977  73.033  0.00  0.00    +0.127 C 
ENDBRANCH   1   5
TORSDOF 1
ENDMDL
MODEL 2
REMARK VINA RESULT:      -2.7      2.295      2.741
REMARK  Name = 
REMARK  1 active torsions:
REMARK  status: ('A' for Active; 'I' for Inactive)
REMARK    1  A    between atoms: C_2  and  C_3
REMARK                            x       y       z     vdW  Elec       q    Type
REMARK                         _______ _______ _______ _____ _____    ______ ____
ROOT
ATOM      1  C   UNL     1     -12.638  14.870  73.528  0.00  0.00    +0.161 C 
ATOM      2  O   UNL     1     -13.365  16.307  73.640  0.00  0.00    -0.350 OA
ATOM      3  C   UNL     1     -12.124  16.148  72.632  0.00  0.00    +0.173 C 
ENDROOT
BRANCH   1   5
ATOM      4 CL   UNL     1     -13.459  12.641  72.130  0.00  0.00    -0.111 Cl
ATOM      5  C   UNL     1     -13.731  14.287  72.393  0.00  0.00    +0.127 C 
ENDBRANCH   1   5
TORSDOF 1
ENDMDL
MODEL 3
REMARK VINA RESULT:      -2.6      2.357      2.800
REMARK  Name = 
REMARK  1 active torsions:
REMARK  status: ('A' for Active; 'I' for Inactive)
REMARK    1  A    between atoms: C_2  and  C_3
REMARK                            x       y       z     vdW  Elec       q    Type
REMARK                         _______ _______ _______ _____ _____    ______ ____
ROOT
ATOM      1  C   UNL     1     -13.080  14.798  72.874  0.00  0.00    +0.161 C 
ATOM      2  O   UNL     1     -13.606  16.194  73.490  0.00  0.00    -0.350 OA
ATOM      3  C   UNL     1     -12.092  16.108  72.959  0.00  0.00    +0.173 C 
ENDROOT
BRANCH   1   5
ATOM      4 CL   UNL     1     -15.368  15.095  71.367  0.00  0.00    -0.111 Cl
ATOM      5  C   UNL     1     -13.680  15.127  71.340  0.00  0.00    +0.127 C 
ENDBRANCH   1   5
TORSDOF 1
ENDMDL
MODEL 4
REMARK VINA RESULT:      -2.6      8.674      8.957
REMARK  Name = 
REMARK  1 active torsions:
REMARK  status: ('A' for Active; 'I' for Inactive)
REMARK    1  A    between atoms: C_2  and  C_3
REMARK                            x       y       z     vdW  Elec       q    Type
REMARK                         _______ _______ _______ _____ _____    ______ ____
ROOT
ATOM      1  C   UNL     1     -12.632  13.857  65.359  0.00  0.00    +0.161 C 
ATOM      2  O   UNL     1     -12.592  14.563  63.909  0.00  0.00    -0.350 OA
ATOM      3  C   UNL     1     -11.412  14.879  64.952  0.00  0.00    +0.173 C 
ENDROOT
BRANCH   1   5
ATOM      4 CL   UNL     1     -12.601  11.939  63.380  0.00  0.00    -0.111 Cl
ATOM      5  C   UNL     1     -11.879  12.456  64.816  0.00  0.00    +0.127 C 
ENDBRANCH   1   5
TORSDOF 1
ENDMDL
MODEL 5
REMARK VINA RESULT:      -2.5      2.529      2.582
REMARK  Name = 
REMARK  1 active torsions:
REMARK  status: ('A' for Active; 'I' for Inactive)
REMARK    1  A    between atoms: C_2  and  C_3
REMARK                            x       y       z     vdW  Elec       q    Type
REMARK                         _______ _______ _______ _____ _____    ______ ____
ROOT
ATOM      1  C   UNL     1     -13.429  15.303  71.224  0.00  0.00    +0.161 C 
ATOM      2  O   UNL     1     -14.128  15.939  72.531  0.00  0.00    -0.350 OA
ATOM      3  C   UNL     1     -13.518  14.456  72.628  0.00  0.00    +0.173 C 
ENDROOT
BRANCH   1   5
ATOM      4 CL   UNL     1     -11.112  16.281  70.094  0.00  0.00    -0.111 Cl
ATOM      5  C   UNL     1     -11.941  16.017  71.541  0.00  0.00    +0.127 C 
ENDBRANCH   1   5
TORSDOF 1
ENDMDL
MODEL 6
REMARK VINA RESULT:      -2.5      8.515      8.856
REMARK  Name = 
REMARK  1 active torsions:
REMARK  status: ('A' for Active; 'I' for Inactive)
REMARK    1  A    between atoms: C_2  and  C_3
REMARK                            x       y       z     vdW  Elec       q    Type
REMARK                         _______ _______ _______ _____ _____    ______ ____
ROOT
ATOM      1  C   UNL     1     -11.844  12.562  65.767  0.00  0.00    +0.161 C 
ATOM      2  O   UNL     1     -13.135  12.574  64.798  0.00  0.00    -0.350 OA
ATOM      3  C   UNL     1     -12.644  13.960  65.444  0.00  0.00    +0.173 C 
ENDROOT
BRANCH   1   5
ATOM      4 CL   UNL     1     -10.951  11.371  63.448  0.00  0.00    -0.111 Cl
ATOM      5  C   UNL     1     -10.755  12.682  64.493  0.00  0.00    +0.127 C 
ENDBRANCH   1   5
TORSDOF 1
ENDMDL
MODEL 7
REMARK VINA RESULT:      -2.4      7.885      8.322
REMARK  Name = 
REMARK  1 active torsions:
REMARK  status: ('A' for Active; 'I' for Inactive)
REMARK    1  A    between atoms: C_2  and  C_3
REMARK                            x       y       z     vdW  Elec       q    Type
REMARK                         _______ _______ _______ _____ _____    ______ ____
ROOT
ATOM      1  C   UNL     1     -12.064  13.556  64.345  0.00  0.00    +0.161 C 
ATOM      2  O   UNL     1     -13.249  12.501  64.639  0.00  0.00    -0.350 OA
ATOM      3  C   UNL     1     -12.235  12.203  63.430  0.00  0.00    +0.173 C 
ENDROOT
BRANCH   1   5
ATOM      4 CL   UNL     1     -11.801  12.790  66.980  0.00  0.00    -0.111 Cl
ATOM      5  C   UNL     1     -11.030  12.873  65.480  0.00  0.00    +0.127 C 
ENDBRANCH   1   5
TORSDOF 1
ENDMDL
MODEL 8
REMARK VINA RESULT:      -2.3      7.968      8.616
REMARK  Name = 
REMARK  1 active torsions:
REMARK  status: ('A' for Active; 'I' for Inactive)
REMARK    1  A    between atoms: C_2  and  C_3
REMARK                            x       y       z     vdW  Elec       q    Type
REMARK                         _______ _______ _______ _____ _____    ______ ____
ROOT
ATOM      1  C   UNL     1     -11.054  13.044  65.353  0.00  0.00    +0.161 C 
ATOM      2  O   UNL     1     -12.198  12.214  66.131  0.00  0.00    -0.350 OA
ATOM      3  C   UNL     1     -12.026  13.778  66.455  0.00  0.00    +0.173 C 
ENDROOT
BRANCH   1   5
ATOM      4 CL   UNL     1     -12.538  11.893  63.337  0.00  0.00    -0.111 Cl
ATOM      5  C   UNL     1     -12.032  13.350  64.021  0.00  0.00    +0.127 C 
ENDBRANCH   1   5
TORSDOF 1
ENDMDL
MODEL 9
REMARK VINA RESULT:      -2.3      8.056      8.440
REMARK  Name = 
REMARK  1 active torsions:
REMARK  status: ('A' for Active; 'I' for Inactive)
REMARK    1  A    between atoms: C_2  and  C_3
REMARK                            x       y       z     vdW  Elec       q    Type
REMARK                         _______ _______ _______ _____ _____    ______ ____
ROOT
ATOM      1  C   UNL     1     -12.166  14.161  64.426  0.00  0.00    +0.161 C 
ATOM      2  O   UNL     1     -13.017  12.839  64.791  0.00  0.00    -0.350 OA
ATOM      3  C   UNL     1     -12.098  12.824  63.473  0.00  0.00    +0.173 C 
ENDROOT
BRANCH   1   5
ATOM      4 CL   UNL     1      -9.809  15.034  65.557  0.00  0.00    -0.111 Cl
ATOM      5  C   UNL     1     -10.880  13.736  65.421  0.00  0.00    +0.127 C 
ENDBRANCH   1   5
TORSDOF 1
ENDMDL
