MODEL 1
REMARK VINA RESULT:      -7.1      0.000      0.000
REMARK  Name = 
REMARK  0 active torsions:
REMARK  status: ('A' for Active; 'I' for Inactive)
REMARK                            x       y       z     vdW  Elec       q    Type
REMARK                         _______ _______ _______ _____ _____    ______ ____
ROOT
ATOM      1  C   UNL     1     -10.341  18.029  67.277  0.00  0.00    +0.090 C 
ATOM      2  N   UNL     1     -10.166  16.884  67.895  0.00  0.00    -0.271 NA
ATOM      3  C   UNL     1      -9.375  15.980  67.197  0.00  0.00    +0.077 C 
ATOM      4  C   UNL     1      -9.819  14.510  67.767  0.00  0.00    +0.047 C 
ATOM      5  C   UNL     1     -10.385  15.182  69.253  0.00  0.00    +0.047 C 
ATOM      6  C   UNL     1     -11.599  14.173  69.523  0.00  0.00    +0.015 A 
ATOM      7  C   UNL     1     -11.523  12.797  69.346  0.00  0.00    +0.141 A 
ATOM      8  O   UNL     1     -11.745  12.393  68.015  0.00  0.00    -0.454 OA
ATOM      9  C   UNL     1     -11.649  13.158  66.834  0.00  0.00    +0.141 A 
ATOM     10  C   UNL     1     -12.210  12.635  65.724  0.00  0.00    +0.037 A 
ATOM     11  C   UNL     1     -12.106  13.379  64.555  0.00  0.00    +0.003 A 
ATOM     12  C   UNL     1     -11.872  14.744  64.676  0.00  0.00    -0.000 A 
ATOM     13  C   UNL     1     -11.060  15.090  65.751  0.00  0.00    -0.001 A 
ATOM     14  C   UNL     1     -12.189  12.018  70.285  0.00  0.00    +0.038 A 
ATOM     15  C   UNL     1     -12.849  12.614  71.358  0.00  0.00    +0.015 A 
ATOM     16  C   UNL     1     -13.081  13.988  71.382  0.00  0.00    +0.058 A 
ATOM     17 CL   UNL     1     -14.690  14.633  71.730  0.00  0.00    -0.082 Cl
ATOM     18  C   UNL     1     -12.137  14.733  70.679  0.00  0.00    +0.010 A 
ATOM     19  C   UNL     1     -11.241  14.495  66.996  0.00  0.00    +0.014 A 
ATOM     20  C   UNL     1     -11.330  16.262  68.446  0.00  0.00    +0.077 C 
ENDROOT
TORSDOF 0
ENDMDL
MODEL 2
REMARK VINA RESULT:      -6.4      3.021      4.987
REMARK  Name = 
REMARK  0 active torsions:
REMARK  status: ('A' for Active; 'I' for Inactive)
REMARK                            x       y       z     vdW  Elec       q    Type
REMARK                         _______ _______ _______ _____ _____    ______ ____
ROOT
ATOM      1  C   UNL     1      -6.261  16.974  69.528  0.00  0.00    +0.090 C 
ATOM      2  N   UNL     1      -6.725  16.513  68.390  0.00  0.00    -0.271 NA
ATOM      3  C   UNL     1      -6.499  17.351  67.306  0.00  0.00    +0.077 C 
ATOM      4  C   UNL     1      -7.659  16.951  66.221  0.00  0.00    +0.047 C 
ATOM      5  C   UNL     1      -7.836  15.370  66.890  0.00  0.00    +0.047 C 
ATOM      6  C   UNL     1      -9.405  15.177  66.632  0.00  0.00    +0.015 A 
ATOM      7  C   UNL     1     -10.050  15.528  65.453  0.00  0.00    +0.141 A 
ATOM      8  O   UNL     1     -10.411  16.889  65.399  0.00  0.00    -0.454 OA
ATOM      9  C   UNL     1      -9.897  17.967  66.149  0.00  0.00    +0.141 A 
ATOM     10  C   UNL     1     -10.616  19.109  66.141  0.00  0.00    +0.037 A 
ATOM     11  C   UNL     1     -10.106  20.179  66.867  0.00  0.00    +0.003 A 
ATOM     12  C   UNL     1      -9.201  19.898  67.883  0.00  0.00    -0.000 A 
ATOM     13  C   UNL     1      -8.359  18.824  67.616  0.00  0.00    -0.001 A 
ATOM     14  C   UNL     1     -11.051  14.667  65.019  0.00  0.00    +0.038 A 
ATOM     15  C   UNL     1     -11.335  13.500  65.727  0.00  0.00    +0.015 A 
ATOM     16  C   UNL     1     -10.820  13.294  67.005  0.00  0.00    +0.058 A 
ATOM     17 CL   UNL     1     -11.869  12.799  68.340  0.00  0.00    -0.082 Cl
ATOM     18  C   UNL     1      -9.607  13.938  67.236  0.00  0.00    +0.010 A 
ATOM     19  C   UNL     1      -8.859  17.656  67.046  0.00  0.00    +0.014 A 
ATOM     20  C   UNL     1      -8.058  15.994  68.398  0.00  0.00    +0.077 C 
ENDROOT
TORSDOF 0
ENDMDL
MODEL 3
REMARK VINA RESULT:      -6.3      2.683      4.378
REMARK  Name = 
REMARK  0 active torsions:
REMARK  status: ('A' for Active; 'I' for Inactive)
REMARK                            x       y       z     vdW  Elec       q    Type
REMARK                         _______ _______ _______ _____ _____    ______ ____
ROOT
ATOM      1  C   UNL     1      -9.128  14.812  66.500  0.00  0.00    +0.090 C 
ATOM      2  N   UNL     1      -9.984  13.890  66.877  0.00  0.00    -0.271 NA
ATOM      3  C   UNL     1     -11.298  14.333  66.944  0.00  0.00    +0.077 C 
ATOM      4  C   UNL     1     -12.026  13.318  68.005  0.00  0.00    +0.047 C 
ATOM      5  C   UNL     1     -10.871  12.070  67.708  0.00  0.00    +0.047 C 
ATOM      6  C   UNL     1     -10.830  11.430  69.175  0.00  0.00    +0.015 A 
ATOM      7  C   UNL     1     -11.957  11.187  69.951  0.00  0.00    +0.141 A 
ATOM      8  O   UNL     1     -12.390  12.317  70.672  0.00  0.00    -0.454 OA
ATOM      9  C   UNL     1     -12.103  13.677  70.436  0.00  0.00    +0.141 A 
ATOM     10  C   UNL     1     -12.372  14.539  71.439  0.00  0.00    +0.037 A 
ATOM     11  C   UNL     1     -12.104  15.882  71.205  0.00  0.00    +0.003 A 
ATOM     12  C   UNL     1     -11.188  16.194  70.207  0.00  0.00    -0.000 A 
ATOM     13  C   UNL     1     -11.216  15.329  69.118  0.00  0.00    -0.001 A 
ATOM     14  C   UNL     1     -11.950  10.016  70.699  0.00  0.00    +0.038 A 
ATOM     15  C   UNL     1     -10.875   9.132  70.617  0.00  0.00    +0.015 A 
ATOM     16  C   UNL     1      -9.683   9.509  70.000  0.00  0.00    +0.058 A 
ATOM     17 CL   UNL     1      -8.126   9.267  70.804  0.00  0.00    -0.082 Cl
ATOM     18  C   UNL     1      -9.842  10.464  68.999  0.00  0.00    +0.010 A 
ATOM     19  C   UNL     1     -11.308  13.953  69.307  0.00  0.00    +0.014 A 
ATOM     20  C   UNL     1      -9.624  13.102  68.015  0.00  0.00    +0.077 C 
ENDROOT
TORSDOF 0
ENDMDL
MODEL 4
REMARK VINA RESULT:      -6.3      2.879      4.672
REMARK  Name = 
REMARK  0 active torsions:
REMARK  status: ('A' for Active; 'I' for Inactive)
REMARK                            x       y       z     vdW  Elec       q    Type
REMARK                         _______ _______ _______ _____ _____    ______ ____
ROOT
ATOM      1  C   UNL     1      -8.784  12.870  66.856  0.00  0.00    +0.090 C 
ATOM      2  N   UNL     1      -9.845  12.260  67.331  0.00  0.00    -0.271 NA
ATOM      3  C   UNL     1     -11.031  12.957  67.137  0.00  0.00    +0.077 C 
ATOM      4  C   UNL     1     -12.034  12.404  68.309  0.00  0.00    +0.047 C 
ATOM      5  C   UNL     1     -11.166  10.920  68.448  0.00  0.00    +0.047 C 
ATOM      6  C   UNL     1     -11.367  10.673  70.018  0.00  0.00    +0.015 A 
ATOM      7  C   UNL     1     -12.569  10.860  70.689  0.00  0.00    +0.141 A 
ATOM      8  O   UNL     1     -12.789  12.198  71.073  0.00  0.00    -0.454 OA
ATOM      9  C   UNL     1     -12.193  13.371  70.564  0.00  0.00    +0.141 A 
ATOM     10  C   UNL     1     -12.333  14.492  71.302  0.00  0.00    +0.037 A 
ATOM     11  C   UNL     1     -11.760  15.653  70.798  0.00  0.00    +0.003 A 
ATOM     12  C   UNL     1     -10.733  15.517  69.871  0.00  0.00    -0.000 A 
ATOM     13  C   UNL     1     -10.877  14.430  69.016  0.00  0.00    -0.001 A 
ATOM     14  C   UNL     1     -12.870   9.937  71.682  0.00  0.00    +0.038 A 
ATOM     15  C   UNL     1     -12.014   8.866  71.935  0.00  0.00    +0.015 A 
ATOM     16  C   UNL     1     -10.730   8.833  71.395  0.00  0.00    +0.058 A 
ATOM     17 CL   UNL     1      -9.322   8.498  72.412  0.00  0.00    -0.082 Cl
ATOM     18  C   UNL     1     -10.606   9.518  70.189  0.00  0.00    +0.010 A 
ATOM     19  C   UNL     1     -11.284  13.192  69.506  0.00  0.00    +0.014 A 
ATOM     20  C   UNL     1      -9.746  11.728  68.655  0.00  0.00    +0.077 C 
ENDROOT
TORSDOF 0
ENDMDL
MODEL 5
REMARK VINA RESULT:      -6.2      2.344      3.925
REMARK  Name = 
REMARK  0 active torsions:
REMARK  status: ('A' for Active; 'I' for Inactive)
REMARK                            x       y       z     vdW  Elec       q    Type
REMARK                         _______ _______ _______ _____ _____    ______ ____
ROOT
ATOM      1  C   UNL     1     -10.109  12.395  63.714  0.00  0.00    +0.090 C 
ATOM      2  N   UNL     1     -10.956  12.614  64.693  0.00  0.00    -0.271 NA
ATOM      3  C   UNL     1     -11.525  13.881  64.677  0.00  0.00    +0.077 C 
ATOM      4  C   UNL     1     -11.971  14.157  66.229  0.00  0.00    +0.047 C 
ATOM      5  C   UNL     1     -12.066  12.469  66.574  0.00  0.00    +0.047 C 
ATOM      6  C   UNL     1     -11.595  12.513  68.104  0.00  0.00    +0.015 A 
ATOM      7  C   UNL     1     -12.032  13.455  69.028  0.00  0.00    +0.141 A 
ATOM      8  O   UNL     1     -11.308  14.662  68.977  0.00  0.00    -0.454 OA
ATOM      9  C   UNL     1     -10.513  15.170  67.929  0.00  0.00    +0.141 A 
ATOM     10  C   UNL     1      -9.677  16.184  68.238  0.00  0.00    +0.037 A 
ATOM     11  C   UNL     1      -8.902  16.697  67.204  0.00  0.00    +0.003 A 
ATOM     12  C   UNL     1      -8.683  15.887  66.097  0.00  0.00    -0.000 A 
ATOM     13  C   UNL     1      -9.758  15.067  65.768  0.00  0.00    -0.001 A 
ATOM     14  C   UNL     1     -12.259  12.992  70.318  0.00  0.00    +0.038 A 
ATOM     15  C   UNL     1     -12.091  11.643  70.626  0.00  0.00    +0.015 A 
ATOM     16  C   UNL     1     -11.453  10.780  69.737  0.00  0.00    +0.058 A 
ATOM     17 CL   UNL     1     -10.149   9.716  70.279  0.00  0.00    -0.082 Cl
ATOM     18  C   UNL     1     -11.578  11.151  68.400  0.00  0.00    +0.010 A 
ATOM     19  C   UNL     1     -10.461  14.390  66.760  0.00  0.00    +0.014 A 
ATOM     20  C   UNL     1     -10.538  12.231  66.006  0.00  0.00    +0.077 C 
ENDROOT
TORSDOF 0
ENDMDL
MODEL 6
REMARK VINA RESULT:      -6.1      2.966      4.303
REMARK  Name = 
REMARK  0 active torsions:
REMARK  status: ('A' for Active; 'I' for Inactive)
REMARK                            x       y       z     vdW  Elec       q    Type
REMARK                         _______ _______ _______ _____ _____    ______ ____
ROOT
ATOM      1  C   UNL     1      -8.210  10.029  66.584  0.00  0.00    +0.090 C 
ATOM      2  N   UNL     1      -9.103  10.738  67.233  0.00  0.00    -0.271 NA
ATOM      3  C   UNL     1     -10.415  10.342  67.004  0.00  0.00    +0.077 C 
ATOM      4  C   UNL     1     -11.314  11.673  67.327  0.00  0.00    +0.047 C 
ATOM      5  C   UNL     1     -10.098  12.327  68.362  0.00  0.00    +0.047 C 
ATOM      6  C   UNL     1     -10.331  13.881  68.051  0.00  0.00    +0.015 A 
ATOM      7  C   UNL     1     -11.583  14.477  67.957  0.00  0.00    +0.141 A 
ATOM      8  O   UNL     1     -12.171  14.338  66.684  0.00  0.00    -0.454 OA
ATOM      9  C   UNL     1     -11.871  13.404  65.671  0.00  0.00    +0.141 A 
ATOM     10  C   UNL     1     -12.349  13.670  64.438  0.00  0.00    +0.037 A 
ATOM     11  C   UNL     1     -12.068  12.744  63.440  0.00  0.00    +0.003 A 
ATOM     12  C   UNL     1     -10.982  11.898  63.631  0.00  0.00    -0.000 A 
ATOM     13  C   UNL     1     -10.778  11.521  64.954  0.00  0.00    -0.001 A 
ATOM     14  C   UNL     1     -11.697  15.756  68.488  0.00  0.00    +0.038 A 
ATOM     15  C   UNL     1     -10.609  16.361  69.116  0.00  0.00    +0.015 A 
ATOM     16  C   UNL     1      -9.328  15.824  69.003  0.00  0.00    +0.058 A 
ATOM     17 CL   UNL     1      -7.953  16.838  68.545  0.00  0.00    -0.082 Cl
ATOM     18  C   UNL     1      -9.308  14.445  68.810  0.00  0.00    +0.010 A 
ATOM     19  C   UNL     1     -10.878  12.456  65.981  0.00  0.00    +0.014 A 
ATOM     20  C   UNL     1      -8.957  12.160  67.186  0.00  0.00    +0.077 C 
ENDROOT
TORSDOF 0
ENDMDL
MODEL 7
REMARK VINA RESULT:      -6.1      2.883      5.002
REMARK  Name = 
REMARK  0 active torsions:
REMARK  status: ('A' for Active; 'I' for Inactive)
REMARK                            x       y       z     vdW  Elec       q    Type
REMARK                         _______ _______ _______ _____ _____    ______ ____
ROOT
ATOM      1  C   UNL     1     -12.852  15.787  73.202  0.00  0.00    +0.090 C 
ATOM      2  N   UNL     1     -12.624  15.747  71.909  0.00  0.00    -0.271 NA
ATOM      3  C   UNL     1     -13.646  15.164  71.172  0.00  0.00    +0.077 C 
ATOM      4  C   UNL     1     -12.921  14.635  69.801  0.00  0.00    +0.047 C 
ATOM      5  C   UNL     1     -11.642  15.783  69.954  0.00  0.00    +0.047 C 
ATOM      6  C   UNL     1     -10.457  14.902  69.332  0.00  0.00    +0.015 A 
ATOM      7  C   UNL     1     -10.583  14.123  68.188  0.00  0.00    +0.141 A 
ATOM      8  O   UNL     1     -11.131  12.850  68.439  0.00  0.00    -0.454 OA
ATOM      9  C   UNL     1     -11.888  12.418  69.548  0.00  0.00    +0.141 A 
ATOM     10  C   UNL     1     -12.027  11.085  69.707  0.00  0.00    +0.037 A 
ATOM     11  C   UNL     1     -12.785  10.657  70.790  0.00  0.00    +0.003 A 
ATOM     12  C   UNL     1     -12.946  11.535  71.854  0.00  0.00    -0.000 A 
ATOM     13  C   UNL     1     -13.030  12.873  71.482  0.00  0.00    -0.001 A 
ATOM     14  C   UNL     1      -9.487  14.102  67.334  0.00  0.00    +0.038 A 
ATOM     15  C   UNL     1      -8.357  14.868  67.615  0.00  0.00    +0.015 A 
ATOM     16  C   UNL     1      -8.186  15.460  68.865  0.00  0.00    +0.058 A 
ATOM     17 CL   UNL     1      -6.673  15.275  69.761  0.00  0.00    -0.082 Cl
ATOM     18  C   UNL     1      -9.380  15.767  69.512  0.00  0.00    +0.010 A 
ATOM     19  C   UNL     1     -12.171  13.396  70.520  0.00  0.00    +0.014 A 
ATOM     20  C   UNL     1     -11.334  15.288  71.495  0.00  0.00    +0.077 C 
ENDROOT
TORSDOF 0
ENDMDL
MODEL 8
REMARK VINA RESULT:      -6.0      3.670      6.330
REMARK  Name = 
REMARK  0 active torsions:
REMARK  status: ('A' for Active; 'I' for Inactive)
REMARK                            x       y       z     vdW  Elec       q    Type
REMARK                         _______ _______ _______ _____ _____    ______ ____
ROOT
ATOM      1  C   UNL     1     -10.407   7.392  68.470  0.00  0.00    +0.090 C 
ATOM      2  N   UNL     1      -9.887   8.545  68.117  0.00  0.00    -0.271 NA
ATOM      3  C   UNL     1      -9.306   9.247  69.165  0.00  0.00    +0.077 C 
ATOM      4  C   UNL     1      -9.337  10.813  68.684  0.00  0.00    +0.047 C 
ATOM      5  C   UNL     1      -9.394  10.371  67.017  0.00  0.00    +0.047 C 
ATOM      6  C   UNL     1     -10.300  11.579  66.481  0.00  0.00    +0.015 A 
ATOM      7  C   UNL     1     -10.133  12.905  66.861  0.00  0.00    +0.141 A 
ATOM      8  O   UNL     1     -10.778  13.221  68.074  0.00  0.00    -0.454 OA
ATOM      9  C   UNL     1     -11.210  12.351  69.096  0.00  0.00    +0.141 A 
ATOM     10  C   UNL     1     -12.073  12.859  70.001  0.00  0.00    +0.037 A 
ATOM     11  C   UNL     1     -12.490  12.008  71.018  0.00  0.00    +0.003 A 
ATOM     12  C   UNL     1     -12.390  10.640  70.799  0.00  0.00    -0.000 A 
ATOM     13  C   UNL     1     -11.287  10.264  70.038  0.00  0.00    -0.001 A 
ATOM     14  C   UNL     1     -10.315  13.858  65.867  0.00  0.00    +0.038 A 
ATOM     15  C   UNL     1     -10.602  13.469  64.559  0.00  0.00    +0.015 A 
ATOM     16  C   UNL     1     -10.967  12.157  64.266  0.00  0.00    +0.058 A 
ATOM     17 CL   UNL     1     -12.401  11.807  63.292  0.00  0.00    -0.082 Cl
ATOM     18  C   UNL     1     -10.439  11.214  65.144  0.00  0.00    +0.010 A 
ATOM     19  C   UNL     1     -10.930  10.986  68.903  0.00  0.00    +0.014 A 
ATOM     20  C   UNL     1     -10.688   9.388  67.285  0.00  0.00    +0.077 C 
ENDROOT
TORSDOF 0
ENDMDL
MODEL 9
REMARK VINA RESULT:      -6.0      2.651      4.466
REMARK  Name = 
REMARK  0 active torsions:
REMARK  status: ('A' for Active; 'I' for Inactive)
REMARK                            x       y       z     vdW  Elec       q    Type
REMARK                         _______ _______ _______ _____ _____    ______ ____
ROOT
ATOM      1  C   UNL     1      -9.256  17.178  68.750  0.00  0.00    +0.090 C 
ATOM      2  N   UNL     1      -9.947  16.126  68.378  0.00  0.00    -0.271 NA
ATOM      3  C   UNL     1     -11.322  16.321  68.386  0.00  0.00    +0.077 C 
ATOM      4  C   UNL     1     -11.955  14.818  68.549  0.00  0.00    +0.047 C 
ATOM      5  C   UNL     1     -10.543  14.078  67.887  0.00  0.00    +0.047 C 
ATOM      6  C   UNL     1     -10.557  12.728  68.749  0.00  0.00    +0.015 A 
ATOM      7  C   UNL     1     -11.699  11.980  69.008  0.00  0.00    +0.141 A 
ATOM      8  O   UNL     1     -12.438  12.456  70.109  0.00  0.00    -0.454 OA
ATOM      9  C   UNL     1     -12.405  13.732  70.708  0.00  0.00    +0.141 A 
ATOM     10  C   UNL     1     -12.966  13.844  71.931  0.00  0.00    +0.037 A 
ATOM     11  C   UNL     1     -12.948  15.103  72.518  0.00  0.00    +0.003 A 
ATOM     12  C   UNL     1     -11.998  16.012  72.070  0.00  0.00    -0.000 A 
ATOM     13  C   UNL     1     -11.714  15.917  70.711  0.00  0.00    -0.001 A 
ATOM     14  C   UNL     1     -11.547  10.599  68.991  0.00  0.00    +0.038 A 
ATOM     15  C   UNL     1     -10.314  10.027  68.683  0.00  0.00    +0.015 A 
ATOM     16  C   UNL     1      -9.156  10.801  68.640  0.00  0.00    +0.058 A 
ATOM     17 CL   UNL     1      -7.695  10.302  69.502  0.00  0.00    -0.082 Cl
ATOM     18  C   UNL     1      -9.379  12.134  68.301  0.00  0.00    +0.010 A 
ATOM     19  C   UNL     1     -11.549  14.674  70.108  0.00  0.00    +0.014 A 
ATOM     20  C   UNL     1      -9.580  14.873  68.961  0.00  0.00    +0.077 C 
ENDROOT
TORSDOF 0
ENDMDL
