MODEL 1
REMARK VINA RESULT:      -9.1      0.000      0.000
REMARK  Name = 
REMARK  3 active torsions:
REMARK  status: ('A' for Active; 'I' for Inactive)
REMARK    1  A    between atoms: C_4  and  N_5
REMARK    2  A    between atoms: C_7  and  C_8
REMARK    3  A    between atoms: C_17  and  N_18
REMARK                            x       y       z     vdW  Elec       q    Type
REMARK                         _______ _______ _______ _____ _____    ______ ____
ROOT
ATOM      1  N   UNL     1     -11.061  15.865  69.028  0.00  0.00    -0.287 N 
ATOM      2  C   UNL     1     -10.985  14.522  68.866  0.00  0.00    +0.080 A 
ATOM      3  C   UNL     1     -11.808  13.707  69.634  0.00  0.00    +0.058 A 
ATOM      4  C   UNL     1     -11.769  12.340  69.418  0.00  0.00    +0.036 A 
ATOM      5  C   UNL     1     -11.525  11.911  68.120  0.00  0.00    +0.154 A 
ATOM      6  C   UNL     1     -11.142  12.819  67.140  0.00  0.00    +0.088 A 
ATOM      7  F   UNL     1     -11.852  10.660  67.720  0.00  0.00    -0.203 F 
ATOM      8  C   UNL     1     -12.622  14.285  70.599  0.00  0.00    +0.205 A 
ATOM      9  O   UNL     1     -13.341  13.551  71.316  0.00  0.00    -0.286 OA
ATOM     10  C   UNL     1     -12.205  15.510  71.109  0.00  0.00    +0.136 A 
ATOM     11  C   UNL     1     -10.680  14.036  67.600  0.00  0.00    +0.089 A 
ATOM     12 CL   UNL     1      -9.714  15.008  66.531  0.00  0.00    -0.079 Cl
ATOM     13  C   UNL     1     -11.414  16.269  70.272  0.00  0.00    +0.091 A 
ENDROOT
BRANCH   1  21
ATOM     14  N   UNL     1     -10.704  19.902  66.602  0.00  0.00    -0.105 NA
ATOM     15  C   UNL     1     -10.112  18.964  67.480  0.00  0.00    +0.199 A 
ATOM     16  C   UNL     1      -8.735  18.808  67.415  0.00  0.00    +0.177 A 
ATOM     17  F   UNL     1      -7.978  19.739  66.789  0.00  0.00    -0.201 F 
ATOM     18  C   UNL     1      -8.158  17.950  68.333  0.00  0.00    +0.065 A 
ATOM     19  C   UNL     1      -8.970  16.928  68.805  0.00  0.00    +0.177 A 
ATOM     20  F   UNL     1      -8.403  15.995  69.619  0.00  0.00    -0.201 F 
ATOM     21  C   UNL     1     -10.228  16.729  68.238  0.00  0.00    +0.177 A 
ATOM     22  N   UNL     1     -10.835  17.898  67.898  0.00  0.00    -0.205 NA
ENDBRANCH   1  21
BRANCH   6  23
ATOM     23  N   UNL     1     -11.242  12.513  65.743  0.00  0.00    -0.300 N 
ATOM     24  C   UNL     1     -12.434  12.291  64.929  0.00  0.00    +0.126 C 
ATOM     25  C   UNL     1     -12.138  13.637  64.279  0.00  0.00    +0.191 C 
ATOM     26  O   UNL     1     -12.444  13.705  62.933  0.00  0.00    -0.219 OA
ATOM     27  C   UNL     1     -10.703  13.243  64.597  0.00  0.00    +0.126 C 
ENDBRANCH   6  23
BRANCH  10  28
ATOM     28  C   UNL     1     -12.416  15.874  72.516  0.00  0.00    +0.392 C 
ATOM     29  O   UNL     1     -13.730  16.165  72.897  0.00  0.00    -0.240 OA
ATOM     30  O   UNL     1     -11.769  15.169  73.349  0.00  0.00    -0.240 OA
ENDBRANCH  10  28
TORSDOF 3
ENDMDL
MODEL 2
REMARK VINA RESULT:      -8.7      3.073      6.056
REMARK  Name = 
REMARK  3 active torsions:
REMARK  status: ('A' for Active; 'I' for Inactive)
REMARK    1  A    between atoms: C_4  and  N_5
REMARK    2  A    between atoms: C_7  and  C_8
REMARK    3  A    between atoms: C_17  and  N_18
REMARK                            x       y       z     vdW  Elec       q    Type
REMARK                         _______ _______ _______ _____ _____    ______ ____
ROOT
ATOM      1  N   UNL     1     -10.846  12.845  67.954  0.00  0.00    -0.287 N 
ATOM      2  C   UNL     1     -11.722  12.638  68.966  0.00  0.00    +0.080 A 
ATOM      3  C   UNL     1     -11.553  11.524  69.780  0.00  0.00    +0.058 A 
ATOM      4  C   UNL     1     -12.415  11.353  70.850  0.00  0.00    +0.036 A 
ATOM      5  C   UNL     1     -12.884  12.501  71.476  0.00  0.00    +0.154 A 
ATOM      6  C   UNL     1     -12.648  13.752  70.916  0.00  0.00    +0.088 A 
ATOM      7  F   UNL     1     -13.386  12.462  72.731  0.00  0.00    -0.203 F 
ATOM      8  C   UNL     1     -10.545  10.616  69.484  0.00  0.00    +0.205 A 
ATOM      9  O   UNL     1     -10.411   9.594  70.197  0.00  0.00    -0.286 OA
ATOM     10  C   UNL     1     -10.129  10.563  68.159  0.00  0.00    +0.136 A 
ATOM     11  C   UNL     1     -12.273  13.752  69.588  0.00  0.00    +0.089 A 
ATOM     12 CL   UNL     1     -12.464  15.220  68.678  0.00  0.00    -0.079 Cl
ATOM     13  C   UNL     1     -10.306  11.719  67.428  0.00  0.00    +0.091 A 
ENDROOT
BRANCH   1  21
ATOM     14  N   UNL     1      -8.769  16.567  65.918  0.00  0.00    -0.105 NA
ATOM     15  C   UNL     1      -9.696  15.503  65.829  0.00  0.00    +0.199 A 
ATOM     16  C   UNL     1     -10.814  15.694  65.030  0.00  0.00    +0.177 A 
ATOM     17  F   UNL     1     -10.836  16.706  64.130  0.00  0.00    -0.201 F 
ATOM     18  C   UNL     1     -11.672  14.620  64.884  0.00  0.00    +0.065 A 
ATOM     19  C   UNL     1     -11.693  13.711  65.933  0.00  0.00    +0.177 A 
ATOM     20  F   UNL     1     -12.609  12.705  65.879  0.00  0.00    -0.201 F 
ATOM     21  C   UNL     1     -10.993  13.995  67.105  0.00  0.00    +0.177 A 
ATOM     22  N   UNL     1      -9.819  14.641  66.866  0.00  0.00    -0.205 NA
ENDBRANCH   1  21
BRANCH   6  23
ATOM     23  N   UNL     1     -12.769  14.958  71.681  0.00  0.00    -0.300 N 
ATOM     24  C   UNL     1     -13.718  15.290  72.741  0.00  0.00    +0.126 C 
ATOM     25  C   UNL     1     -12.546  15.180  73.708  0.00  0.00    +0.191 C 
ATOM     26  O   UNL     1     -12.583  16.077  74.759  0.00  0.00    -0.219 OA
ATOM     27  C   UNL     1     -11.763  15.643  72.489  0.00  0.00    +0.126 C 
ENDBRANCH   6  23
BRANCH  10  28
ATOM     28  C   UNL     1      -9.725   9.301  67.525  0.00  0.00    +0.392 C 
ATOM     29  O   UNL     1     -10.737   8.555  66.913  0.00  0.00    -0.240 OA
ATOM     30  O   UNL     1      -8.642   9.363  66.865  0.00  0.00    -0.240 OA
ENDBRANCH  10  28
TORSDOF 3
ENDMDL
MODEL 3
REMARK VINA RESULT:      -8.4      3.217      6.089
REMARK  Name = 
REMARK  3 active torsions:
REMARK  status: ('A' for Active; 'I' for Inactive)
REMARK    1  A    between atoms: C_4  and  N_5
REMARK    2  A    between atoms: C_7  and  C_8
REMARK    3  A    between atoms: C_17  and  N_18
REMARK                            x       y       z     vdW  Elec       q    Type
REMARK                         _______ _______ _______ _____ _____    ______ ____
ROOT
ATOM      1  N   UNL     1     -10.507  12.346  67.450  0.00  0.00    -0.287 N 
ATOM      2  C   UNL     1     -11.310  11.852  68.422  0.00  0.00    +0.080 A 
ATOM      3  C   UNL     1     -10.955  10.660  69.043  0.00  0.00    +0.058 A 
ATOM      4  C   UNL     1     -11.747  10.194  70.078  0.00  0.00    +0.036 A 
ATOM      5  C   UNL     1     -12.357  11.145  70.886  0.00  0.00    +0.154 A 
ATOM      6  C   UNL     1     -12.324  12.490  70.536  0.00  0.00    +0.088 A 
ATOM      7  F   UNL     1     -12.807  10.832  72.123  0.00  0.00    -0.203 F 
ATOM      8  C   UNL     1      -9.835   9.972  68.594  0.00  0.00    +0.205 A 
ATOM      9  O   UNL     1      -9.531   8.880  69.129  0.00  0.00    -0.286 OA
ATOM     10  C   UNL     1      -9.460  10.193  67.274  0.00  0.00    +0.136 A 
ATOM     11  C   UNL     1     -11.997  12.758  69.221  0.00  0.00    +0.089 A 
ATOM     12 CL   UNL     1     -12.429  14.308  68.564  0.00  0.00    -0.079 Cl
ATOM     13  C   UNL     1      -9.828  11.412  66.742  0.00  0.00    +0.091 A 
ENDROOT
BRANCH   1  21
ATOM     14  N   UNL     1      -9.007  16.518  65.821  0.00  0.00    -0.105 NA
ATOM     15  C   UNL     1      -9.836  15.384  65.655  0.00  0.00    +0.199 A 
ATOM     16  C   UNL     1     -11.044  15.566  64.997  0.00  0.00    +0.177 A 
ATOM     17  F   UNL     1     -11.253  16.687  64.266  0.00  0.00    -0.201 F 
ATOM     18  C   UNL     1     -11.809  14.438  64.768  0.00  0.00    +0.065 A 
ATOM     19  C   UNL     1     -11.637  13.393  65.666  0.00  0.00    +0.177 A 
ATOM     20  F   UNL     1     -12.456  12.313  65.543  0.00  0.00    -0.201 F 
ATOM     21  C   UNL     1     -10.847  13.582  66.800  0.00  0.00    +0.177 A 
ATOM     22  N   UNL     1      -9.770  14.377  66.557  0.00  0.00    -0.205 NA
ENDBRANCH   1  21
BRANCH   6  23
ATOM     23  N   UNL     1     -12.594  13.527  71.487  0.00  0.00    -0.300 N 
ATOM     24  C   UNL     1     -12.638  14.974  71.291  0.00  0.00    +0.126 C 
ATOM     25  C   UNL     1     -14.147  14.867  71.469  0.00  0.00    +0.191 C 
ATOM     26  O   UNL     1     -14.726  15.937  72.124  0.00  0.00    -0.219 OA
ATOM     27  C   UNL     1     -13.753  13.699  72.361  0.00  0.00    +0.126 C 
ENDBRANCH   6  23
BRANCH  10  28
ATOM     28  C   UNL     1      -8.898   9.123  66.439  0.00  0.00    +0.392 C 
ATOM     29  O   UNL     1      -9.468   8.949  65.174  0.00  0.00    -0.240 OA
ATOM     30  O   UNL     1      -7.631   9.043  66.462  0.00  0.00    -0.240 OA
ENDBRANCH  10  28
TORSDOF 3
ENDMDL
MODEL 4
REMARK VINA RESULT:      -8.1      3.405      4.478
REMARK  Name = 
REMARK  3 active torsions:
REMARK  status: ('A' for Active; 'I' for Inactive)
REMARK    1  A    between atoms: C_4  and  N_5
REMARK    2  A    between atoms: C_7  and  C_8
REMARK    3  A    between atoms: C_17  and  N_18
REMARK                            x       y       z     vdW  Elec       q    Type
REMARK                         _______ _______ _______ _____ _____    ______ ____
ROOT
ATOM      1  N   UNL     1     -11.792  12.543  68.823  0.00  0.00    -0.287 N 
ATOM      2  C   UNL     1     -11.208  11.384  69.215  0.00  0.00    +0.080 A 
ATOM      3  C   UNL     1     -11.694  10.740  70.346  0.00  0.00    +0.058 A 
ATOM      4  C   UNL     1     -11.134   9.526  70.705  0.00  0.00    +0.036 A 
ATOM      5  C   UNL     1     -10.693   8.704  69.675  0.00  0.00    +0.154 A 
ATOM      6  C   UNL     1     -10.640   9.179  68.370  0.00  0.00    +0.088 A 
ATOM      7  F   UNL     1     -10.507   7.377  69.866  0.00  0.00    -0.203 F 
ATOM      8  C   UNL     1     -12.705  11.340  71.086  0.00  0.00    +0.205 A 
ATOM      9  O   UNL     1     -13.122  10.777  72.125  0.00  0.00    -0.286 OA
ATOM     10  C   UNL     1     -12.801  12.724  70.994  0.00  0.00    +0.136 A 
ATOM     11  C   UNL     1     -10.691  10.551  68.231  0.00  0.00    +0.089 A 
ATOM     12 CL   UNL     1     -10.119  11.250  66.746  0.00  0.00    -0.079 Cl
ATOM     13  C   UNL     1     -12.321  13.282  69.827  0.00  0.00    +0.091 A 
ENDROOT
BRANCH   1  21
ATOM     14  N   UNL     1     -12.813  14.282  64.552  0.00  0.00    -0.105 NA
ATOM     15  C   UNL     1     -12.116  14.417  65.776  0.00  0.00    +0.199 A 
ATOM     16  C   UNL     1     -10.896  15.075  65.748  0.00  0.00    +0.177 A 
ATOM     17  F   UNL     1     -10.562  15.835  64.678  0.00  0.00    -0.201 F 
ATOM     18  C   UNL     1     -10.262  15.274  66.961  0.00  0.00    +0.065 A 
ATOM     19  C   UNL     1     -10.552  14.350  67.956  0.00  0.00    +0.177 A 
ATOM     20  F   UNL     1      -9.859  14.442  69.125  0.00  0.00    -0.201 F 
ATOM     21  C   UNL     1     -11.314  13.223  67.651  0.00  0.00    +0.177 A 
ATOM     22  N   UNL     1     -12.295  13.489  66.746  0.00  0.00    -0.205 NA
ENDBRANCH   1  21
BRANCH   6  23
ATOM     23  N   UNL     1     -10.561   8.294  67.245  0.00  0.00    -0.300 N 
ATOM     24  C   UNL     1      -9.406   7.950  66.420  0.00  0.00    +0.126 C 
ATOM     25  C   UNL     1      -9.449   6.578  67.081  0.00  0.00    +0.191 C 
ATOM     26  O   UNL     1      -9.104   5.529  66.251  0.00  0.00    -0.219 OA
ATOM     27  C   UNL     1     -10.937   6.885  67.150  0.00  0.00    +0.126 C 
ENDBRANCH   6  23
BRANCH  10  28
ATOM     28  C   UNL     1     -13.191  13.551  72.143  0.00  0.00    +0.392 C 
ATOM     29  O   UNL     1     -12.444  14.712  72.363  0.00  0.00    -0.240 OA
ATOM     30  O   UNL     1     -14.444  13.693  72.292  0.00  0.00    -0.240 OA
ENDBRANCH  10  28
TORSDOF 3
ENDMDL
MODEL 5
REMARK VINA RESULT:      -7.9      2.634      5.902
REMARK  Name = 
REMARK  3 active torsions:
REMARK  status: ('A' for Active; 'I' for Inactive)
REMARK    1  A    between atoms: C_4  and  N_5
REMARK    2  A    between atoms: C_7  and  C_8
REMARK    3  A    between atoms: C_17  and  N_18
REMARK                            x       y       z     vdW  Elec       q    Type
REMARK                         _______ _______ _______ _____ _____    ______ ____
ROOT
ATOM      1  N   UNL     1     -10.894  14.132  67.615  0.00  0.00    -0.287 N 
ATOM      2  C   UNL     1     -10.828  15.480  67.730  0.00  0.00    +0.080 A 
ATOM      3  C   UNL     1     -10.838  16.044  69.000  0.00  0.00    +0.058 A 
ATOM      4  C   UNL     1     -10.707  17.418  69.112  0.00  0.00    +0.036 A 
ATOM      5  C   UNL     1      -9.918  18.058  68.165  0.00  0.00    +0.154 A 
ATOM      6  C   UNL     1      -9.455  17.366  67.052  0.00  0.00    +0.088 A 
ATOM      7  F   UNL     1      -9.405  19.289  68.394  0.00  0.00    -0.203 F 
ATOM      8  C   UNL     1     -10.995  15.219  70.106  0.00  0.00    +0.205 A 
ATOM      9  O   UNL     1     -11.037  15.728  71.251  0.00  0.00    -0.286 OA
ATOM     10  C   UNL     1     -11.651  14.012  69.890  0.00  0.00    +0.136 A 
ATOM     11  C   UNL     1     -10.105  16.180  66.773  0.00  0.00    +0.089 A 
ATOM     12 CL   UNL     1      -9.971  15.526  65.168  0.00  0.00    -0.079 Cl
ATOM     13  C   UNL     1     -11.570  13.507  68.609  0.00  0.00    +0.091 A 
ENDROOT
BRANCH   1  21
ATOM     14  N   UNL     1      -9.257  10.639  64.889  0.00  0.00    -0.105 NA
ATOM     15  C   UNL     1     -10.333  11.481  65.257  0.00  0.00    +0.199 A 
ATOM     16  C   UNL     1     -11.249  11.816  64.271  0.00  0.00    +0.177 A 
ATOM     17  F   UNL     1     -11.293  11.104  63.120  0.00  0.00    -0.201 F 
ATOM     18  C   UNL     1     -12.340  12.571  64.659  0.00  0.00    +0.065 A 
ATOM     19  C   UNL     1     -12.151  13.390  65.764  0.00  0.00    +0.177 A 
ATOM     20  F   UNL     1     -13.162  14.235  66.105  0.00  0.00    -0.201 F 
ATOM     21  C   UNL     1     -10.876  13.523  66.313  0.00  0.00    +0.177 A 
ATOM     22  N   UNL     1     -10.168  12.362  66.271  0.00  0.00    -0.205 NA
ENDBRANCH   1  21
BRANCH   6  23
ATOM     23  N   UNL     1      -8.360  17.847  66.263  0.00  0.00    -0.300 N 
ATOM     24  C   UNL     1      -7.794  19.192  66.188  0.00  0.00    +0.126 C 
ATOM     25  C   UNL     1      -6.587  18.634  66.933  0.00  0.00    +0.191 C 
ATOM     26  O   UNL     1      -5.376  19.178  66.552  0.00  0.00    -0.219 OA
ATOM     27  C   UNL     1      -6.983  17.360  66.200  0.00  0.00    +0.126 C 
ENDBRANCH   6  23
BRANCH  10  28
ATOM     28  C   UNL     1     -12.543  13.425  70.898  0.00  0.00    +0.392 C 
ATOM     29  O   UNL     1     -13.767  14.070  71.105  0.00  0.00    -0.240 OA
ATOM     30  O   UNL     1     -12.613  12.158  70.870  0.00  0.00    -0.240 OA
ENDBRANCH  10  28
TORSDOF 3
ENDMDL
MODEL 6
REMARK VINA RESULT:      -7.6      3.783      5.186
REMARK  Name = 
REMARK  3 active torsions:
REMARK  status: ('A' for Active; 'I' for Inactive)
REMARK    1  A    between atoms: C_4  and  N_5
REMARK    2  A    between atoms: C_7  and  C_8
REMARK    3  A    between atoms: C_17  and  N_18
REMARK                            x       y       z     vdW  Elec       q    Type
REMARK                         _______ _______ _______ _____ _____    ______ ____
ROOT
ATOM      1  N   UNL     1      -9.037  14.998  66.683  0.00  0.00    -0.287 N 
ATOM      2  C   UNL     1     -10.144  14.334  66.272  0.00  0.00    +0.080 A 
ATOM      3  C   UNL     1     -11.018  14.968  65.396  0.00  0.00    +0.058 A 
ATOM      4  C   UNL     1     -12.113  14.261  64.932  0.00  0.00    +0.036 A 
ATOM      5  C   UNL     1     -11.955  12.893  64.753  0.00  0.00    +0.154 A 
ATOM      6  C   UNL     1     -10.810  12.252  65.213  0.00  0.00    +0.088 A 
ATOM      7  F   UNL     1     -12.788  12.187  63.954  0.00  0.00    -0.203 F 
ATOM      8  C   UNL     1     -10.774  16.286  65.034  0.00  0.00    +0.205 A 
ATOM      9  O   UNL     1     -11.578  16.871  64.270  0.00  0.00    -0.286 OA
ATOM     10  C   UNL     1     -10.033  17.048  65.929  0.00  0.00    +0.136 A 
ATOM     11  C   UNL     1     -10.062  12.954  66.137  0.00  0.00    +0.089 A 
ATOM     12 CL   UNL     1      -8.949  12.070  67.137  0.00  0.00    -0.079 Cl
ATOM     13  C   UNL     1      -9.169  16.345  66.744  0.00  0.00    +0.091 A 
ENDROOT
BRANCH   1  21
ATOM     14  N   UNL     1      -4.574  13.697  67.520  0.00  0.00    -0.105 NA
ATOM     15  C   UNL     1      -5.795  14.210  68.016  0.00  0.00    +0.199 A 
ATOM     16  C   UNL     1      -6.122  13.924  69.333  0.00  0.00    +0.177 A 
ATOM     17  F   UNL     1      -5.169  13.472  70.183  0.00  0.00    -0.201 F 
ATOM     18  C   UNL     1      -7.277  14.499  69.832  0.00  0.00    +0.065 A 
ATOM     19  C   UNL     1      -8.264  14.788  68.900  0.00  0.00    +0.177 A 
ATOM     20  F   UNL     1      -9.459  15.244  69.366  0.00  0.00    -0.201 F 
ATOM     21  C   UNL     1      -8.113  14.361  67.581  0.00  0.00    +0.177 A 
ATOM     22  N   UNL     1      -6.821  14.424  67.158  0.00  0.00    -0.205 NA
ENDBRANCH   1  21
BRANCH   6  23
ATOM     23  N   UNL     1     -10.425  10.956  64.738  0.00  0.00    -0.300 N 
ATOM     24  C   UNL     1      -9.848  10.576  63.451  0.00  0.00    +0.126 C 
ATOM     25  C   UNL     1      -8.547  10.326  64.204  0.00  0.00    +0.191 C 
ATOM     26  O   UNL     1      -7.803   9.264  63.728  0.00  0.00    -0.219 OA
ATOM     27  C   UNL     1      -9.507   9.989  65.336  0.00  0.00    +0.126 C 
ENDBRANCH   6  23
BRANCH  10  28
ATOM     28  C   UNL     1     -10.303  18.476  66.139  0.00  0.00    +0.392 C 
ATOM     29  O   UNL     1     -10.923  18.827  67.343  0.00  0.00    -0.240 OA
ATOM     30  O   UNL     1      -9.363  19.251  65.786  0.00  0.00    -0.240 OA
ENDBRANCH  10  28
TORSDOF 3
ENDMDL
MODEL 7
REMARK VINA RESULT:      -7.6      4.358      6.959
REMARK  Name = 
REMARK  3 active torsions:
REMARK  status: ('A' for Active; 'I' for Inactive)
REMARK    1  A    between atoms: C_4  and  N_5
REMARK    2  A    between atoms: C_7  and  C_8
REMARK    3  A    between atoms: C_17  and  N_18
REMARK                            x       y       z     vdW  Elec       q    Type
REMARK                         _______ _______ _______ _____ _____    ______ ____
ROOT
ATOM      1  N   UNL     1     -11.823  10.880  70.532  0.00  0.00    -0.287 N 
ATOM      2  C   UNL     1     -11.890  11.290  69.242  0.00  0.00    +0.080 A 
ATOM      3  C   UNL     1     -11.971  12.651  68.976  0.00  0.00    +0.058 A 
ATOM      4  C   UNL     1     -11.976  13.066  67.655  0.00  0.00    +0.036 A 
ATOM      5  C   UNL     1     -11.241  12.309  66.752  0.00  0.00    +0.154 A 
ATOM      6  C   UNL     1     -10.698  11.088  67.135  0.00  0.00    +0.088 A 
ATOM      7  F   UNL     1     -10.853  12.820  65.560  0.00  0.00    -0.203 F 
ATOM      8  C   UNL     1     -12.062  13.544  70.036  0.00  0.00    +0.205 A 
ATOM      9  O   UNL     1     -12.169  14.770  69.799  0.00  0.00    -0.286 OA
ATOM     10  C   UNL     1     -12.595  13.046  71.220  0.00  0.00    +0.136 A 
ATOM     11  C   UNL     1     -11.225  10.534  68.284  0.00  0.00    +0.089 A 
ATOM     12 CL   UNL     1     -11.008   8.831  68.552  0.00  0.00    -0.079 Cl
ATOM     13  C   UNL     1     -12.448  11.689  71.420  0.00  0.00    +0.091 A 
ENDROOT
BRANCH   1  21
ATOM     14  N   UNL     1      -9.544   7.468  72.872  0.00  0.00    -0.105 NA
ATOM     15  C   UNL     1     -10.769   8.008  72.415  0.00  0.00    +0.199 A 
ATOM     16  C   UNL     1     -11.789   7.117  72.117  0.00  0.00    +0.177 A 
ATOM     17  F   UNL     1     -11.723   5.840  72.562  0.00  0.00    -0.201 F 
ATOM     18  C   UNL     1     -13.008   7.659  71.750  0.00  0.00    +0.065 A 
ATOM     19  C   UNL     1     -12.961   8.914  71.158  0.00  0.00    +0.177 A 
ATOM     20  F   UNL     1     -14.126   9.428  70.676  0.00  0.00    -0.201 F 
ATOM     21  C   UNL     1     -11.729   9.478  70.833  0.00  0.00    +0.177 A 
ATOM     22  N   UNL     1     -10.766   9.188  71.750  0.00  0.00    -0.205 NA
ENDBRANCH   1  21
BRANCH   6  23
ATOM     23  N   UNL     1      -9.645  10.462  66.393  0.00  0.00    -0.300 N 
ATOM     24  C   UNL     1      -9.725   9.414  65.378  0.00  0.00    +0.126 C 
ATOM     25  C   UNL     1      -9.360  10.489  64.361  0.00  0.00    +0.191 C 
ATOM     26  O   UNL     1      -8.558  10.051  63.325  0.00  0.00    -0.219 OA
ATOM     27  C   UNL     1      -8.617  11.073  65.553  0.00  0.00    +0.126 C 
ENDBRANCH   6  23
BRANCH  10  28
ATOM     28  C   UNL     1     -13.438  13.871  72.096  0.00  0.00    +0.392 C 
ATOM     29  O   UNL     1     -14.656  13.312  72.500  0.00  0.00    -0.240 OA
ATOM     30  O   UNL     1     -12.810  14.485  73.012  0.00  0.00    -0.240 OA
ENDBRANCH  10  28
TORSDOF 3
ENDMDL
MODEL 8
REMARK VINA RESULT:      -7.5      3.706      5.567
REMARK  Name = 
REMARK  3 active torsions:
REMARK  status: ('A' for Active; 'I' for Inactive)
REMARK    1  A    between atoms: C_4  and  N_5
REMARK    2  A    between atoms: C_7  and  C_8
REMARK    3  A    between atoms: C_17  and  N_18
REMARK                            x       y       z     vdW  Elec       q    Type
REMARK                         _______ _______ _______ _____ _____    ______ ____
ROOT
ATOM      1  N   UNL     1      -9.536  15.523  66.498  0.00  0.00    -0.287 N 
ATOM      2  C   UNL     1      -9.288  14.463  67.305  0.00  0.00    +0.080 A 
ATOM      3  C   UNL     1      -9.564  13.184  66.835  0.00  0.00    +0.058 A 
ATOM      4  C   UNL     1      -9.250  12.104  67.641  0.00  0.00    +0.036 A 
ATOM      5  C   UNL     1      -8.133  12.227  68.458  0.00  0.00    +0.154 A 
ATOM      6  C   UNL     1      -7.493  13.454  68.594  0.00  0.00    +0.088 A 
ATOM      7  F   UNL     1      -7.513  11.138  68.969  0.00  0.00    -0.203 F 
ATOM      8  C   UNL     1     -10.158  13.035  65.589  0.00  0.00    +0.205 A 
ATOM      9  O   UNL     1     -10.438  11.885  65.176  0.00  0.00    -0.286 OA
ATOM     10  C   UNL     1     -10.913  14.109  65.130  0.00  0.00    +0.136 A 
ATOM     11  C   UNL     1      -8.221  14.555  68.190  0.00  0.00    +0.089 A 
ATOM     12 CL   UNL     1      -7.748  16.118  68.785  0.00  0.00    -0.079 Cl
ATOM     13  C   UNL     1     -10.556  15.347  65.624  0.00  0.00    +0.091 A 
ENDROOT
BRANCH   1  21
ATOM     14  N   UNL     1      -7.565  19.709  65.551  0.00  0.00    -0.105 NA
ATOM     15  C   UNL     1      -8.629  18.978  66.131  0.00  0.00    +0.199 A 
ATOM     16  C   UNL     1      -9.250  19.527  67.244  0.00  0.00    +0.177 A 
ATOM     17  F   UNL     1      -9.069  20.835  67.542  0.00  0.00    -0.201 F 
ATOM     18  C   UNL     1     -10.340  18.845  67.753  0.00  0.00    +0.065 A 
ATOM     19  C   UNL     1     -10.361  17.476  67.527  0.00  0.00    +0.177 A 
ATOM     20  F   UNL     1     -11.355  16.754  68.112  0.00  0.00    -0.201 F 
ATOM     21  C   UNL     1      -9.250  16.854  66.957  0.00  0.00    +0.177 A 
ATOM     22  N   UNL     1      -8.646  17.629  66.016  0.00  0.00    -0.205 NA
ENDBRANCH   1  21
BRANCH   6  23
ATOM     23  N   UNL     1      -6.158  13.559  69.102  0.00  0.00    -0.300 N 
ATOM     24  C   UNL     1      -5.704  13.757  70.476  0.00  0.00    +0.126 C 
ATOM     25  C   UNL     1      -5.227  12.310  70.438  0.00  0.00    +0.191 C 
ATOM     26  O   UNL     1      -4.060  12.071  71.139  0.00  0.00    -0.219 OA
ATOM     27  C   UNL     1      -5.040  12.627  68.961  0.00  0.00    +0.126 C 
ENDBRANCH   6  23
BRANCH  10  28
ATOM     28  C   UNL     1     -12.135  13.914  64.340  0.00  0.00    +0.392 C 
ATOM     29  O   UNL     1     -13.114  13.083  64.895  0.00  0.00    -0.240 OA
ATOM     30  O   UNL     1     -12.586  14.967  63.792  0.00  0.00    -0.240 OA
ENDBRANCH  10  28
TORSDOF 3
ENDMDL
MODEL 9
REMARK VINA RESULT:      -7.4      4.183      6.634
REMARK  Name = 
REMARK  3 active torsions:
REMARK  status: ('A' for Active; 'I' for Inactive)
REMARK    1  A    between atoms: C_4  and  N_5
REMARK    2  A    between atoms: C_7  and  C_8
REMARK    3  A    between atoms: C_17  and  N_18
REMARK                            x       y       z     vdW  Elec       q    Type
REMARK                         _______ _______ _______ _____ _____    ______ ____
ROOT
ATOM      1  N   UNL     1     -11.401  11.320  69.555  0.00  0.00    -0.287 N 
ATOM      2  C   UNL     1     -11.624  11.439  68.224  0.00  0.00    +0.080 A 
ATOM      3  C   UNL     1     -11.688  12.710  67.666  0.00  0.00    +0.058 A 
ATOM      4  C   UNL     1     -11.853  12.821  66.296  0.00  0.00    +0.036 A 
ATOM      5  C   UNL     1     -11.275  11.836  65.506  0.00  0.00    +0.154 A 
ATOM      6  C   UNL     1     -10.732  10.696  66.089  0.00  0.00    +0.088 A 
ATOM      7  F   UNL     1     -11.030  12.043  64.192  0.00  0.00    -0.203 F 
ATOM      8  C   UNL     1     -11.602  13.819  68.498  0.00  0.00    +0.205 A 
ATOM      9  O   UNL     1     -11.692  14.967  68.002  0.00  0.00    -0.286 OA
ATOM     10  C   UNL     1     -11.991  13.633  69.820  0.00  0.00    +0.136 A 
ATOM     11  C   UNL     1     -11.123  10.447  67.390  0.00  0.00    +0.089 A 
ATOM     12 CL   UNL     1     -10.937   8.834  68.010  0.00  0.00    -0.079 Cl
ATOM     13  C   UNL     1     -11.870  12.347  70.304  0.00  0.00    +0.091 A 
ENDROOT
BRANCH   1  21
ATOM     14  N   UNL     1      -8.798   8.230  72.000  0.00  0.00    -0.105 NA
ATOM     15  C   UNL     1     -10.062   8.813  71.750  0.00  0.00    +0.199 A 
ATOM     16  C   UNL     1     -11.183   8.018  71.946  0.00  0.00    +0.177 A 
ATOM     17  F   UNL     1     -11.081   6.870  72.657  0.00  0.00    -0.201 F 
ATOM     18  C   UNL     1     -12.416   8.621  71.778  0.00  0.00    +0.065 A 
ATOM     19  C   UNL     1     -12.451   9.701  70.907  0.00  0.00    +0.177 A 
ATOM     20  F   UNL     1     -13.667  10.246  70.625  0.00  0.00    -0.201 F 
ATOM     21  C   UNL     1     -11.321  10.017  70.154  0.00  0.00    +0.177 A 
ATOM     22  N   UNL     1     -10.164   9.810  70.840  0.00  0.00    -0.205 NA
ENDBRANCH   1  21
BRANCH   6  23
ATOM     23  N   UNL     1      -9.813   9.851  65.387  0.00  0.00    -0.300 N 
ATOM     24  C   UNL     1      -9.374   9.917  63.995  0.00  0.00    +0.126 C 
ATOM     25  C   UNL     1      -8.027  10.387  64.530  0.00  0.00    +0.191 C 
ATOM     26  O   UNL     1      -6.936   9.935  63.814  0.00  0.00    -0.219 OA
ATOM     27  C   UNL     1      -8.427   9.521  65.715  0.00  0.00    +0.126 C 
ENDBRANCH   6  23
BRANCH  10  28
ATOM     28  C   UNL     1     -12.677  14.685  70.580  0.00  0.00    +0.392 C 
ATOM     29  O   UNL     1     -13.769  14.285  71.358  0.00  0.00    -0.240 OA
ATOM     30  O   UNL     1     -11.906  15.521  71.143  0.00  0.00    -0.240 OA
ENDBRANCH  10  28
TORSDOF 3
ENDMDL
