MODEL 1
REMARK VINA RESULT:      -4.9      0.000      0.000
REMARK  Name = 
REMARK  2 active torsions:
REMARK  status: ('A' for Active; 'I' for Inactive)
REMARK    1  A    between atoms: C_2  and  N_3
REMARK    2  A    between atoms: N_3  and  C_6
REMARK                            x       y       z     vdW  Elec       q    Type
REMARK                         _______ _______ _______ _____ _____    ______ ____
ROOT
ATOM      1  C   UNL     1     -12.501  14.746  71.006  0.00  0.00    +0.169 A 
ATOM      2  C   UNL     1     -12.031  15.900  70.394  0.00  0.00    +0.105 A 
ATOM      3  C   UNL     1     -11.611  15.865  69.070  0.00  0.00    +0.201 A 
ATOM      4  O   UNL     1     -11.298  17.059  68.461  0.00  0.00    -0.286 OA
ATOM      5  C   UNL     1     -11.723  14.698  68.324  0.00  0.00    +0.042 A 
ATOM      6  C   UNL     1     -11.701  13.525  69.067  0.00  0.00    +0.009 A 
ATOM      7  C   UNL     1     -12.203  13.563  70.364  0.00  0.00    +0.063 A 
ENDROOT
BRANCH   1   8
ATOM      8  N   UNL     1     -13.580  14.762  71.946  0.00  0.00    -0.316 NA
ATOM      9  C   UNL     1     -13.742  13.446  72.553  0.00  0.00    +0.335 C 
ATOM     10  C   UNL     1     -14.846  15.098  71.300  0.00  0.00    +0.335 C 
BRANCH   8  12
ATOM     11  C   UNL     1     -12.366  15.153  74.039  0.00  0.00    +0.085 C 
ATOM     12  C   UNL     1     -13.292  15.733  72.980  0.00  0.00    +0.256 C 
ENDBRANCH   8  12
ENDBRANCH   1   8
TORSDOF 2
ENDMDL
MODEL 2
REMARK VINA RESULT:      -4.5      2.345      4.526
REMARK  Name = 
REMARK  2 active torsions:
REMARK  status: ('A' for Active; 'I' for Inactive)
REMARK    1  A    between atoms: C_2  and  N_3
REMARK    2  A    between atoms: N_3  and  C_6
REMARK                            x       y       z     vdW  Elec       q    Type
REMARK                         _______ _______ _______ _____ _____    ______ ____
ROOT
ATOM      1  C   UNL     1     -11.662  14.722  70.669  0.00  0.00    +0.169 A 
ATOM      2  C   UNL     1     -12.541  13.767  71.162  0.00  0.00    +0.105 A 
ATOM      3  C   UNL     1     -13.407  14.088  72.200  0.00  0.00    +0.201 A 
ATOM      4  O   UNL     1     -14.362  13.161  72.552  0.00  0.00    -0.286 OA
ATOM      5  C   UNL     1     -13.455  15.380  72.707  0.00  0.00    +0.042 A 
ATOM      6  C   UNL     1     -12.281  16.108  72.562  0.00  0.00    +0.009 A 
ATOM      7  C   UNL     1     -11.468  15.828  71.469  0.00  0.00    +0.063 A 
ENDROOT
BRANCH   1   8
ATOM      8  N   UNL     1     -11.333  14.816  69.279  0.00  0.00    -0.316 NA
ATOM      9  C   UNL     1      -9.891  14.699  69.093  0.00  0.00    +0.335 C 
ATOM     10  C   UNL     1     -11.737  16.103  68.720  0.00  0.00    +0.335 C 
BRANCH   8  12
ATOM     11  C   UNL     1     -11.920  13.962  67.058  0.00  0.00    +0.085 C 
ATOM     12  C   UNL     1     -11.996  13.747  68.563  0.00  0.00    +0.256 C 
ENDBRANCH   8  12
ENDBRANCH   1   8
TORSDOF 2
ENDMDL
MODEL 3
REMARK VINA RESULT:      -4.5      2.590      3.400
REMARK  Name = 
REMARK  2 active torsions:
REMARK  status: ('A' for Active; 'I' for Inactive)
REMARK    1  A    between atoms: C_2  and  N_3
REMARK    2  A    between atoms: N_3  and  C_6
REMARK                            x       y       z     vdW  Elec       q    Type
REMARK                         _______ _______ _______ _____ _____    ______ ____
ROOT
ATOM      1  C   UNL     1     -12.890  13.915  71.317  0.00  0.00    +0.169 A 
ATOM      2  C   UNL     1     -13.381  12.741  71.871  0.00  0.00    +0.105 A 
ATOM      3  C   UNL     1     -12.911  11.512  71.426  0.00  0.00    +0.201 A 
ATOM      4  O   UNL     1     -13.311  10.384  72.107  0.00  0.00    -0.286 OA
ATOM      5  C   UNL     1     -11.898  11.443  70.477  0.00  0.00    +0.042 A 
ATOM      6  C   UNL     1     -11.817  12.540  69.630  0.00  0.00    +0.009 A 
ATOM      7  C   UNL     1     -12.215  13.779  70.123  0.00  0.00    +0.063 A 
ENDROOT
BRANCH   1   8
ATOM      8  N   UNL     1     -12.674  15.098  72.093  0.00  0.00    -0.316 NA
ATOM      9  C   UNL     1     -13.949  15.714  72.442  0.00  0.00    +0.335 C 
ATOM     10  C   UNL     1     -11.903  16.091  71.351  0.00  0.00    +0.335 C 
BRANCH   8  12
ATOM     11  C   UNL     1     -12.449  15.573  74.488  0.00  0.00    +0.085 C 
ATOM     12  C   UNL     1     -11.967  14.744  73.306  0.00  0.00    +0.256 C 
ENDBRANCH   8  12
ENDBRANCH   1   8
TORSDOF 2
ENDMDL
MODEL 4
REMARK VINA RESULT:      -4.4      2.858      4.378
REMARK  Name = 
REMARK  2 active torsions:
REMARK  status: ('A' for Active; 'I' for Inactive)
REMARK    1  A    between atoms: C_2  and  N_3
REMARK    2  A    between atoms: N_3  and  C_6
REMARK                            x       y       z     vdW  Elec       q    Type
REMARK                         _______ _______ _______ _____ _____    ______ ____
ROOT
ATOM      1  C   UNL     1     -10.917  14.399  66.963  0.00  0.00    +0.169 A 
ATOM      2  C   UNL     1     -10.720  15.453  66.081  0.00  0.00    +0.105 A 
ATOM      3  C   UNL     1     -11.419  15.497  64.881  0.00  0.00    +0.201 A 
ATOM      4  O   UNL     1     -11.307  16.633  64.112  0.00  0.00    -0.286 OA
ATOM      5  C   UNL     1     -12.371  14.530  64.582  0.00  0.00    +0.042 A 
ATOM      6  C   UNL     1     -12.169  13.302  65.198  0.00  0.00    +0.009 A 
ATOM      7  C   UNL     1     -11.541  13.287  66.439  0.00  0.00    +0.063 A 
ENDROOT
BRANCH   1   8
ATOM      8  N   UNL     1     -10.915  14.577  68.383  0.00  0.00    -0.316 NA
ATOM      9  C   UNL     1      -9.549  14.713  68.874  0.00  0.00    +0.335 C 
ATOM     10  C   UNL     1     -11.507  13.429  69.066  0.00  0.00    +0.335 C 
BRANCH   8  12
ATOM     11  C   UNL     1     -12.233  15.698  70.120  0.00  0.00    +0.085 C 
ATOM     12  C   UNL     1     -11.662  15.773  68.711  0.00  0.00    +0.256 C 
ENDBRANCH   8  12
ENDBRANCH   1   8
TORSDOF 2
ENDMDL
MODEL 5
REMARK VINA RESULT:      -4.3      5.507      6.496
REMARK  Name = 
REMARK  2 active torsions:
REMARK  status: ('A' for Active; 'I' for Inactive)
REMARK    1  A    between atoms: C_2  and  N_3
REMARK    2  A    between atoms: N_3  and  C_6
REMARK                            x       y       z     vdW  Elec       q    Type
REMARK                         _______ _______ _______ _____ _____    ______ ____
ROOT
ATOM      1  C   UNL     1     -10.913  13.806  66.001  0.00  0.00    +0.169 A 
ATOM      2  C   UNL     1     -11.404  14.948  65.384  0.00  0.00    +0.105 A 
ATOM      3  C   UNL     1     -10.621  16.093  65.315  0.00  0.00    +0.201 A 
ATOM      4  O   UNL     1     -11.087  17.149  64.564  0.00  0.00    -0.286 OA
ATOM      5  C   UNL     1      -9.318  16.089  65.795  0.00  0.00    +0.042 A 
ATOM      6  C   UNL     1      -9.070  15.165  66.803  0.00  0.00    +0.009 A 
ATOM      7  C   UNL     1      -9.809  13.986  66.805  0.00  0.00    +0.063 A 
ENDROOT
BRANCH   1   8
ATOM      8  N   UNL     1     -11.199  12.490  65.516  0.00  0.00    -0.316 NA
ATOM      9  C   UNL     1     -11.249  11.542  66.624  0.00  0.00    +0.335 C 
ATOM     10  C   UNL     1     -10.166  12.023  64.595  0.00  0.00    +0.335 C 
BRANCH   8  12
ATOM     11  C   UNL     1     -12.355  11.991  63.412  0.00  0.00    +0.085 C 
ATOM     12  C   UNL     1     -12.480  12.503  64.840  0.00  0.00    +0.256 C 
ENDBRANCH   8  12
ENDBRANCH   1   8
TORSDOF 2
ENDMDL
MODEL 6
REMARK VINA RESULT:      -4.3      3.125      4.763
REMARK  Name = 
REMARK  2 active torsions:
REMARK  status: ('A' for Active; 'I' for Inactive)
REMARK    1  A    between atoms: C_2  and  N_3
REMARK    2  A    between atoms: N_3  and  C_6
REMARK                            x       y       z     vdW  Elec       q    Type
REMARK                         _______ _______ _______ _____ _____    ______ ____
ROOT
ATOM      1  C   UNL     1     -10.014  15.764  67.100  0.00  0.00    +0.169 A 
ATOM      2  C   UNL     1     -10.476  16.501  66.019  0.00  0.00    +0.105 A 
ATOM      3  C   UNL     1     -10.961  15.853  64.890  0.00  0.00    +0.201 A 
ATOM      4  O   UNL     1     -11.547  16.619  63.909  0.00  0.00    -0.286 OA
ATOM      5  C   UNL     1     -11.058  14.467  64.858  0.00  0.00    +0.042 A 
ATOM      6  C   UNL     1     -10.162  13.800  65.683  0.00  0.00    +0.009 A 
ATOM      7  C   UNL     1      -9.752  14.434  66.852  0.00  0.00    +0.063 A 
ENDROOT
BRANCH   1   8
ATOM      8  N   UNL     1     -10.220  16.179  68.455  0.00  0.00    -0.316 NA
ATOM      9  C   UNL     1      -9.961  17.608  68.591  0.00  0.00    +0.335 C 
ATOM     10  C   UNL     1      -9.315  15.487  69.369  0.00  0.00    +0.335 C 
BRANCH   8  12
ATOM     11  C   UNL     1     -11.657  15.058  70.094  0.00  0.00    +0.085 C 
ATOM     12  C   UNL     1     -11.591  15.904  68.831  0.00  0.00    +0.256 C 
ENDBRANCH   8  12
ENDBRANCH   1   8
TORSDOF 2
ENDMDL
MODEL 7
REMARK VINA RESULT:      -4.3      3.016      4.506
REMARK  Name = 
REMARK  2 active torsions:
REMARK  status: ('A' for Active; 'I' for Inactive)
REMARK    1  A    between atoms: C_2  and  N_3
REMARK    2  A    between atoms: N_3  and  C_6
REMARK                            x       y       z     vdW  Elec       q    Type
REMARK                         _______ _______ _______ _____ _____    ______ ____
ROOT
ATOM      1  C   UNL     1     -11.432  14.752  67.170  0.00  0.00    +0.169 A 
ATOM      2  C   UNL     1     -12.396  13.960  66.563  0.00  0.00    +0.105 A 
ATOM      3  C   UNL     1     -12.172  13.439  65.295  0.00  0.00    +0.201 A 
ATOM      4  O   UNL     1     -13.086  12.538  64.797  0.00  0.00    -0.286 OA
ATOM      5  C   UNL     1     -10.957  13.642  64.652  0.00  0.00    +0.042 A 
ATOM      6  C   UNL     1     -10.278  14.791  65.036  0.00  0.00    +0.009 A 
ATOM      7  C   UNL     1     -10.453  15.250  66.337  0.00  0.00    +0.063 A 
ENDROOT
BRANCH   1   8
ATOM      8  N   UNL     1     -11.171  14.700  68.577  0.00  0.00    -0.316 NA
ATOM      9  C   UNL     1      -9.739  14.580  68.822  0.00  0.00    +0.335 C 
ATOM     10  C   UNL     1     -11.814  13.545  69.197  0.00  0.00    +0.335 C 
BRANCH   8  12
ATOM     11  C   UNL     1     -12.467  15.611  70.448  0.00  0.00    +0.085 C 
ATOM     12  C   UNL     1     -11.661  15.915  69.193  0.00  0.00    +0.256 C 
ENDBRANCH   8  12
ENDBRANCH   1   8
TORSDOF 2
ENDMDL
MODEL 8
REMARK VINA RESULT:      -4.2      4.824      5.971
REMARK  Name = 
REMARK  2 active torsions:
REMARK  status: ('A' for Active; 'I' for Inactive)
REMARK    1  A    between atoms: C_2  and  N_3
REMARK    2  A    between atoms: N_3  and  C_6
REMARK                            x       y       z     vdW  Elec       q    Type
REMARK                         _______ _______ _______ _____ _____    ______ ____
ROOT
ATOM      1  C   UNL     1     -10.181  15.619  66.266  0.00  0.00    +0.169 A 
ATOM      2  C   UNL     1     -10.829  15.478  65.046  0.00  0.00    +0.105 A 
ATOM      3  C   UNL     1     -11.919  14.625  64.932  0.00  0.00    +0.201 A 
ATOM      4  O   UNL     1     -12.622  14.632  63.749  0.00  0.00    -0.286 OA
ATOM      5  C   UNL     1     -12.417  13.961  66.046  0.00  0.00    +0.042 A 
ATOM      6  C   UNL     1     -11.488  13.734  67.054  0.00  0.00    +0.009 A 
ATOM      7  C   UNL     1     -10.449  14.646  67.204  0.00  0.00    +0.063 A 
ENDROOT
BRANCH   1   8
ATOM      8  N   UNL     1      -9.650  16.872  66.711  0.00  0.00    -0.316 NA
ATOM      9  C   UNL     1      -8.247  16.990  66.333  0.00  0.00    +0.335 C 
ATOM     10  C   UNL     1      -9.718  16.994  68.165  0.00  0.00    +0.335 C 
BRANCH   8  12
ATOM     11  C   UNL     1     -10.642  19.082  67.086  0.00  0.00    +0.085 C 
ATOM     12  C   UNL     1     -10.402  17.948  66.100  0.00  0.00    +0.256 C 
ENDBRANCH   8  12
ENDBRANCH   1   8
TORSDOF 2
ENDMDL
MODEL 9
REMARK VINA RESULT:      -4.2      4.233      5.921
REMARK  Name = 
REMARK  2 active torsions:
REMARK  status: ('A' for Active; 'I' for Inactive)
REMARK    1  A    between atoms: C_2  and  N_3
REMARK    2  A    between atoms: N_3  and  C_6
REMARK                            x       y       z     vdW  Elec       q    Type
REMARK                         _______ _______ _______ _____ _____    ______ ____
ROOT
ATOM      1  C   UNL     1     -10.719  12.327  65.884  0.00  0.00    +0.169 A 
ATOM      2  C   UNL     1     -11.295  13.523  65.480  0.00  0.00    +0.105 A 
ATOM      3  C   UNL     1     -11.971  13.596  64.269  0.00  0.00    +0.201 A 
ATOM      4  O   UNL     1     -12.655  14.755  63.980  0.00  0.00    -0.286 OA
ATOM      5  C   UNL     1     -12.140  12.462  63.484  0.00  0.00    +0.042 A 
ATOM      6  C   UNL     1     -11.168  11.485  63.654  0.00  0.00    +0.009 A 
ATOM      7  C   UNL     1     -10.562  11.374  64.901  0.00  0.00    +0.063 A 
ENDROOT
BRANCH   1   8
ATOM      8  N   UNL     1     -10.705  11.907  67.253  0.00  0.00    -0.316 NA
ATOM      9  C   UNL     1      -9.391  12.143  67.841  0.00  0.00    +0.335 C 
ATOM     10  C   UNL     1     -10.983  10.478  67.376  0.00  0.00    +0.335 C 
BRANCH   8  12
ATOM     11  C   UNL     1     -11.754  12.223  69.446  0.00  0.00    +0.085 C 
ATOM     12  C   UNL     1     -11.700  12.658  67.988  0.00  0.00    +0.256 C 
ENDBRANCH   8  12
ENDBRANCH   1   8
TORSDOF 2
ENDMDL
