MODEL 1
REMARK VINA RESULT:      -6.3      0.000      0.000
REMARK  Name = 
REMARK  10 active torsions:
REMARK  status: ('A' for Active; 'I' for Inactive)
REMARK    1  A    between atoms: C_2  and  C_3
REMARK    2  A    between atoms: C_13  and  C_14
REMARK    3  A    between atoms: C_14  and  C_15
REMARK    4  A    between atoms: C_15  and  O_17
REMARK    5  A    between atoms: C_24  and  C_26
REMARK    6  A    between atoms: C_40  and  O_41
REMARK    7  A    between atoms: C_48  and  C_50
REMARK    8  A    between atoms: C_50  and  O_52
REMARK    9  A    between atoms: C_54  and  O_55
REMARK   10  A    between atoms: O_55  and  C_56
REMARK                            x       y       z     vdW  Elec       q    Type
REMARK                         _______ _______ _______ _____ _____    ______ ____
ROOT
ATOM      1  C   UNL     1      -9.119  15.416  67.838  0.00  0.00    +0.072 C 
ATOM      2  C   UNL     1      -9.015  14.049  68.706  0.00  0.00    +0.070 C 
ATOM      3  N   UNL     1      -7.548  14.315  69.185  0.00  0.00    -0.269 NA
ATOM      4  C   UNL     1      -6.803  13.207  68.762  0.00  0.00    +0.073 C 
ATOM      5  C   UNL     1      -7.171  13.261  67.278  0.00  0.00    +0.024 C 
ATOM      6  C   UNL     1      -7.091  15.588  69.014  0.00  0.00    +0.099 C 
ATOM      7  C   UNL     1      -6.950  15.958  67.559  0.00  0.00    -0.013 C 
ATOM      8  C   UNL     1      -8.596  13.084  67.477  0.00  0.00    +0.055 C 
ATOM      9  C   UNL     1      -9.453  13.570  66.190  0.00  0.00    +0.120 C 
ATOM     10  C   UNL     1     -10.830  13.917  66.960  0.00  0.00    +0.268 C 
ATOM     11  O   UNL     1     -11.802  13.980  65.944  0.00  0.00    -0.209 OA
ATOM     12  N   UNL     1      -9.989  12.133  65.798  0.00  0.00    -0.304 N 
ATOM     13  C   UNL     1     -10.756  12.094  64.575  0.00  0.00    +0.112 C 
ATOM     14  C   UNL     1      -9.069  11.240  66.366  0.00  0.00    +0.047 A 
ATOM     15  C   UNL     1      -8.653  10.005  65.948  0.00  0.00    +0.051 A 
ATOM     16  C   UNL     1      -8.100   9.139  66.885  0.00  0.00    +0.137 A 
ATOM     17  C   UNL     1      -8.302   9.441  68.227  0.00  0.00    +0.026 A 
ATOM     18  C   UNL     1      -8.640  10.741  68.600  0.00  0.00    -0.003 A 
ATOM     19  C   UNL     1      -8.956  11.718  67.672  0.00  0.00    -0.007 A 
ATOM     20  C   UNL     1     -10.661  15.493  67.347  0.00  0.00    +0.213 C 
ATOM     21  C   UNL     1      -8.122  15.692  66.949  0.00  0.00    -0.025 C 
ENDROOT
BRANCH  17  22
ATOM     22  C   UNL     1      -8.179   8.348  69.233  0.00  0.00    +0.146 C 
ATOM     23  C   UNL     1      -6.836   8.427  69.835  0.00  0.00    +0.068 A 
ATOM     24  C   UNL     1      -6.452   7.655  70.926  0.00  0.00    -0.005 A 
ATOM     25  C   UNL     1      -5.109   7.374  70.725  0.00  0.00    +0.015 A 
ATOM     26  C   UNL     1      -4.677   8.380  69.884  0.00  0.00    +0.081 A 
ATOM     27  C   UNL     1      -3.342   8.346  69.517  0.00  0.00    +0.019 A 
ATOM     28  C   UNL     1      -2.601   7.177  69.632  0.00  0.00    +0.002 A 
ATOM     29  C   UNL     1      -3.076   6.146  70.433  0.00  0.00    +0.000 A 
ATOM     30  C   UNL     1      -4.275   6.336  71.113  0.00  0.00    +0.001 A 
ATOM     31  C   UNL     1      -7.486   7.114  71.808  0.00  0.00    +0.045 C 
ATOM     32  C   UNL     1      -7.466   5.645  72.007  0.00  0.00    +0.077 C 
ATOM     33  N   UNL     1      -8.596   4.955  71.381  0.00  0.00    -0.270 NA
ATOM     34  C   UNL     1      -8.047   3.791  70.803  0.00  0.00    +0.103 C 
ATOM     35  C   UNL     1      -8.299   3.496  69.383  0.00  0.00    +0.141 C 
ATOM     36  C   UNL     1      -8.342   4.680  68.452  0.00  0.00    +0.033 C 
ATOM     37  C   UNL     1      -7.780   5.881  69.399  0.00  0.00    +0.020 C 
ATOM     38  O   UNL     1      -9.460   2.717  69.241  0.00  0.00    -0.224 OA
ATOM     39  C   UNL     1      -9.100   5.825  70.357  0.00  0.00    +0.072 C 
ATOM     40  N   UNL     1      -5.731   9.182  69.601  0.00  0.00    -0.249 NA
ATOM     41  C   UNL     1      -8.427   7.059  68.482  0.00  0.00    +0.022 C 
BRANCH  35  42
ATOM     42  C   UNL     1      -7.169   2.554  68.961  0.00  0.00    +0.032 C 
ATOM     43  C   UNL     1      -5.990   2.744  69.911  0.00  0.00    +0.003 C 
ENDBRANCH  35  42
BRANCH  22  44
ATOM     44  C   UNL     1      -9.269   8.614  70.221  0.00  0.00    +0.325 C 
ATOM     45  O   UNL     1      -9.071   9.531  71.077  0.00  0.00    -0.249 OA
BRANCH  44  46
ATOM     46  O   UNL     1     -10.539   8.671  69.630  0.00  0.00    -0.444 OA
ATOM     47  C   UNL     1     -11.563   9.383  70.318  0.00  0.00    +0.256 C 
ENDBRANCH  44  46
ENDBRANCH  22  44
ENDBRANCH  17  22
BRANCH  16  48
ATOM     48  O   UNL     1      -7.013   8.314  66.597  0.00  0.00    -0.472 OA
ATOM     49  C   UNL     1      -5.798   8.819  66.046  0.00  0.00    +0.252 C 
ENDBRANCH  16  48
BRANCH  10  50
ATOM     50  C   UNL     1     -11.289  13.118  67.978  0.00  0.00    +0.350 C 
ATOM     51  O   UNL     1     -12.065  12.152  67.676  0.00  0.00    -0.247 OA
BRANCH  50  52
ATOM     52  O   UNL     1     -11.850  13.793  69.082  0.00  0.00    -0.443 OA
ATOM     53  C   UNL     1     -12.148  13.183  70.298  0.00  0.00    +0.256 C 
ENDBRANCH  50  52
ENDBRANCH  10  50
BRANCH   1  55
ATOM     54  C   UNL     1      -9.974  16.815  69.067  0.00  0.00    +0.001 C 
ATOM     55  C   UNL     1      -9.188  16.566  68.844  0.00  0.00    +0.009 C 
ENDBRANCH   1  55
BRANCH  20  56
ATOM     56  O   UNL     1     -10.274  15.864  65.896  0.00  0.00    -0.449 OA
BRANCH  56  57
ATOM     57  C   UNL     1     -10.886  16.956  65.363  0.00  0.00    +0.318 C 
ATOM     58  O   UNL     1     -11.358  16.868  64.198  0.00  0.00    -0.250 OA
ATOM     59  C   UNL     1     -10.465  18.304  65.847  0.00  0.00    +0.121 C 
ENDBRANCH  56  57
ENDBRANCH  20  56
TORSDOF 10
ENDMDL
MODEL 2
REMARK VINA RESULT:      -5.9      2.343      9.668
REMARK  Name = 
REMARK  10 active torsions:
REMARK  status: ('A' for Active; 'I' for Inactive)
REMARK    1  A    between atoms: C_2  and  C_3
REMARK    2  A    between atoms: C_13  and  C_14
REMARK    3  A    between atoms: C_14  and  C_15
REMARK    4  A    between atoms: C_15  and  O_17
REMARK    5  A    between atoms: C_24  and  C_26
REMARK    6  A    between atoms: C_40  and  O_41
REMARK    7  A    between atoms: C_48  and  C_50
REMARK    8  A    between atoms: C_50  and  O_52
REMARK    9  A    between atoms: C_54  and  O_55
REMARK   10  A    between atoms: O_55  and  C_56
REMARK                            x       y       z     vdW  Elec       q    Type
REMARK                         _______ _______ _______ _____ _____    ______ ____
ROOT
ATOM      1  C   UNL     1      -8.896   4.273  71.129  0.00  0.00    +0.072 C 
ATOM      2  C   UNL     1      -9.635   5.480  70.337  0.00  0.00    +0.070 C 
ATOM      3  N   UNL     1      -9.351   4.893  68.914  0.00  0.00    -0.269 NA
ATOM      4  C   UNL     1      -8.646   5.888  68.226  0.00  0.00    +0.073 C 
ATOM      5  C   UNL     1      -7.517   6.084  69.239  0.00  0.00    +0.024 C 
ATOM      6  C   UNL     1      -8.957   3.588  68.880  0.00  0.00    +0.099 C 
ATOM      7  C   UNL     1      -7.605   3.378  69.513  0.00  0.00    -0.013 C 
ATOM      8  C   UNL     1      -8.375   6.495  70.333  0.00  0.00    +0.055 C 
ATOM      9  C   UNL     1      -7.644   6.335  71.771  0.00  0.00    +0.120 C 
ATOM     10  C   UNL     1      -8.971   6.156  72.675  0.00  0.00    +0.268 C 
ATOM     11  O   UNL     1      -8.541   6.397  73.993  0.00  0.00    -0.209 OA
ATOM     12  N   UNL     1      -7.584   7.883  72.096  0.00  0.00    -0.304 N 
ATOM     13  C   UNL     1      -6.876   8.212  73.312  0.00  0.00    +0.112 C 
ATOM     14  C   UNL     1      -7.662   8.515  70.847  0.00  0.00    +0.047 A 
ATOM     15  C   UNL     1      -7.120   9.695  70.411  0.00  0.00    +0.051 A 
ATOM     16  C   UNL     1      -7.696  10.323  69.313  0.00  0.00    +0.137 A 
ATOM     17  C   UNL     1      -8.966   9.902  68.933  0.00  0.00    +0.026 A 
ATOM     18  C   UNL     1      -9.429   8.651  69.337  0.00  0.00    -0.003 A 
ATOM     19  C   UNL     1      -8.746   7.869  70.252  0.00  0.00    -0.007 A 
ATOM     20  C   UNL     1      -9.199   4.541  72.697  0.00  0.00    +0.213 C 
ATOM     21  C   UNL     1      -7.634   3.928  70.743  0.00  0.00    -0.025 C 
ENDROOT
BRANCH  17  22
ATOM     22  C   UNL     1      -9.813  10.822  68.122  0.00  0.00    +0.146 C 
ATOM     23  C   UNL     1      -9.836  10.323  66.736  0.00  0.00    +0.068 A 
ATOM     24  C   UNL     1     -10.666  10.857  65.756  0.00  0.00    -0.005 A 
ATOM     25  C   UNL     1      -9.943  10.775  64.575  0.00  0.00    +0.015 A 
ATOM     26  C   UNL     1      -9.026   9.771  64.811  0.00  0.00    +0.081 A 
ATOM     27  C   UNL     1      -8.160   9.470  63.772  0.00  0.00    +0.019 A 
ATOM     28  C   UNL     1      -7.942  10.375  62.741  0.00  0.00    +0.002 A 
ATOM     29  C   UNL     1      -8.840  11.420  62.552  0.00  0.00    +0.000 A 
ATOM     30  C   UNL     1      -9.943  11.504  63.396  0.00  0.00    +0.001 A 
ATOM     31  C   UNL     1     -11.870  11.578  66.166  0.00  0.00    +0.045 C 
ATOM     32  C   UNL     1     -12.008  12.961  65.649  0.00  0.00    +0.077 C 
ATOM     33  N   UNL     1     -11.861  13.989  66.681  0.00  0.00    -0.270 NA
ATOM     34  C   UNL     1     -11.083  15.005  66.088  0.00  0.00    +0.103 C 
ATOM     35  C   UNL     1      -9.871  15.486  66.771  0.00  0.00    +0.141 C 
ATOM     36  C   UNL     1      -9.065  14.449  67.509  0.00  0.00    +0.033 C 
ATOM     37  C   UNL     1      -9.743  13.059  66.997  0.00  0.00    +0.020 C 
ATOM     38  O   UNL     1     -10.180  16.564  67.619  0.00  0.00    -0.224 OA
ATOM     39  C   UNL     1     -11.143  13.387  67.768  0.00  0.00    +0.072 C 
ATOM     40  N   UNL     1      -9.204   9.318  66.075  0.00  0.00    -0.249 NA
ATOM     41  C   UNL     1      -9.187  12.193  68.258  0.00  0.00    +0.022 C 
BRANCH  35  42
ATOM     42  C   UNL     1      -9.013  16.116  65.672  0.00  0.00    +0.032 C 
ATOM     43  C   UNL     1      -7.798  16.779  66.316  0.00  0.00    +0.003 C 
ENDBRANCH  35  42
BRANCH  22  44
ATOM     44  C   UNL     1     -11.157  10.777  68.773  0.00  0.00    +0.325 C 
ATOM     45  O   UNL     1     -11.886   9.765  68.538  0.00  0.00    -0.249 OA
BRANCH  44  46
ATOM     46  O   UNL     1     -11.120  11.131  70.129  0.00  0.00    -0.444 OA
ATOM     47  C   UNL     1     -12.293  10.916  70.907  0.00  0.00    +0.256 C 
ENDBRANCH  44  46
ENDBRANCH  22  44
ENDBRANCH  17  22
BRANCH  16  48
ATOM     48  O   UNL     1      -6.941  10.963  68.330  0.00  0.00    -0.472 OA
ATOM     49  C   UNL     1      -6.053  10.252  67.470  0.00  0.00    +0.252 C 
ENDBRANCH  16  48
BRANCH  10  50
ATOM     50  C   UNL     1     -10.100   6.896  72.423  0.00  0.00    +0.350 C 
ATOM     51  O   UNL     1     -10.297   7.943  73.123  0.00  0.00    -0.247 OA
BRANCH  50  52
ATOM     52  O   UNL     1     -11.310   6.172  72.378  0.00  0.00    -0.443 OA
ATOM     53  C   UNL     1     -12.501   6.677  71.862  0.00  0.00    +0.256 C 
ENDBRANCH  50  52
ENDBRANCH  10  50
BRANCH   1  55
ATOM     54  C   UNL     1     -10.152   2.756  71.695  0.00  0.00    +0.001 C 
ATOM     55  C   UNL     1      -9.789   3.040  70.976  0.00  0.00    +0.009 C 
ENDBRANCH   1  55
BRANCH  20  56
ATOM     56  O   UNL     1      -7.732   4.285  73.116  0.00  0.00    -0.449 OA
BRANCH  56  57
ATOM     57  C   UNL     1      -7.528   3.326  74.060  0.00  0.00    +0.318 C 
ATOM     58  O   UNL     1      -6.754   2.371  73.785  0.00  0.00    -0.250 OA
ATOM     59  C   UNL     1      -8.608   3.085  75.062  0.00  0.00    +0.121 C 
ENDBRANCH  56  57
ENDBRANCH  20  56
TORSDOF 10
ENDMDL
MODEL 3
REMARK VINA RESULT:      -5.9      2.537      9.623
REMARK  Name = 
REMARK  10 active torsions:
REMARK  status: ('A' for Active; 'I' for Inactive)
REMARK    1  A    between atoms: C_2  and  C_3
REMARK    2  A    between atoms: C_13  and  C_14
REMARK    3  A    between atoms: C_14  and  C_15
REMARK    4  A    between atoms: C_15  and  O_17
REMARK    5  A    between atoms: C_24  and  C_26
REMARK    6  A    between atoms: C_40  and  O_41
REMARK    7  A    between atoms: C_48  and  C_50
REMARK    8  A    between atoms: C_50  and  O_52
REMARK    9  A    between atoms: C_54  and  O_55
REMARK   10  A    between atoms: O_55  and  C_56
REMARK                            x       y       z     vdW  Elec       q    Type
REMARK                         _______ _______ _______ _____ _____    ______ ____
ROOT
ATOM      1  C   UNL     1      -7.140   5.188  73.876  0.00  0.00    +0.072 C 
ATOM      2  C   UNL     1      -7.165   5.935  72.436  0.00  0.00    +0.070 C 
ATOM      3  N   UNL     1      -6.251   7.122  72.893  0.00  0.00    -0.269 NA
ATOM      4  C   UNL     1      -6.993   8.286  72.659  0.00  0.00    +0.073 C 
ATOM      5  C   UNL     1      -8.242   7.901  73.453  0.00  0.00    +0.024 C 
ATOM      6  C   UNL     1      -5.573   6.931  74.061  0.00  0.00    +0.099 C 
ATOM      7  C   UNL     1      -6.492   6.851  75.253  0.00  0.00    -0.013 C 
ATOM      8  C   UNL     1      -8.558   6.725  72.664  0.00  0.00    +0.055 C 
ATOM      9  C   UNL     1      -9.544   5.711  73.455  0.00  0.00    +0.120 C 
ATOM     10  C   UNL     1      -9.106   4.349  72.706  0.00  0.00    +0.268 C 
ATOM     11  O   UNL     1     -10.138   3.435  72.992  0.00  0.00    -0.209 OA
ATOM     12  N   UNL     1     -10.780   5.895  72.483  0.00  0.00    -0.304 N 
ATOM     13  C   UNL     1     -11.978   5.205  72.902  0.00  0.00    +0.112 C 
ATOM     14  C   UNL     1     -10.570   7.137  71.867  0.00  0.00    +0.047 A 
ATOM     15  C   UNL     1     -11.465   8.069  71.415  0.00  0.00    +0.051 A 
ATOM     16  C   UNL     1     -11.045   8.982  70.455  0.00  0.00    +0.137 A 
ATOM     17  C   UNL     1      -9.865   8.695  69.778  0.00  0.00    +0.026 A 
ATOM     18  C   UNL     1      -8.950   7.800  70.331  0.00  0.00    -0.003 A 
ATOM     19  C   UNL     1      -9.241   7.045  71.454  0.00  0.00    -0.007 A 
ATOM     20  C   UNL     1      -7.897   3.775  73.637  0.00  0.00    +0.213 C 
ATOM     21  C   UNL     1      -7.433   5.922  74.988  0.00  0.00    -0.025 C 
ENDROOT
BRANCH  17  22
ATOM     22  C   UNL     1      -9.626   9.333  68.453  0.00  0.00    +0.146 C 
ATOM     23  C   UNL     1      -8.331  10.035  68.509  0.00  0.00    +0.068 A 
ATOM     24  C   UNL     1      -7.730  10.600  67.388  0.00  0.00    -0.005 A 
ATOM     25  C   UNL     1      -7.084  11.736  67.850  0.00  0.00    +0.015 A 
ATOM     26  C   UNL     1      -6.890  11.491  69.194  0.00  0.00    +0.081 A 
ATOM     27  C   UNL     1      -6.246  12.482  69.916  0.00  0.00    +0.019 A 
ATOM     28  C   UNL     1      -6.180  13.784  69.436  0.00  0.00    +0.002 A 
ATOM     29  C   UNL     1      -6.437  14.027  68.092  0.00  0.00    +0.000 A 
ATOM     30  C   UNL     1      -6.731  12.945  67.269  0.00  0.00    +0.001 A 
ATOM     31  C   UNL     1      -8.101  10.105  66.063  0.00  0.00    +0.045 C 
ATOM     32  C   UNL     1      -8.588  11.123  65.101  0.00  0.00    +0.077 C 
ATOM     33  N   UNL     1     -10.015  11.006  64.798  0.00  0.00    -0.270 NA
ATOM     34  C   UNL     1     -10.502  12.330  64.778  0.00  0.00    +0.103 C 
ATOM     35  C   UNL     1     -11.671  12.688  65.598  0.00  0.00    +0.141 C 
ATOM     36  C   UNL     1     -11.771  12.019  66.944  0.00  0.00    +0.033 C 
ATOM     37  C   UNL     1     -10.305  11.325  67.093  0.00  0.00    +0.020 C 
ATOM     38  O   UNL     1     -12.858  12.505  64.868  0.00  0.00    -0.224 OA
ATOM     39  C   UNL     1     -10.612  10.276  65.881  0.00  0.00    +0.072 C 
ATOM     40  N   UNL     1      -7.423  10.281  69.489  0.00  0.00    -0.249 NA
ATOM     41  C   UNL     1     -10.801  10.256  68.216  0.00  0.00    +0.022 C 
BRANCH  35  42
ATOM     42  C   UNL     1     -11.582  14.204  65.785  0.00  0.00    +0.032 C 
ATOM     43  C   UNL     1     -10.185  14.668  65.381  0.00  0.00    +0.003 C 
ENDBRANCH  35  42
BRANCH  22  44
ATOM     44  C   UNL     1      -9.626   8.202  67.477  0.00  0.00    +0.325 C 
ATOM     45  O   UNL     1      -8.643   7.399  67.513  0.00  0.00    -0.249 OA
BRANCH  44  46
ATOM     46  O   UNL     1     -10.867   7.555  67.390  0.00  0.00    -0.444 OA
ATOM     47  C   UNL     1     -10.874   6.137  67.270  0.00  0.00    +0.256 C 
ENDBRANCH  44  46
ENDBRANCH  22  44
ENDBRANCH  17  22
BRANCH  16  48
ATOM     48  O   UNL     1     -11.435  10.321  70.468  0.00  0.00    -0.472 OA
ATOM     49  C   UNL     1     -12.553  10.781  71.224  0.00  0.00    +0.252 C 
ENDBRANCH  16  48
BRANCH  10  50
ATOM     50  C   UNL     1      -8.852   4.337  71.356  0.00  0.00    +0.350 C 
ATOM     51  O   UNL     1      -9.796   3.987  70.573  0.00  0.00    -0.247 OA
BRANCH  50  52
ATOM     52  O   UNL     1      -7.684   3.653  70.958  0.00  0.00    -0.443 OA
ATOM     53  C   UNL     1      -7.676   2.574  70.077  0.00  0.00    +0.256 C 
ENDBRANCH  50  52
ENDBRANCH  10  50
BRANCH   1  55
ATOM     54  C   UNL     1      -5.629   3.806  73.796  0.00  0.00    +0.001 C 
ATOM     55  C   UNL     1      -5.731   4.616  74.046  0.00  0.00    +0.009 C 
ENDBRANCH   1  55
BRANCH  20  56
ATOM     56  O   UNL     1      -8.747   3.913  74.922  0.00  0.00    -0.449 OA
BRANCH  56  57
ATOM     57  C   UNL     1      -8.738   2.852  75.774  0.00  0.00    +0.318 C 
ATOM     58  O   UNL     1      -9.836   2.305  76.061  0.00  0.00    -0.250 OA
ATOM     59  C   UNL     1      -7.631   2.761  76.771  0.00  0.00    +0.121 C 
ENDBRANCH  56  57
ENDBRANCH  20  56
TORSDOF 10
ENDMDL
MODEL 4
REMARK VINA RESULT:      -5.7      1.756      3.152
REMARK  Name = 
REMARK  10 active torsions:
REMARK  status: ('A' for Active; 'I' for Inactive)
REMARK    1  A    between atoms: C_2  and  C_3
REMARK    2  A    between atoms: C_13  and  C_14
REMARK    3  A    between atoms: C_14  and  C_15
REMARK    4  A    between atoms: C_15  and  O_17
REMARK    5  A    between atoms: C_24  and  C_26
REMARK    6  A    between atoms: C_40  and  O_41
REMARK    7  A    between atoms: C_48  and  C_50
REMARK    8  A    between atoms: C_50  and  O_52
REMARK    9  A    between atoms: C_54  and  O_55
REMARK   10  A    between atoms: O_55  and  C_56
REMARK                            x       y       z     vdW  Elec       q    Type
REMARK                         _______ _______ _______ _____ _____    ______ ____
ROOT
ATOM      1  C   UNL     1      -9.294  15.624  67.920  0.00  0.00    +0.072 C 
ATOM      2  C   UNL     1      -9.123  14.235  68.739  0.00  0.00    +0.070 C 
ATOM      3  N   UNL     1      -7.747  14.629  69.373  0.00  0.00    -0.269 NA
ATOM      4  C   UNL     1      -6.847  13.629  68.984  0.00  0.00    +0.073 C 
ATOM      5  C   UNL     1      -7.075  13.718  67.474  0.00  0.00    +0.024 C 
ATOM      6  C   UNL     1      -7.418  15.951  69.299  0.00  0.00    +0.099 C 
ATOM      7  C   UNL     1      -7.180  16.406  67.882  0.00  0.00    -0.013 C 
ATOM      8  C   UNL     1      -8.485  13.382  67.521  0.00  0.00    +0.055 C 
ATOM      9  C   UNL     1      -9.263  13.839  66.176  0.00  0.00    +0.120 C 
ATOM     10  C   UNL     1     -10.737  13.999  66.816  0.00  0.00    +0.268 C 
ATOM     11  O   UNL     1     -11.608  14.010  65.711  0.00  0.00    -0.209 OA
ATOM     12  N   UNL     1      -9.598  12.375  65.675  0.00  0.00    -0.304 N 
ATOM     13  C   UNL     1     -10.235  12.316  64.380  0.00  0.00    +0.112 C 
ATOM     14  C   UNL     1      -8.644  11.557  66.297  0.00  0.00    +0.047 A 
ATOM     15  C   UNL     1      -8.056  10.394  65.875  0.00  0.00    +0.051 A 
ATOM     16  C   UNL     1      -7.503   9.546  66.827  0.00  0.00    +0.137 A 
ATOM     17  C   UNL     1      -7.864   9.758  68.153  0.00  0.00    +0.026 A 
ATOM     18  C   UNL     1      -8.377  10.994  68.541  0.00  0.00    -0.003 A 
ATOM     19  C   UNL     1      -8.709  11.977  67.626  0.00  0.00    -0.007 A 
ATOM     20  C   UNL     1     -10.781  15.562  67.280  0.00  0.00    +0.213 C 
ATOM     21  C   UNL     1      -8.252  16.049  67.147  0.00  0.00    -0.025 C 
ENDROOT
BRANCH  17  22
ATOM     22  C   UNL     1      -7.719   8.635  69.123  0.00  0.00    +0.146 C 
ATOM     23  C   UNL     1      -7.630   7.378  68.358  0.00  0.00    +0.068 A 
ATOM     24  C   UNL     1      -7.325   6.156  68.949  0.00  0.00    -0.005 A 
ATOM     25  C   UNL     1      -8.056   5.212  68.243  0.00  0.00    +0.015 A 
ATOM     26  C   UNL     1      -8.294   5.814  67.024  0.00  0.00    +0.081 A 
ATOM     27  C   UNL     1      -9.016   5.075  66.102  0.00  0.00    +0.019 A 
ATOM     28  C   UNL     1      -9.798   4.001  66.505  0.00  0.00    +0.002 A 
ATOM     29  C   UNL     1      -9.591   3.441  67.761  0.00  0.00    +0.000 A 
ATOM     30  C   UNL     1      -8.583   3.970  68.562  0.00  0.00    +0.001 A 
ATOM     31  C   UNL     1      -6.612   6.147  70.226  0.00  0.00    +0.045 C 
ATOM     32  C   UNL     1      -7.267   5.405  71.331  0.00  0.00    +0.077 C 
ATOM     33  N   UNL     1      -7.776   6.271  72.395  0.00  0.00    -0.270 NA
ATOM     34  C   UNL     1      -9.034   5.734  72.743  0.00  0.00    +0.103 C 
ATOM     35  C   UNL     1     -10.219   6.608  72.759  0.00  0.00    +0.141 C 
ATOM     36  C   UNL     1     -10.280   7.669  71.692  0.00  0.00    +0.033 C 
ATOM     37  C   UNL     1      -9.065   7.229  70.700  0.00  0.00    +0.020 C 
ATOM     38  O   UNL     1     -10.390   7.180  74.031  0.00  0.00    -0.224 OA
ATOM     39  C   UNL     1      -7.937   7.579  71.827  0.00  0.00    +0.072 C 
ATOM     40  N   UNL     1      -7.745   7.052  67.044  0.00  0.00    -0.249 NA
ATOM     41  C   UNL     1      -8.929   8.705  70.027  0.00  0.00    +0.022 C 
BRANCH  35  42
ATOM     42  C   UNL     1     -11.416   5.666  72.613  0.00  0.00    +0.032 C 
ATOM     43  C   UNL     1     -11.112   4.367  73.355  0.00  0.00    +0.003 C 
ENDBRANCH  35  42
BRANCH  22  44
ATOM     44  C   UNL     1      -6.465   8.940  69.876  0.00  0.00    +0.325 C 
ATOM     45  O   UNL     1      -5.373   8.912  69.230  0.00  0.00    -0.249 OA
BRANCH  44  46
ATOM     46  O   UNL     1      -6.588  10.062  70.709  0.00  0.00    -0.444 OA
ATOM     47  C   UNL     1      -5.418  10.829  70.971  0.00  0.00    +0.256 C 
ENDBRANCH  44  46
ENDBRANCH  22  44
ENDBRANCH  17  22
BRANCH  16  48
ATOM     48  O   UNL     1      -6.309   8.856  66.618  0.00  0.00    -0.472 OA
ATOM     49  C   UNL     1      -5.264   9.373  65.796  0.00  0.00    +0.252 C 
ENDBRANCH  16  48
BRANCH  10  50
ATOM     50  C   UNL     1     -11.200  13.106  67.751  0.00  0.00    +0.350 C 
ATOM     51  O   UNL     1     -11.931  12.142  67.346  0.00  0.00    -0.247 OA
BRANCH  50  52
ATOM     52  O   UNL     1     -11.820  13.672  68.885  0.00  0.00    -0.443 OA
ATOM     53  C   UNL     1     -12.096  12.967  70.054  0.00  0.00    +0.256 C 
ENDBRANCH  50  52
ENDBRANCH  10  50
BRANCH   1  55
ATOM     54  C   UNL     1     -10.411  16.867  69.107  0.00  0.00    +0.001 C 
ATOM     55  C   UNL     1      -9.584  16.709  68.958  0.00  0.00    +0.009 C 
ENDBRANCH   1  55
BRANCH  20  56
ATOM     56  O   UNL     1     -10.300  16.045  65.891  0.00  0.00    -0.449 OA
BRANCH  56  57
ATOM     57  C   UNL     1     -10.943  17.121  65.364  0.00  0.00    +0.318 C 
ATOM     58  O   UNL     1     -11.408  17.029  64.197  0.00  0.00    -0.250 OA
ATOM     59  C   UNL     1     -10.565  18.478  65.860  0.00  0.00    +0.121 C 
ENDBRANCH  56  57
ENDBRANCH  20  56
TORSDOF 10
ENDMDL
MODEL 5
REMARK VINA RESULT:      -5.5      3.476      6.109
REMARK  Name = 
REMARK  10 active torsions:
REMARK  status: ('A' for Active; 'I' for Inactive)
REMARK    1  A    between atoms: C_2  and  C_3
REMARK    2  A    between atoms: C_13  and  C_14
REMARK    3  A    between atoms: C_14  and  C_15
REMARK    4  A    between atoms: C_15  and  O_17
REMARK    5  A    between atoms: C_24  and  C_26
REMARK    6  A    between atoms: C_40  and  O_41
REMARK    7  A    between atoms: C_48  and  C_50
REMARK    8  A    between atoms: C_50  and  O_52
REMARK    9  A    between atoms: C_54  and  O_55
REMARK   10  A    between atoms: O_55  and  C_56
REMARK                            x       y       z     vdW  Elec       q    Type
REMARK                         _______ _______ _______ _____ _____    ______ ____
ROOT
ATOM      1  C   UNL     1     -11.002  14.332  66.182  0.00  0.00    +0.072 C 
ATOM      2  C   UNL     1      -9.941  13.270  65.568  0.00  0.00    +0.070 C 
ATOM      3  N   UNL     1     -10.683  13.129  64.196  0.00  0.00    -0.269 NA
ATOM      4  C   UNL     1     -10.973  11.765  64.059  0.00  0.00    +0.073 C 
ATOM      5  C   UNL     1     -11.717  11.576  65.382  0.00  0.00    +0.024 C 
ATOM      6  C   UNL     1     -11.616  14.086  63.926  0.00  0.00    +0.099 C 
ATOM      7  C   UNL     1     -12.798  14.017  64.858  0.00  0.00    -0.013 C 
ATOM      8  C   UNL     1     -10.602  11.949  66.229  0.00  0.00    +0.055 C 
ATOM      9  C   UNL     1     -11.084  12.367  67.719  0.00  0.00    +0.120 C 
ATOM     10  C   UNL     1      -9.849  13.340  68.087  0.00  0.00    +0.268 C 
ATOM     11  O   UNL     1      -9.907  13.479  69.486  0.00  0.00    -0.209 OA
ATOM     12  N   UNL     1     -10.396  11.149  68.460  0.00  0.00    -0.304 N 
ATOM     13  C   UNL     1     -10.678  11.074  69.875  0.00  0.00    +0.112 C 
ATOM     14  C   UNL     1     -10.249  10.165  67.473  0.00  0.00    +0.047 A 
ATOM     15  C   UNL     1     -10.272   8.799  67.566  0.00  0.00    +0.051 A 
ATOM     16  C   UNL     1      -9.663   8.055  66.563  0.00  0.00    +0.137 A 
ATOM     17  C   UNL     1      -8.793   8.728  65.711  0.00  0.00    +0.026 A 
ATOM     18  C   UNL     1      -8.875  10.114  65.593  0.00  0.00    -0.003 A 
ATOM     19  C   UNL     1      -9.677  10.881  66.421  0.00  0.00    -0.007 A 
ATOM     20  C   UNL     1     -10.362  14.807  67.593  0.00  0.00    +0.213 C 
ATOM     21  C   UNL     1     -12.330  14.025  66.122  0.00  0.00    -0.025 C 
ENDROOT
BRANCH  17  22
ATOM     22  C   UNL     1      -7.768   7.942  64.967  0.00  0.00    +0.146 C 
ATOM     23  C   UNL     1      -7.886   8.274  63.536  0.00  0.00    +0.068 A 
ATOM     24  C   UNL     1      -6.971   7.838  62.583  0.00  0.00    -0.005 A 
ATOM     25  C   UNL     1      -7.713   7.618  61.432  0.00  0.00    +0.015 A 
ATOM     26  C   UNL     1      -8.835   8.405  61.600  0.00  0.00    +0.081 A 
ATOM     27  C   UNL     1      -9.764   8.380  60.573  0.00  0.00    +0.019 A 
ATOM     28  C   UNL     1      -9.782   7.338  59.654  0.00  0.00    +0.002 A 
ATOM     29  C   UNL     1      -8.669   6.514  59.537  0.00  0.00    +0.000 A 
ATOM     30  C   UNL     1      -7.563   6.781  60.337  0.00  0.00    +0.001 A 
ATOM     31  C   UNL     1      -5.625   7.464  63.015  0.00  0.00    +0.045 C 
ATOM     32  C   UNL     1      -5.177   6.101  62.641  0.00  0.00    +0.077 C 
ATOM     33  N   UNL     1      -5.062   5.190  63.782  0.00  0.00    -0.270 NA
ATOM     34  C   UNL     1      -5.592   3.961  63.332  0.00  0.00    +0.103 C 
ATOM     35  C   UNL     1      -6.646   3.295  64.114  0.00  0.00    +0.141 C 
ATOM     36  C   UNL     1      -7.659   4.195  64.772  0.00  0.00    +0.033 C 
ATOM     37  C   UNL     1      -7.333   5.636  64.088  0.00  0.00    +0.020 C 
ATOM     38  O   UNL     1      -6.079   2.420  65.057  0.00  0.00    -0.224 OA
ATOM     39  C   UNL     1      -5.882   5.728  64.829  0.00  0.00    +0.072 C 
ATOM     40  N   UNL     1      -8.746   9.025  62.800  0.00  0.00    -0.249 NA
ATOM     41  C   UNL     1      -8.054   6.488  65.273  0.00  0.00    +0.022 C 
BRANCH  35  42
ATOM     42  C   UNL     1      -7.352   2.365  63.125  0.00  0.00    +0.032 C 
ATOM     43  C   UNL     1      -7.156   2.908  61.712  0.00  0.00    +0.003 C 
ENDBRANCH  35  42
BRANCH  22  44
ATOM     44  C   UNL     1      -6.461   8.368  65.551  0.00  0.00    +0.325 C 
ATOM     45  O   UNL     1      -6.047   9.534  65.269  0.00  0.00    -0.249 OA
BRANCH  44  46
ATOM     46  O   UNL     1      -6.341   8.051  66.912  0.00  0.00    -0.444 OA
ATOM     47  C   UNL     1      -5.797   9.038  67.781  0.00  0.00    +0.256 C 
ENDBRANCH  44  46
ENDBRANCH  22  44
ENDBRANCH  17  22
BRANCH  16  48
ATOM     48  O   UNL     1     -10.203   6.865  66.074  0.00  0.00    -0.472 OA
ATOM     49  C   UNL     1     -10.940   5.967  66.901  0.00  0.00    +0.252 C 
ENDBRANCH  16  48
BRANCH  10  50
ATOM     50  C   UNL     1      -8.566  13.021  67.716  0.00  0.00    +0.350 C 
ATOM     51  O   UNL     1      -7.831  12.416  68.564  0.00  0.00    -0.247 OA
BRANCH  50  52
ATOM     52  O   UNL     1      -7.808  14.075  67.162  0.00  0.00    -0.443 OA
ATOM     53  C   UNL     1      -6.621  14.552  67.711  0.00  0.00    +0.256 C 
ENDBRANCH  50  52
ENDBRANCH  10  50
BRANCH   1  55
ATOM     54  C   UNL     1     -10.254  16.202  65.801  0.00  0.00    +0.001 C 
ATOM     55  C   UNL     1     -10.787  15.647  65.430  0.00  0.00    +0.009 C 
ENDBRANCH   1  55
BRANCH  20  56
ATOM     56  O   UNL     1     -11.701  14.656  68.353  0.00  0.00    -0.449 OA
BRANCH  56  57
ATOM     57  C   UNL     1     -12.057  15.684  69.170  0.00  0.00    +0.318 C 
ATOM     58  O   UNL     1     -11.420  16.767  69.081  0.00  0.00    -0.250 OA
ATOM     59  C   UNL     1     -12.693  15.353  70.480  0.00  0.00    +0.121 C 
ENDBRANCH  56  57
ENDBRANCH  20  56
TORSDOF 10
ENDMDL
MODEL 6
REMARK VINA RESULT:      -5.4      3.777      7.177
REMARK  Name = 
REMARK  10 active torsions:
REMARK  status: ('A' for Active; 'I' for Inactive)
REMARK    1  A    between atoms: C_2  and  C_3
REMARK    2  A    between atoms: C_13  and  C_14
REMARK    3  A    between atoms: C_14  and  C_15
REMARK    4  A    between atoms: C_15  and  O_17
REMARK    5  A    between atoms: C_24  and  C_26
REMARK    6  A    between atoms: C_40  and  O_41
REMARK    7  A    between atoms: C_48  and  C_50
REMARK    8  A    between atoms: C_50  and  O_52
REMARK    9  A    between atoms: C_54  and  O_55
REMARK   10  A    between atoms: O_55  and  C_56
REMARK                            x       y       z     vdW  Elec       q    Type
REMARK                         _______ _______ _______ _____ _____    ______ ____
ROOT
ATOM      1  C   UNL     1      -5.607  19.216  67.867  0.00  0.00    +0.072 C 
ATOM      2  C   UNL     1      -6.166  17.757  67.429  0.00  0.00    +0.070 C 
ATOM      3  N   UNL     1      -7.583  17.969  68.060  0.00  0.00    -0.269 NA
ATOM      4  C   UNL     1      -7.754  16.920  68.972  0.00  0.00    +0.073 C 
ATOM      5  C   UNL     1      -6.483  17.147  69.792  0.00  0.00    +0.024 C 
ATOM      6  C   UNL     1      -7.900  19.255  68.385  0.00  0.00    +0.099 C 
ATOM      7  C   UNL     1      -7.045  19.793  69.504  0.00  0.00    -0.013 C 
ATOM      8  C   UNL     1      -5.563  16.943  68.690  0.00  0.00    +0.055 C 
ATOM      9  C   UNL     1      -4.102  17.575  68.995  0.00  0.00    +0.120 C 
ATOM     10  C   UNL     1      -3.646  17.825  67.466  0.00  0.00    +0.268 C 
ATOM     11  O   UNL     1      -2.251  18.004  67.534  0.00  0.00    -0.209 OA
ATOM     12  N   UNL     1      -3.333  16.192  69.039  0.00  0.00    -0.304 N 
ATOM     13  C   UNL     1      -1.939  16.294  69.406  0.00  0.00    +0.112 C 
ATOM     14  C   UNL     1      -4.321  15.241  69.333  0.00  0.00    +0.047 A 
ATOM     15  C   UNL     1      -4.245  14.064  70.029  0.00  0.00    +0.051 A 
ATOM     16  C   UNL     1      -5.216  13.096  69.803  0.00  0.00    +0.137 A 
ATOM     17  C   UNL     1      -6.004  13.239  68.666  0.00  0.00    +0.026 A 
ATOM     18  C   UNL     1      -6.111  14.485  68.051  0.00  0.00    -0.003 A 
ATOM     19  C   UNL     1      -5.326  15.563  68.422  0.00  0.00    -0.007 A 
ATOM     20  C   UNL     1      -4.154  19.345  67.163  0.00  0.00    +0.213 C 
ATOM     21  C   UNL     1      -5.754  19.597  69.169  0.00  0.00    -0.025 C 
ENDROOT
BRANCH  17  22
ATOM     22  C   UNL     1      -6.691  12.037  68.115  0.00  0.00    +0.146 C 
ATOM     23  C   UNL     1      -7.748  12.494  67.195  0.00  0.00    +0.068 A 
ATOM     24  C   UNL     1      -8.472  11.623  66.386  0.00  0.00    -0.005 A 
ATOM     25  C   UNL     1      -9.748  12.162  66.314  0.00  0.00    +0.015 A 
ATOM     26  C   UNL     1      -9.565  13.499  66.602  0.00  0.00    +0.081 A 
ATOM     27  C   UNL     1     -10.700  14.293  66.594  0.00  0.00    +0.019 A 
ATOM     28  C   UNL     1     -11.965  13.729  66.709  0.00  0.00    +0.002 A 
ATOM     29  C   UNL     1     -12.126  12.367  66.477  0.00  0.00    +0.000 A 
ATOM     30  C   UNL     1     -11.009  11.622  66.113  0.00  0.00    +0.001 A 
ATOM     31  C   UNL     1      -7.895  10.321  66.056  0.00  0.00    +0.045 C 
ATOM     32  C   UNL     1      -8.725   9.138  66.390  0.00  0.00    +0.077 C 
ATOM     33  N   UNL     1      -8.187   8.339  67.492  0.00  0.00    -0.270 NA
ATOM     34  C   UNL     1      -9.305   7.987  68.278  0.00  0.00    +0.103 C 
ATOM     35  C   UNL     1      -9.293   8.265  69.724  0.00  0.00    +0.141 C 
ATOM     36  C   UNL     1      -8.618   9.542  70.153  0.00  0.00    +0.033 C 
ATOM     37  C   UNL     1      -8.394  10.306  68.732  0.00  0.00    +0.020 C 
ATOM     38  O   UNL     1      -8.766   7.169  70.430  0.00  0.00    -0.224 OA
ATOM     39  C   UNL     1      -7.307   9.194  68.237  0.00  0.00    +0.072 C 
ATOM     40  N   UNL     1      -8.250  13.708  66.849  0.00  0.00    -0.249 NA
ATOM     41  C   UNL     1      -7.221  11.275  69.310  0.00  0.00    +0.022 C 
BRANCH  35  42
ATOM     42  C   UNL     1     -10.765   8.299  70.139  0.00  0.00    +0.032 C 
ATOM     43  C   UNL     1     -10.909   9.189  71.370  0.00  0.00    +0.003 C 
ENDBRANCH  35  42
BRANCH  22  44
ATOM     44  C   UNL     1      -5.616  11.267  67.420  0.00  0.00    +0.325 C 
ATOM     45  O   UNL     1      -4.991  11.851  66.482  0.00  0.00    -0.249 OA
BRANCH  44  46
ATOM     46  O   UNL     1      -4.771  10.584  68.307  0.00  0.00    -0.444 OA
ATOM     47  C   UNL     1      -3.402  10.438  67.946  0.00  0.00    +0.256 C 
ENDBRANCH  44  46
ENDBRANCH  22  44
ENDBRANCH  17  22
BRANCH  16  48
ATOM     48  O   UNL     1      -5.751  12.314  70.826  0.00  0.00    -0.472 OA
ATOM     49  C   UNL     1      -4.938  11.718  71.834  0.00  0.00    +0.252 C 
ENDBRANCH  16  48
BRANCH  10  50
ATOM     50  C   UNL     1      -3.939  16.911  66.485  0.00  0.00    +0.350 C 
ATOM     51  O   UNL     1      -3.044  16.057  66.176  0.00  0.00    -0.247 OA
BRANCH  50  52
ATOM     52  O   UNL     1      -4.459  17.444  65.286  0.00  0.00    -0.443 OA
ATOM     53  C   UNL     1      -3.680  17.784  64.182  0.00  0.00    +0.256 C 
ENDBRANCH  50  52
ENDBRANCH  10  50
BRANCH   1  55
ATOM     54  C   UNL     1      -5.929  20.454  66.266  0.00  0.00    +0.001 C 
ATOM     55  C   UNL     1      -6.329  20.241  66.990  0.00  0.00    +0.009 C 
ENDBRANCH   1  55
BRANCH  20  56
ATOM     56  O   UNL     1      -3.481  19.885  68.448  0.00  0.00    -0.449 OA
BRANCH  56  57
ATOM     57  C   UNL     1      -2.591  20.901  68.287  0.00  0.00    +0.318 C 
ATOM     58  O   UNL     1      -2.262  21.574  69.300  0.00  0.00    -0.250 OA
ATOM     59  C   UNL     1      -2.517  21.566  66.952  0.00  0.00    +0.121 C 
ENDBRANCH  56  57
ENDBRANCH  20  56
TORSDOF 10
ENDMDL
MODEL 7
REMARK VINA RESULT:      -5.3      2.125      2.876
REMARK  Name = 
REMARK  10 active torsions:
REMARK  status: ('A' for Active; 'I' for Inactive)
REMARK    1  A    between atoms: C_2  and  C_3
REMARK    2  A    between atoms: C_13  and  C_14
REMARK    3  A    between atoms: C_14  and  C_15
REMARK    4  A    between atoms: C_15  and  O_17
REMARK    5  A    between atoms: C_24  and  C_26
REMARK    6  A    between atoms: C_40  and  O_41
REMARK    7  A    between atoms: C_48  and  C_50
REMARK    8  A    between atoms: C_50  and  O_52
REMARK    9  A    between atoms: C_54  and  O_55
REMARK   10  A    between atoms: O_55  and  C_56
REMARK                            x       y       z     vdW  Elec       q    Type
REMARK                         _______ _______ _______ _____ _____    ______ ____
ROOT
ATOM      1  C   UNL     1      -8.540  13.920  67.980  0.00  0.00    +0.072 C 
ATOM      2  C   UNL     1      -8.713  12.408  68.542  0.00  0.00    +0.070 C 
ATOM      3  N   UNL     1      -7.234  12.288  69.042  0.00  0.00    -0.269 NA
ATOM      4  C   UNL     1      -6.699  11.173  68.385  0.00  0.00    +0.073 C 
ATOM      5  C   UNL     1      -7.015  11.602  66.952  0.00  0.00    +0.024 C 
ATOM      6  C   UNL     1      -6.543  13.460  69.132  0.00  0.00    +0.099 C 
ATOM      7  C   UNL     1      -6.301  14.092  67.785  0.00  0.00    -0.013 C 
ATOM      8  C   UNL     1      -8.453  11.658  67.132  0.00  0.00    +0.055 C 
ATOM      9  C   UNL     1      -9.173  12.553  65.989  0.00  0.00    +0.120 C 
ATOM     10  C   UNL     1     -10.479  12.984  66.837  0.00  0.00    +0.268 C 
ATOM     11  O   UNL     1     -11.398  13.438  65.872  0.00  0.00    -0.209 OA
ATOM     12  N   UNL     1      -9.959  11.355  65.315  0.00  0.00    -0.304 N 
ATOM     13  C   UNL     1     -10.690  11.716  64.123  0.00  0.00    +0.112 C 
ATOM     14  C   UNL     1      -9.235  10.208  65.669  0.00  0.00    +0.047 A 
ATOM     15  C   UNL     1      -9.047   9.030  64.996  0.00  0.00    +0.051 A 
ATOM     16  C   UNL     1      -8.688   7.901  65.722  0.00  0.00    +0.137 A 
ATOM     17  C   UNL     1      -8.861   7.950  67.101  0.00  0.00    +0.026 A 
ATOM     18  C   UNL     1      -8.960   9.183  67.742  0.00  0.00    -0.003 A 
ATOM     19  C   UNL     1      -9.066  10.374  67.044  0.00  0.00    -0.007 A 
ATOM     20  C   UNL     1     -10.029  14.385  67.541  0.00  0.00    +0.213 C 
ATOM     21  C   UNL     1      -7.488  14.183  67.152  0.00  0.00    -0.025 C 
ENDROOT
BRANCH  17  22
ATOM     22  C   UNL     1      -8.968   6.669  67.855  0.00  0.00    +0.146 C 
ATOM     23  C   UNL     1      -9.215   6.990  69.272  0.00  0.00    +0.068 A 
ATOM     24  C   UNL     1      -9.527   6.022  70.222  0.00  0.00    -0.005 A 
ATOM     25  C   UNL     1      -8.935   6.456  71.398  0.00  0.00    +0.015 A 
ATOM     26  C   UNL     1      -8.793   7.817  71.223  0.00  0.00    +0.081 A 
ATOM     27  C   UNL     1      -8.221   8.519  72.271  0.00  0.00    +0.019 A 
ATOM     28  C   UNL     1      -7.465   7.865  73.237  0.00  0.00    +0.002 A 
ATOM     29  C   UNL     1      -7.570   6.485  73.363  0.00  0.00    +0.000 A 
ATOM     30  C   UNL     1      -8.452   5.809  72.526  0.00  0.00    +0.001 A 
ATOM     31  C   UNL     1     -10.097   4.752  69.775  0.00  0.00    +0.045 C 
ATOM     32  C   UNL     1      -9.374   3.529  70.199  0.00  0.00    +0.077 C 
ATOM     33  N   UNL     1      -8.701   2.837  69.099  0.00  0.00    -0.270 NA
ATOM     34  C   UNL     1      -7.448   2.444  69.615  0.00  0.00    +0.103 C 
ATOM     35  C   UNL     1      -6.218   2.803  68.890  0.00  0.00    +0.141 C 
ATOM     36  C   UNL     1      -6.209   4.150  68.216  0.00  0.00    +0.033 C 
ATOM     37  C   UNL     1      -7.548   4.848  68.827  0.00  0.00    +0.020 C 
ATOM     38  O   UNL     1      -5.877   1.792  67.974  0.00  0.00    -0.224 OA
ATOM     39  C   UNL     1      -8.524   3.798  68.048  0.00  0.00    +0.072 C 
ATOM     40  N   UNL     1      -9.261   8.140  69.994  0.00  0.00    -0.249 NA
ATOM     41  C   UNL     1      -7.666   5.936  67.622  0.00  0.00    +0.022 C 
BRANCH  35  42
ATOM     42  C   UNL     1      -5.103   2.745  69.936  0.00  0.00    +0.032 C 
ATOM     43  C   UNL     1      -5.719   2.914  71.322  0.00  0.00    +0.003 C 
ENDBRANCH  35  42
BRANCH  22  44
ATOM     44  C   UNL     1     -10.113   5.947  67.221  0.00  0.00    +0.325 C 
ATOM     45  O   UNL     1     -11.192   6.594  67.054  0.00  0.00    -0.249 OA
BRANCH  44  46
ATOM     46  O   UNL     1      -9.733   5.201  66.096  0.00  0.00    -0.444 OA
ATOM     47  C   UNL     1     -10.754   4.530  65.365  0.00  0.00    +0.256 C 
ENDBRANCH  44  46
ENDBRANCH  22  44
ENDBRANCH  17  22
BRANCH  16  48
ATOM     48  O   UNL     1      -7.767   6.965  65.251  0.00  0.00    -0.472 OA
ATOM     49  C   UNL     1      -7.553   6.741  63.860  0.00  0.00    +0.252 C 
ENDBRANCH  16  48
BRANCH  10  50
ATOM     50  C   UNL     1     -11.103  12.091  67.673  0.00  0.00    +0.350 C 
ATOM     51  O   UNL     1     -12.087  11.426  67.210  0.00  0.00    -0.247 OA
BRANCH  50  52
ATOM     52  O   UNL     1     -11.477  12.594  68.937  0.00  0.00    -0.443 OA
ATOM     53  C   UNL     1     -11.969  11.805  69.974  0.00  0.00    +0.256 C 
ENDBRANCH  50  52
ENDBRANCH  10  50
BRANCH   1  55
ATOM     54  C   UNL     1      -9.121  15.262  69.415  0.00  0.00    +0.001 C 
ATOM     55  C   UNL     1      -8.416  14.828  69.204  0.00  0.00    +0.009 C 
ENDBRANCH   1  55
BRANCH  20  56
ATOM     56  O   UNL     1      -9.545  14.970  66.193  0.00  0.00    -0.449 OA
BRANCH  56  57
ATOM     57  C   UNL     1      -9.931  16.243  65.909  0.00  0.00    +0.318 C 
ATOM     58  O   UNL     1     -10.627  16.442  64.878  0.00  0.00    -0.250 OA
ATOM     59  C   UNL     1      -9.073  17.363  66.400  0.00  0.00    +0.121 C 
ENDBRANCH  56  57
ENDBRANCH  20  56
TORSDOF 10
ENDMDL
MODEL 8
REMARK VINA RESULT:      -5.2      4.780      9.353
REMARK  Name = 
REMARK  10 active torsions:
REMARK  status: ('A' for Active; 'I' for Inactive)
REMARK    1  A    between atoms: C_2  and  C_3
REMARK    2  A    between atoms: C_13  and  C_14
REMARK    3  A    between atoms: C_14  and  C_15
REMARK    4  A    between atoms: C_15  and  O_17
REMARK    5  A    between atoms: C_24  and  C_26
REMARK    6  A    between atoms: C_40  and  O_41
REMARK    7  A    between atoms: C_48  and  C_50
REMARK    8  A    between atoms: C_50  and  O_52
REMARK    9  A    between atoms: C_54  and  O_55
REMARK   10  A    between atoms: O_55  and  C_56
REMARK                            x       y       z     vdW  Elec       q    Type
REMARK                         _______ _______ _______ _____ _____    ______ ____
ROOT
ATOM      1  C   UNL     1     -10.224   6.389  72.132  0.00  0.00    +0.072 C 
ATOM      2  C   UNL     1      -9.387   6.894  70.837  0.00  0.00    +0.070 C 
ATOM      3  N   UNL     1     -10.439   7.976  70.420  0.00  0.00    -0.269 NA
ATOM      4  C   UNL     1     -10.812   7.657  69.108  0.00  0.00    +0.073 C 
ATOM      5  C   UNL     1     -11.228   6.206  69.355  0.00  0.00    +0.024 C 
ATOM      6  C   UNL     1     -11.366   8.296  71.367  0.00  0.00    +0.099 C 
ATOM      7  C   UNL     1     -12.295   7.150  71.674  0.00  0.00    -0.013 C 
ATOM      8  C   UNL     1      -9.928   5.761  69.817  0.00  0.00    +0.055 C 
ATOM      9  C   UNL     1     -10.024   4.382  70.663  0.00  0.00    +0.120 C 
ATOM     10  C   UNL     1      -8.696   4.579  71.560  0.00  0.00    +0.268 C 
ATOM     11  O   UNL     1      -8.414   3.297  72.068  0.00  0.00    -0.209 OA
ATOM     12  N   UNL     1      -9.233   3.494  69.617  0.00  0.00    -0.304 N 
ATOM     13  C   UNL     1      -9.174   2.089  69.949  0.00  0.00    +0.112 C 
ATOM     14  C   UNL     1      -9.368   4.172  68.397  0.00  0.00    +0.047 A 
ATOM     15  C   UNL     1      -9.428   3.695  67.115  0.00  0.00    +0.051 A 
ATOM     16  C   UNL     1      -9.107   4.555  66.072  0.00  0.00    +0.137 A 
ATOM     17  C   UNL     1      -8.436   5.728  66.398  0.00  0.00    +0.026 A 
ATOM     18  C   UNL     1      -8.484   6.212  67.704  0.00  0.00    -0.003 A 
ATOM     19  C   UNL     1      -9.032   5.481  68.744  0.00  0.00    -0.007 A 
ATOM     20  C   UNL     1      -9.247   5.343  72.891  0.00  0.00    +0.213 C 
ATOM     21  C   UNL     1     -11.540   6.072  71.965  0.00  0.00    -0.025 C 
ENDROOT
BRANCH  17  22
ATOM     22  C   UNL     1      -7.653   6.424  65.338  0.00  0.00    +0.146 C 
ATOM     23  C   UNL     1      -8.002   7.855  65.374  0.00  0.00    +0.068 A 
ATOM     24  C   UNL     1      -7.330   8.815  64.625  0.00  0.00    -0.005 A 
ATOM     25  C   UNL     1      -8.292   9.749  64.273  0.00  0.00    +0.015 A 
ATOM     26  C   UNL     1      -9.278   9.592  65.226  0.00  0.00    +0.081 A 
ATOM     27  C   UNL     1     -10.381  10.422  65.115  0.00  0.00    +0.019 A 
ATOM     28  C   UNL     1     -10.675  11.060  63.917  0.00  0.00    +0.002 A 
ATOM     29  C   UNL     1      -9.692  11.159  62.939  0.00  0.00    +0.000 A 
ATOM     30  C   UNL     1      -8.434  10.630  63.211  0.00  0.00    +0.001 A 
ATOM     31  C   UNL     1      -5.971   8.529  64.166  0.00  0.00    +0.045 C 
ATOM     32  C   UNL     1      -5.740   8.643  62.705  0.00  0.00    +0.077 C 
ATOM     33  N   UNL     1      -5.506   7.356  62.048  0.00  0.00    -0.270 NA
ATOM     34  C   UNL     1      -6.230   7.418  60.839  0.00  0.00    +0.103 C 
ATOM     35  C   UNL     1      -7.181   6.345  60.506  0.00  0.00    +0.141 C 
ATOM     36  C   UNL     1      -7.958   5.760  61.656  0.00  0.00    +0.033 C 
ATOM     37  C   UNL     1      -7.623   6.803  62.862  0.00  0.00    +0.020 C 
ATOM     38  O   UNL     1      -6.539   5.328  59.778  0.00  0.00    -0.224 OA
ATOM     39  C   UNL     1      -6.057   6.345  62.904  0.00  0.00    +0.072 C 
ATOM     40  N   UNL     1      -8.905   8.598  66.066  0.00  0.00    -0.249 NA
ATOM     41  C   UNL     1      -8.020   5.748  64.036  0.00  0.00    +0.022 C 
BRANCH  35  42
ATOM     42  C   UNL     1      -8.150   6.965  59.496  0.00  0.00    +0.032 C 
ATOM     43  C   UNL     1      -8.473   8.390  59.936  0.00  0.00    +0.003 C 
ENDBRANCH  35  42
BRANCH  22  44
ATOM     44  C   UNL     1      -6.223   6.171  65.691  0.00  0.00    +0.325 C 
ATOM     45  O   UNL     1      -5.759   6.767  66.712  0.00  0.00    -0.249 OA
BRANCH  44  46
ATOM     46  O   UNL     1      -5.878   4.813  65.636  0.00  0.00    -0.444 OA
ATOM     47  C   UNL     1      -5.079   4.285  66.689  0.00  0.00    +0.256 C 
ENDBRANCH  44  46
ENDBRANCH  22  44
ENDBRANCH  17  22
BRANCH  16  48
ATOM     48  O   UNL     1      -9.799   4.559  64.861  0.00  0.00    -0.472 OA
ATOM     49  C   UNL     1     -10.452   3.398  64.352  0.00  0.00    +0.252 C 
ENDBRANCH  16  48
BRANCH  10  50
ATOM     50  C   UNL     1      -7.553   5.113  71.018  0.00  0.00    +0.350 C 
ATOM     51  O   UNL     1      -6.665   4.309  70.582  0.00  0.00    -0.247 OA
BRANCH  50  52
ATOM     52  O   UNL     1      -6.903   6.091  71.801  0.00  0.00    -0.443 OA
ATOM     53  C   UNL     1      -5.680   6.669  71.467  0.00  0.00    +0.256 C 
ENDBRANCH  50  52
ENDBRANCH  10  50
BRANCH   1  55
ATOM     54  C   UNL     1      -9.418   7.532  73.630  0.00  0.00    +0.001 C 
ATOM     55  C   UNL     1     -10.137   7.510  73.171  0.00  0.00    +0.009 C 
ENDBRANCH   1  55
BRANCH  20  56
ATOM     56  O   UNL     1     -10.372   4.300  73.090  0.00  0.00    -0.449 OA
BRANCH  56  57
ATOM     57  C   UNL     1     -10.594   3.881  74.365  0.00  0.00    +0.318 C 
ATOM     58  O   UNL     1     -10.541   4.731  75.293  0.00  0.00    -0.250 OA
ATOM     59  C   UNL     1     -10.285   2.459  74.702  0.00  0.00    +0.121 C 
ENDBRANCH  56  57
ENDBRANCH  20  56
TORSDOF 10
ENDMDL
MODEL 9
REMARK VINA RESULT:      -5.1      3.716      6.627
REMARK  Name = 
REMARK  10 active torsions:
REMARK  status: ('A' for Active; 'I' for Inactive)
REMARK    1  A    between atoms: C_2  and  C_3
REMARK    2  A    between atoms: C_13  and  C_14
REMARK    3  A    between atoms: C_14  and  C_15
REMARK    4  A    between atoms: C_15  and  O_17
REMARK    5  A    between atoms: C_24  and  C_26
REMARK    6  A    between atoms: C_40  and  O_41
REMARK    7  A    between atoms: C_48  and  C_50
REMARK    8  A    between atoms: C_50  and  O_52
REMARK    9  A    between atoms: C_54  and  O_55
REMARK   10  A    between atoms: O_55  and  C_56
REMARK                            x       y       z     vdW  Elec       q    Type
REMARK                         _______ _______ _______ _____ _____    ______ ____
ROOT
ATOM      1  C   UNL     1     -11.030  14.040  66.083  0.00  0.00    +0.072 C 
ATOM      2  C   UNL     1      -9.872  13.210  65.308  0.00  0.00    +0.070 C 
ATOM      3  N   UNL     1     -10.707  13.022  63.997  0.00  0.00    -0.269 NA
ATOM      4  C   UNL     1     -10.780  11.639  63.787  0.00  0.00    +0.073 C 
ATOM      5  C   UNL     1     -11.354  11.251  65.150  0.00  0.00    +0.024 C 
ATOM      6  C   UNL     1     -11.805  13.820  63.875  0.00  0.00    +0.099 C 
ATOM      7  C   UNL     1     -12.867  13.498  64.895  0.00  0.00    -0.013 C 
ATOM      8  C   UNL     1     -10.240  11.761  65.926  0.00  0.00    +0.055 C 
ATOM      9  C   UNL     1     -10.642  12.005  67.477  0.00  0.00    +0.120 C 
ATOM     10  C   UNL     1      -9.554  13.153  67.809  0.00  0.00    +0.268 C 
ATOM     11  O   UNL     1      -9.502  13.200  69.214  0.00  0.00    -0.209 OA
ATOM     12  N   UNL     1      -9.696  10.883  68.069  0.00  0.00    -0.304 N 
ATOM     13  C   UNL     1      -9.826  10.681  69.494  0.00  0.00    +0.112 C 
ATOM     14  C   UNL     1      -9.483   9.995  67.005  0.00  0.00    +0.047 A 
ATOM     15  C   UNL     1      -9.272   8.642  67.002  0.00  0.00    +0.051 A 
ATOM     16  C   UNL     1      -8.646   8.071  65.900  0.00  0.00    +0.137 A 
ATOM     17  C   UNL     1      -7.983   8.929  65.029  0.00  0.00    +0.026 A 
ATOM     18  C   UNL     1      -8.303  10.285  65.018  0.00  0.00    -0.003 A 
ATOM     19  C   UNL     1      -9.139  10.856  65.962  0.00  0.00    -0.007 A 
ATOM     20  C   UNL     1     -10.346  14.536  67.466  0.00  0.00    +0.213 C 
ATOM     21  C   UNL     1     -12.289  13.515  66.113  0.00  0.00    -0.025 C 
ENDROOT
BRANCH  17  22
ATOM     22  C   UNL     1      -6.918   8.372  64.148  0.00  0.00    +0.146 C 
ATOM     23  C   UNL     1      -7.456   8.285  62.778  0.00  0.00    +0.068 A 
ATOM     24  C   UNL     1      -6.668   7.960  61.678  0.00  0.00    -0.005 A 
ATOM     25  C   UNL     1      -7.495   7.230  60.836  0.00  0.00    +0.015 A 
ATOM     26  C   UNL     1      -8.769   7.614  61.200  0.00  0.00    +0.081 A 
ATOM     27  C   UNL     1      -9.812   7.031  60.500  0.00  0.00    +0.019 A 
ATOM     28  C   UNL     1      -9.623   5.852  59.791  0.00  0.00    +0.002 A 
ATOM     29  C   UNL     1      -8.330   5.443  59.483  0.00  0.00    +0.000 A 
ATOM     30  C   UNL     1      -7.269   6.250  59.882  0.00  0.00    +0.001 A 
ATOM     31  C   UNL     1      -5.224   8.173  61.756  0.00  0.00    +0.045 C 
ATOM     32  C   UNL     1      -4.376   6.989  61.476  0.00  0.00    +0.077 C 
ATOM     33  N   UNL     1      -3.679   6.477  62.658  0.00  0.00    -0.270 NA
ATOM     34  C   UNL     1      -3.777   5.072  62.569  0.00  0.00    +0.103 C 
ATOM     35  C   UNL     1      -4.301   4.305  63.710  0.00  0.00    +0.141 C 
ATOM     36  C   UNL     1      -5.418   4.948  64.490  0.00  0.00    +0.033 C 
ATOM     37  C   UNL     1      -5.826   6.202  63.534  0.00  0.00    +0.020 C 
ATOM     38  O   UNL     1      -3.254   3.928  64.570  0.00  0.00    -0.224 OA
ATOM     39  C   UNL     1      -4.401   6.951  63.805  0.00  0.00    +0.072 C 
ATOM     40  N   UNL     1      -8.674   8.503  62.217  0.00  0.00    -0.249 NA
ATOM     41  C   UNL     1      -6.549   7.028  64.736  0.00  0.00    +0.022 C 
BRANCH  35  42
ATOM     42  C   UNL     1      -4.787   2.981  63.117  0.00  0.00    +0.032 C 
ATOM     43  C   UNL     1      -5.080   3.185  61.633  0.00  0.00    +0.003 C 
ENDBRANCH  35  42
BRANCH  22  44
ATOM     44  C   UNL     1      -5.784   9.339  64.261  0.00  0.00    +0.325 C 
ATOM     45  O   UNL     1      -5.916  10.463  63.687  0.00  0.00    -0.249 OA
BRANCH  44  46
ATOM     46  O   UNL     1      -5.278   9.437  65.565  0.00  0.00    -0.444 OA
ATOM     47  C   UNL     1      -4.766  10.696  65.989  0.00  0.00    +0.256 C 
ENDBRANCH  44  46
ENDBRANCH  22  44
ENDBRANCH  17  22
BRANCH  16  48
ATOM     48  O   UNL     1      -9.026   6.836  65.375  0.00  0.00    -0.472 OA
ATOM     49  C   UNL     1      -9.574   5.799  66.187  0.00  0.00    +0.252 C 
ENDBRANCH  16  48
BRANCH  10  50
ATOM     50  C   UNL     1      -8.277  13.078  67.310  0.00  0.00    +0.350 C 
ATOM     51  O   UNL     1      -7.401  12.459  67.999  0.00  0.00    -0.247 OA
BRANCH  50  52
ATOM     52  O   UNL     1      -7.712  14.300  66.889  0.00  0.00    -0.443 OA
ATOM     53  C   UNL     1      -6.772  15.018  67.625  0.00  0.00    +0.256 C 
ENDBRANCH  50  52
ENDBRANCH  10  50
BRANCH   1  55
ATOM     54  C   UNL     1     -10.562  16.000  65.709  0.00  0.00    +0.001 C 
ATOM     55  C   UNL     1     -11.106  15.412  65.412  0.00  0.00    +0.009 C 
ENDBRANCH   1  55
BRANCH  20  56
ATOM     56  O   UNL     1     -11.564  14.116  68.323  0.00  0.00    -0.449 OA
BRANCH  56  57
ATOM     57  C   UNL     1     -12.062  15.054  69.173  0.00  0.00    +0.318 C 
ATOM     58  O   UNL     1     -11.726  16.256  69.002  0.00  0.00    -0.250 OA
ATOM     59  C   UNL     1     -12.440  14.623  70.552  0.00  0.00    +0.121 C 
ENDBRANCH  56  57
ENDBRANCH  20  56
TORSDOF 10
ENDMDL
