MODEL 1
REMARK VINA RESULT:      -5.5      0.000      0.000
REMARK  Name = 
REMARK  4 active torsions:
REMARK  status: ('A' for Active; 'I' for Inactive)
REMARK    1  A    between atoms: O_2  and  C_3
REMARK    2  A    between atoms: C_3  and  C_5
REMARK    3  A    between atoms: C_5  and  C_6
REMARK    4  A    between atoms: C_5  and  C_12
REMARK                            x       y       z     vdW  Elec       q    Type
REMARK                         _______ _______ _______ _____ _____    ______ ____
ROOT
ATOM      1  C   UNL     1     -11.434  16.426  67.886  0.00  0.00    +0.137 C 
ENDROOT
BRANCH   1   2
ATOM      2  C   UNL     1     -10.554  15.049  67.305  0.00  0.00    +0.087 C 
ATOM      3  N   UNL     1     -11.031  15.289  65.818  0.00  0.00    -0.219 NA
ATOM      4  C   UNL     1     -10.266  14.233  65.153  0.00  0.00    +0.089 C 
ATOM      5  C   UNL     1     -10.463  12.899  65.840  0.00  0.00    +0.019 C 
ATOM      6  C   UNL     1     -11.659  12.857  66.730  0.00  0.00    +0.003 C 
ATOM      7  C   UNL     1     -11.834  14.059  67.607  0.00  0.00    +0.018 C 
ENDBRANCH   1   2
BRANCH   1   8
ATOM      8  C   UNL     1     -10.175  17.417  67.658  0.00  0.00    -0.011 A 
ATOM      9  C   UNL     1     -10.365  18.086  66.450  0.00  0.00    -0.004 A 
ATOM     10  C   UNL     1     -10.113  19.446  66.311  0.00  0.00    -0.000 A 
ATOM     11  C   UNL     1      -9.276  20.015  67.264  0.00  0.00    -0.000 A 
ATOM     12  C   UNL     1      -9.038  19.327  68.448  0.00  0.00    -0.000 A 
ATOM     13  C   UNL     1      -9.913  18.282  68.716  0.00  0.00    -0.004 A 
ENDBRANCH   1   8
BRANCH   1  14
ATOM     14  C   UNL     1     -11.052  16.087  69.415  0.00  0.00    +0.322 C 
ATOM     15  O   UNL     1      -9.886  15.795  69.665  0.00  0.00    -0.250 OA
BRANCH  14  17
ATOM     16  C   UNL     1     -11.825  16.012  71.583  0.00  0.00    +0.256 C 
ATOM     17  O   UNL     1     -12.092  16.203  70.313  0.00  0.00    -0.444 OA
ENDBRANCH  14  17
ENDBRANCH   1  14
TORSDOF 4
ENDMDL
MODEL 2
REMARK VINA RESULT:      -5.5      1.817      4.312
REMARK  Name = 
REMARK  4 active torsions:
REMARK  status: ('A' for Active; 'I' for Inactive)
REMARK    1  A    between atoms: O_2  and  C_3
REMARK    2  A    between atoms: C_3  and  C_5
REMARK    3  A    between atoms: C_5  and  C_6
REMARK    4  A    between atoms: C_5  and  C_12
REMARK                            x       y       z     vdW  Elec       q    Type
REMARK                         _______ _______ _______ _____ _____    ______ ____
ROOT
ATOM      1  C   UNL     1     -10.544  14.736  68.642  0.00  0.00    +0.137 C 
ENDROOT
BRANCH   1   2
ATOM      2  C   UNL     1     -11.404  14.851  67.141  0.00  0.00    +0.087 C 
ATOM      3  N   UNL     1     -11.565  13.284  67.037  0.00  0.00    -0.219 NA
ATOM      4  C   UNL     1     -12.391  13.212  65.830  0.00  0.00    +0.089 C 
ATOM      5  C   UNL     1     -11.785  14.020  64.703  0.00  0.00    +0.019 C 
ATOM      6  C   UNL     1     -10.345  14.345  64.909  0.00  0.00    +0.003 C 
ATOM      7  C   UNL     1      -9.996  14.812  66.289  0.00  0.00    +0.018 C 
ENDBRANCH   1   2
BRANCH   1   8
ATOM      8  C   UNL     1     -11.906  14.812  69.512  0.00  0.00    -0.011 A 
ATOM      9  C   UNL     1     -12.212  13.525  69.948  0.00  0.00    -0.004 A 
ATOM     10  C   UNL     1     -12.645  13.268  71.244  0.00  0.00    -0.000 A 
ATOM     11  C   UNL     1     -13.166  14.350  71.943  0.00  0.00    -0.000 A 
ATOM     12  C   UNL     1     -12.911  15.636  71.480  0.00  0.00    -0.000 A 
ATOM     13  C   UNL     1     -11.887  15.741  70.547  0.00  0.00    -0.004 A 
ENDBRANCH   1   8
BRANCH   1  14
ATOM     14  C   UNL     1     -10.286  16.327  68.673  0.00  0.00    +0.322 C 
ATOM     15  O   UNL     1     -11.238  17.069  68.451  0.00  0.00    -0.250 OA
BRANCH  14  17
ATOM     16  C   UNL     1      -8.439  17.645  68.275  0.00  0.00    +0.256 C 
ATOM     17  O   UNL     1      -8.997  16.701  68.995  0.00  0.00    -0.444 OA
ENDBRANCH  14  17
ENDBRANCH   1  14
TORSDOF 4
ENDMDL
MODEL 3
REMARK VINA RESULT:      -5.4      1.572      4.084
REMARK  Name = 
REMARK  4 active torsions:
REMARK  status: ('A' for Active; 'I' for Inactive)
REMARK    1  A    between atoms: O_2  and  C_3
REMARK    2  A    between atoms: C_3  and  C_5
REMARK    3  A    between atoms: C_5  and  C_6
REMARK    4  A    between atoms: C_5  and  C_12
REMARK                            x       y       z     vdW  Elec       q    Type
REMARK                         _______ _______ _______ _____ _____    ______ ____
ROOT
ATOM      1  C   UNL     1     -10.302  14.887  68.616  0.00  0.00    +0.137 C 
ENDROOT
BRANCH   1   2
ATOM      2  C   UNL     1     -11.208  15.144  67.160  0.00  0.00    +0.087 C 
ATOM      3  N   UNL     1     -11.644  13.628  67.086  0.00  0.00    -0.219 NA
ATOM      4  C   UNL     1     -12.534  13.696  65.925  0.00  0.00    +0.089 C 
ATOM      5  C   UNL     1     -11.859  14.381  64.757  0.00  0.00    +0.019 C 
ATOM      6  C   UNL     1     -10.374  14.451  64.884  0.00  0.00    +0.003 C 
ATOM      7  C   UNL     1      -9.876  14.857  66.237  0.00  0.00    +0.018 C 
ENDBRANCH   1   2
BRANCH   1   8
ATOM      8  C   UNL     1     -11.596  15.140  69.552  0.00  0.00    -0.011 A 
ATOM      9  C   UNL     1     -12.154  13.901  69.862  0.00  0.00    -0.004 A 
ATOM     10  C   UNL     1     -12.600  13.590  71.142  0.00  0.00    -0.000 A 
ATOM     11  C   UNL     1     -12.866  14.669  71.977  0.00  0.00    -0.000 A 
ATOM     12  C   UNL     1     -12.359  15.920  71.644  0.00  0.00    -0.000 A 
ATOM     13  C   UNL     1     -11.359  15.920  70.680  0.00  0.00    -0.004 A 
ENDBRANCH   1   8
BRANCH   1  14
ATOM     14  C   UNL     1      -9.822  16.426  68.647  0.00  0.00    +0.322 C 
ATOM     15  O   UNL     1      -8.642  16.655  68.896  0.00  0.00    -0.250 OA
BRANCH  14  17
ATOM     16  C   UNL     1     -10.420  18.517  67.889  0.00  0.00    +0.256 C 
ATOM     17  O   UNL     1     -10.802  17.347  68.343  0.00  0.00    -0.444 OA
ENDBRANCH  14  17
ENDBRANCH   1  14
TORSDOF 4
ENDMDL
MODEL 4
REMARK VINA RESULT:      -5.4      2.309      5.265
REMARK  Name = 
REMARK  4 active torsions:
REMARK  status: ('A' for Active; 'I' for Inactive)
REMARK    1  A    between atoms: O_2  and  C_3
REMARK    2  A    between atoms: C_3  and  C_5
REMARK    3  A    between atoms: C_5  and  C_6
REMARK    4  A    between atoms: C_5  and  C_12
REMARK                            x       y       z     vdW  Elec       q    Type
REMARK                         _______ _______ _______ _____ _____    ______ ____
ROOT
ATOM      1  C   UNL     1     -12.103  14.569  68.438  0.00  0.00    +0.137 C 
ENDROOT
BRANCH   1   2
ATOM      2  C   UNL     1     -10.571  15.381  68.463  0.00  0.00    +0.087 C 
ATOM      3  N   UNL     1     -11.250  16.799  68.606  0.00  0.00    -0.219 NA
ATOM      4  C   UNL     1     -10.047  17.621  68.750  0.00  0.00    +0.089 C 
ATOM      5  C   UNL     1      -9.050  17.330  67.649  0.00  0.00    +0.019 C 
ATOM      6  C   UNL     1      -9.644  16.626  66.477  0.00  0.00    +0.003 C 
ATOM      7  C   UNL     1     -10.563  15.495  66.822  0.00  0.00    +0.018 C 
ENDBRANCH   1   2
BRANCH   1   8
ATOM      8  C   UNL     1     -12.096  14.352  70.041  0.00  0.00    -0.011 A 
ATOM      9  C   UNL     1     -12.812  15.397  70.622  0.00  0.00    -0.004 A 
ATOM     10  C   UNL     1     -13.717  15.187  71.656  0.00  0.00    -0.000 A 
ATOM     11  C   UNL     1     -13.572  14.002  72.368  0.00  0.00    -0.000 A 
ATOM     12  C   UNL     1     -12.812  12.976  71.818  0.00  0.00    -0.000 A 
ATOM     13  C   UNL     1     -12.534  13.100  70.463  0.00  0.00    -0.004 A 
ENDBRANCH   1   8
BRANCH   1  14
ATOM     14  C   UNL     1     -11.404  13.153  68.116  0.00  0.00    +0.322 C 
ATOM     15  O   UNL     1     -10.399  12.851  68.751  0.00  0.00    -0.250 OA
BRANCH  14  17
ATOM     16  C   UNL     1     -11.313  11.817  66.242  0.00  0.00    +0.256 C 
ATOM     17  O   UNL     1     -12.049  12.390  67.164  0.00  0.00    -0.444 OA
ENDBRANCH  14  17
ENDBRANCH   1  14
TORSDOF 4
ENDMDL
MODEL 5
REMARK VINA RESULT:      -5.4      1.158      4.583
REMARK  Name = 
REMARK  4 active torsions:
REMARK  status: ('A' for Active; 'I' for Inactive)
REMARK    1  A    between atoms: O_2  and  C_3
REMARK    2  A    between atoms: C_3  and  C_5
REMARK    3  A    between atoms: C_5  and  C_6
REMARK    4  A    between atoms: C_5  and  C_12
REMARK                            x       y       z     vdW  Elec       q    Type
REMARK                         _______ _______ _______ _____ _____    ______ ____
ROOT
ATOM      1  C   UNL     1      -9.727  16.028  67.615  0.00  0.00    +0.137 C 
ENDROOT
BRANCH   1   2
ATOM      2  C   UNL     1     -10.514  17.570  67.513  0.00  0.00    +0.087 C 
ATOM      3  N   UNL     1      -9.768  17.936  66.171  0.00  0.00    -0.219 NA
ATOM      4  C   UNL     1     -10.421  19.214  65.881  0.00  0.00    +0.089 C 
ATOM      5  C   UNL     1     -10.381  20.134  67.083  0.00  0.00    +0.019 C 
ATOM      6  C   UNL     1      -9.369  19.737  68.104  0.00  0.00    +0.003 C 
ATOM      7  C   UNL     1      -9.333  18.273  68.419  0.00  0.00    +0.018 C 
ENDBRANCH   1   2
BRANCH   1   8
ATOM      8  C   UNL     1     -10.898  15.293  66.774  0.00  0.00    -0.011 A 
ATOM      9  C   UNL     1     -10.482  15.196  65.448  0.00  0.00    -0.004 A 
ATOM     10  C   UNL     1     -10.667  14.040  64.698  0.00  0.00    -0.000 A 
ATOM     11  C   UNL     1     -11.641  13.161  65.157  0.00  0.00    -0.000 A 
ATOM     12  C   UNL     1     -12.102  13.289  66.463  0.00  0.00    -0.000 A 
ATOM     13  C   UNL     1     -11.316  14.074  67.297  0.00  0.00    -0.004 A 
ENDBRANCH   1   8
BRANCH   1  14
ATOM     14  C   UNL     1     -10.394  15.726  69.051  0.00  0.00    +0.322 C 
ATOM     15  O   UNL     1      -9.687  15.222  69.919  0.00  0.00    -0.250 OA
BRANCH  14  17
ATOM     16  C   UNL     1     -12.348  15.776  70.269  0.00  0.00    +0.256 C 
ATOM     17  O   UNL     1     -11.713  16.112  69.171  0.00  0.00    -0.444 OA
ENDBRANCH  14  17
ENDBRANCH   1  14
TORSDOF 4
ENDMDL
MODEL 6
REMARK VINA RESULT:      -5.3      2.481      3.734
REMARK  Name = 
REMARK  4 active torsions:
REMARK  status: ('A' for Active; 'I' for Inactive)
REMARK    1  A    between atoms: O_2  and  C_3
REMARK    2  A    between atoms: C_3  and  C_5
REMARK    3  A    between atoms: C_5  and  C_6
REMARK    4  A    between atoms: C_5  and  C_12
REMARK                            x       y       z     vdW  Elec       q    Type
REMARK                         _______ _______ _______ _____ _____    ______ ____
ROOT
ATOM      1  C   UNL     1     -12.135  13.925  68.421  0.00  0.00    +0.137 C 
ENDROOT
BRANCH   1   2
ATOM      2  C   UNL     1     -11.132  12.580  68.860  0.00  0.00    +0.087 C 
ATOM      3  N   UNL     1     -11.967  11.581  67.966  0.00  0.00    -0.219 NA
ATOM      4  C   UNL     1     -11.160  10.373  68.149  0.00  0.00    +0.089 C 
ATOM      5  C   UNL     1     -10.909  10.099  69.615  0.00  0.00    +0.019 C 
ATOM      6  C   UNL     1     -11.840  10.825  70.526  0.00  0.00    +0.003 C 
ATOM      7  C   UNL     1     -12.069  12.263  70.175  0.00  0.00    +0.018 C 
ENDBRANCH   1   2
BRANCH   1   8
ATOM      8  C   UNL     1     -11.250  14.249  67.106  0.00  0.00    -0.011 A 
ATOM      9  C   UNL     1     -11.960  13.811  65.989  0.00  0.00    -0.004 A 
ATOM     10  C   UNL     1     -12.048  14.568  64.826  0.00  0.00    -0.000 A 
ATOM     11  C   UNL     1     -11.076  15.547  64.657  0.00  0.00    -0.000 A 
ATOM     12  C   UNL     1     -10.326  15.948  65.757  0.00  0.00    -0.000 A 
ATOM     13  C   UNL     1     -10.833  15.571  66.994  0.00  0.00    -0.004 A 
ENDBRANCH   1   8
BRANCH   1  14
ATOM     14  C   UNL     1     -11.305  14.920  69.380  0.00  0.00    +0.322 C 
ATOM     15  O   UNL     1     -10.080  14.848  69.361  0.00  0.00    -0.250 OA
BRANCH  14  17
ATOM     16  C   UNL     1     -11.784  15.959  71.379  0.00  0.00    +0.256 C 
ATOM     17  O   UNL     1     -12.077  15.801  70.110  0.00  0.00    -0.444 OA
ENDBRANCH  14  17
ENDBRANCH   1  14
TORSDOF 4
ENDMDL
MODEL 7
REMARK VINA RESULT:      -5.2      2.070      3.589
REMARK  Name = 
REMARK  4 active torsions:
REMARK  status: ('A' for Active; 'I' for Inactive)
REMARK    1  A    between atoms: O_2  and  C_3
REMARK    2  A    between atoms: C_3  and  C_5
REMARK    3  A    between atoms: C_5  and  C_6
REMARK    4  A    between atoms: C_5  and  C_12
REMARK                            x       y       z     vdW  Elec       q    Type
REMARK                         _______ _______ _______ _____ _____    ______ ____
ROOT
ATOM      1  C   UNL     1     -10.016  15.830  68.283  0.00  0.00    +0.137 C 
ENDROOT
BRANCH   1   2
ATOM      2  C   UNL     1     -11.582  15.402  68.892  0.00  0.00    +0.087 C 
ATOM      3  N   UNL     1     -11.243  15.949  70.334  0.00  0.00    -0.219 NA
ATOM      4  C   UNL     1     -12.546  15.751  70.972  0.00  0.00    +0.089 C 
ATOM      5  C   UNL     1     -13.049  14.339  70.762  0.00  0.00    +0.019 C 
ATOM      6  C   UNL     1     -11.984  13.382  70.346  0.00  0.00    +0.003 C 
ATOM      7  C   UNL     1     -11.056  13.894  69.288  0.00  0.00    +0.018 C 
ENDBRANCH   1   2
BRANCH   1   8
ATOM      8  C   UNL     1     -10.530  17.276  67.771  0.00  0.00    -0.011 A 
ATOM      9  C   UNL     1     -10.071  18.240  68.667  0.00  0.00    -0.004 A 
ATOM     10  C   UNL     1      -9.540  19.452  68.241  0.00  0.00    -0.000 A 
ATOM     11  C   UNL     1      -9.869  19.845  66.949  0.00  0.00    -0.000 A 
ATOM     12  C   UNL     1     -10.381  18.900  66.067  0.00  0.00    -0.000 A 
ATOM     13  C   UNL     1     -10.213  17.576  66.450  0.00  0.00    -0.004 A 
ENDBRANCH   1   8
BRANCH   1  14
ATOM     14  C   UNL     1     -10.305  15.090  66.880  0.00  0.00    +0.322 C 
ATOM     15  O   UNL     1      -9.369  14.517  66.329  0.00  0.00    -0.250 OA
BRANCH  14  17
ATOM     16  C   UNL     1     -11.965  14.364  65.458  0.00  0.00    +0.256 C 
ATOM     17  O   UNL     1     -11.615  15.145  66.453  0.00  0.00    -0.444 OA
ENDBRANCH  14  17
ENDBRANCH   1  14
TORSDOF 4
ENDMDL
MODEL 8
REMARK VINA RESULT:      -5.1      1.572      4.863
REMARK  Name = 
REMARK  4 active torsions:
REMARK  status: ('A' for Active; 'I' for Inactive)
REMARK    1  A    between atoms: O_2  and  C_3
REMARK    2  A    between atoms: C_3  and  C_5
REMARK    3  A    between atoms: C_5  and  C_6
REMARK    4  A    between atoms: C_5  and  C_12
REMARK                            x       y       z     vdW  Elec       q    Type
REMARK                         _______ _______ _______ _____ _____    ______ ____
ROOT
ATOM      1  C   UNL     1      -9.320  16.189  67.330  0.00  0.00    +0.137 C 
ENDROOT
BRANCH   1   2
ATOM      2  C   UNL     1     -10.027  17.757  67.548  0.00  0.00    +0.087 C 
ATOM      3  N   UNL     1      -9.779  18.152  66.039  0.00  0.00    -0.219 NA
ATOM      4  C   UNL     1     -10.437  19.460  66.028  0.00  0.00    +0.089 C 
ATOM      5  C   UNL     1      -9.944  20.330  67.163  0.00  0.00    +0.019 C 
ATOM      6  C   UNL     1      -8.659  19.864  67.758  0.00  0.00    +0.003 C 
ATOM      7  C   UNL     1      -8.577  18.388  68.003  0.00  0.00    +0.018 C 
ENDBRANCH   1   2
BRANCH   1   8
ATOM      8  C   UNL     1     -10.733  15.532  66.893  0.00  0.00    -0.011 A 
ATOM      9  C   UNL     1     -10.755  15.441  65.502  0.00  0.00    -0.004 A 
ATOM     10  C   UNL     1     -11.227  14.312  64.843  0.00  0.00    -0.000 A 
ATOM     11  C   UNL     1     -12.057  13.474  65.580  0.00  0.00    -0.000 A 
ATOM     12  C   UNL     1     -12.081  13.598  66.964  0.00  0.00    -0.000 A 
ATOM     13  C   UNL     1     -11.034  14.326  67.516  0.00  0.00    -0.004 A 
ENDBRANCH   1   8
BRANCH   1  14
ATOM     14  C   UNL     1      -9.496  15.837  68.893  0.00  0.00    +0.322 C 
ATOM     15  O   UNL     1     -10.569  16.105  69.425  0.00  0.00    -0.250 OA
BRANCH  14  17
ATOM     16  C   UNL     1      -7.476  14.752  68.680  0.00  0.00    +0.256 C 
ATOM     17  O   UNL     1      -8.409  15.218  69.475  0.00  0.00    -0.444 OA
ENDBRANCH  14  17
ENDBRANCH   1  14
TORSDOF 4
ENDMDL
MODEL 9
REMARK VINA RESULT:      -5.1      3.013      6.090
REMARK  Name = 
REMARK  4 active torsions:
REMARK  status: ('A' for Active; 'I' for Inactive)
REMARK    1  A    between atoms: O_2  and  C_3
REMARK    2  A    between atoms: C_3  and  C_5
REMARK    3  A    between atoms: C_5  and  C_6
REMARK    4  A    between atoms: C_5  and  C_12
REMARK                            x       y       z     vdW  Elec       q    Type
REMARK                         _______ _______ _______ _____ _____    ______ ____
ROOT
ATOM      1  C   UNL     1     -11.983  13.378  66.938  0.00  0.00    +0.137 C 
ENDROOT
BRANCH   1   2
ATOM      2  C   UNL     1     -10.512  14.261  66.691  0.00  0.00    +0.087 C 
ATOM      3  N   UNL     1     -10.905  15.348  67.767  0.00  0.00    -0.219 NA
ATOM      4  C   UNL     1      -9.676  16.143  67.756  0.00  0.00    +0.089 C 
ATOM      5  C   UNL     1      -9.288  16.533  66.347  0.00  0.00    +0.019 C 
ATOM      6  C   UNL     1     -10.402  16.402  65.364  0.00  0.00    +0.003 C 
ATOM      7  C   UNL     1     -11.199  15.139  65.480  0.00  0.00    +0.018 C 
ENDBRANCH   1   2
BRANCH   1   8
ATOM      8  C   UNL     1     -11.312  12.434  68.067  0.00  0.00    -0.011 A 
ATOM      9  C   UNL     1     -11.712  12.904  69.317  0.00  0.00    -0.004 A 
ATOM     10  C   UNL     1     -12.107  12.046  70.337  0.00  0.00    -0.000 A 
ATOM     11  C   UNL     1     -11.689  10.725  70.224  0.00  0.00    -0.000 A 
ATOM     12  C   UNL     1     -11.236  10.265  68.993  0.00  0.00    -0.000 A 
ATOM     13  C   UNL     1     -11.545  11.072  67.905  0.00  0.00    -0.004 A 
ENDBRANCH   1   8
BRANCH   1  14
ATOM     14  C   UNL     1     -11.646  12.377  65.720  0.00  0.00    +0.322 C 
ATOM     15  O   UNL     1     -10.531  11.862  65.691  0.00  0.00    -0.250 OA
BRANCH  14  17
ATOM     16  C   UNL     1     -12.396  12.117  63.558  0.00  0.00    +0.256 C 
ATOM     17  O   UNL     1     -12.684  12.165  64.837  0.00  0.00    -0.444 OA
ENDBRANCH  14  17
ENDBRANCH   1  14
TORSDOF 4
ENDMDL
