MODEL 1
REMARK VINA RESULT:      -5.8      0.000      0.000
REMARK  Name = 
REMARK  2 active torsions:
REMARK  status: ('A' for Active; 'I' for Inactive)
REMARK    1  A    between atoms: C_2  and  N_4
REMARK    2  A    between atoms: N_10  and  C_11
REMARK                            x       y       z     vdW  Elec       q    Type
REMARK                         _______ _______ _______ _____ _____    ______ ____
ROOT
ATOM      1  N   UNL     1     -10.993  17.973  67.562  0.00  0.00    -0.093 NA
ATOM      2  C   UNL     1     -10.729  16.720  68.217  0.00  0.00    +0.505 C 
ATOM      3  N   UNL     1     -11.685  16.249  69.193  0.00  0.00    +0.011 NA
ATOM      4  C   UNL     1     -11.377  14.944  69.701  0.00  0.00    +0.510 C 
ATOM      5  N   UNL     1     -10.572  14.289  68.914  0.00  0.00    -0.063 NA
ATOM      6  N   UNL     1     -11.785  14.479  70.992  0.00  0.00    +0.133 NA
ATOM      7  N   UNL     1      -9.524  16.670  68.731  0.00  0.00    +0.132 NA
ENDROOT
BRANCH   5   8
ATOM      8  C   UNL     1     -10.965  14.342  67.522  0.00  0.00    +0.159 A 
ATOM      9  C   UNL     1     -12.234  13.916  67.122  0.00  0.00    +0.038 A 
ATOM     10  C   UNL     1     -12.546  13.709  65.787  0.00  0.00    +0.014 A 
ATOM     11  C   UNL     1     -11.538  13.150  65.028  0.00  0.00    +0.058 A 
ATOM     12 CL   UNL     1     -11.892  12.893  63.323  0.00  0.00    -0.082 Cl
ATOM     13  C   UNL     1     -10.238  13.163  65.511  0.00  0.00    +0.014 A 
ATOM     14  C   UNL     1      -9.983  13.812  66.684  0.00  0.00    +0.038 A 
ENDBRANCH   5   8
BRANCH   1  16
ATOM     15  C   UNL     1      -9.981  20.048  68.423  0.00  0.00    +0.047 C 
ATOM     16  C   UNL     1      -9.980  18.983  67.361  0.00  0.00    +0.181 C 
ATOM     17  C   UNL     1     -10.269  19.688  66.041  0.00  0.00    +0.047 C 
ENDBRANCH   1  16
TORSDOF 2
ENDMDL
MODEL 2
REMARK VINA RESULT:      -5.3      2.369      4.465
REMARK  Name = 
REMARK  2 active torsions:
REMARK  status: ('A' for Active; 'I' for Inactive)
REMARK    1  A    between atoms: C_2  and  N_4
REMARK    2  A    between atoms: N_10  and  C_11
REMARK                            x       y       z     vdW  Elec       q    Type
REMARK                         _______ _______ _______ _____ _____    ______ ____
ROOT
ATOM      1  N   UNL     1     -11.684  14.627  71.425  0.00  0.00    -0.093 NA
ATOM      2  C   UNL     1     -11.414  15.137  70.107  0.00  0.00    +0.505 C 
ATOM      3  N   UNL     1     -10.144  15.786  69.877  0.00  0.00    +0.011 NA
ATOM      4  C   UNL     1      -9.939  16.157  68.507  0.00  0.00    +0.510 C 
ATOM      5  N   UNL     1     -10.712  15.491  67.699  0.00  0.00    -0.063 NA
ATOM      6  N   UNL     1      -9.094  17.237  68.096  0.00  0.00    +0.133 NA
ATOM      7  N   UNL     1     -12.379  15.902  69.660  0.00  0.00    +0.132 NA
ENDROOT
BRANCH   5   8
ATOM      8  C   UNL     1     -10.729  14.069  67.966  0.00  0.00    +0.159 A 
ATOM      9  C   UNL     1      -9.550  13.321  67.933  0.00  0.00    +0.038 A 
ATOM     10  C   UNL     1      -9.565  11.935  67.925  0.00  0.00    +0.014 A 
ATOM     11  C   UNL     1     -10.573  11.363  67.175  0.00  0.00    +0.058 A 
ATOM     12 CL   UNL     1     -10.635   9.604  67.160  0.00  0.00    -0.082 Cl
ATOM     13  C   UNL     1     -11.659  12.137  66.797  0.00  0.00    +0.014 A 
ATOM     14  C   UNL     1     -11.741  13.419  67.257  0.00  0.00    +0.038 A 
ENDBRANCH   5   8
BRANCH   1  16
ATOM     15  C   UNL     1     -12.812  15.377  73.483  0.00  0.00    +0.047 C 
ATOM     16  C   UNL     1     -12.949  14.815  72.095  0.00  0.00    +0.181 C 
ATOM     17  C   UNL     1     -13.613  13.451  72.245  0.00  0.00    +0.047 C 
ENDBRANCH   1  16
TORSDOF 2
ENDMDL
MODEL 3
REMARK VINA RESULT:      -5.3      2.851      3.995
REMARK  Name = 
REMARK  2 active torsions:
REMARK  status: ('A' for Active; 'I' for Inactive)
REMARK    1  A    between atoms: C_2  and  N_4
REMARK    2  A    between atoms: N_10  and  C_11
REMARK                            x       y       z     vdW  Elec       q    Type
REMARK                         _______ _______ _______ _____ _____    ______ ____
ROOT
ATOM      1  N   UNL     1      -8.166  15.575  67.405  0.00  0.00    -0.093 NA
ATOM      2  C   UNL     1      -9.485  15.502  66.834  0.00  0.00    +0.505 C 
ATOM      3  N   UNL     1      -9.668  15.977  65.482  0.00  0.00    +0.011 NA
ATOM      4  C   UNL     1     -10.993  15.757  64.981  0.00  0.00    +0.510 C 
ATOM      5  N   UNL     1     -11.624  14.837  65.651  0.00  0.00    -0.063 NA
ATOM      6  N   UNL     1     -11.600  16.562  63.963  0.00  0.00    +0.133 NA
ATOM      7  N   UNL     1     -10.394  16.040  67.610  0.00  0.00    +0.132 NA
ENDROOT
BRANCH   5   8
ATOM      8  C   UNL     1     -10.833  13.645  65.870  0.00  0.00    +0.159 A 
ATOM      9  C   UNL     1     -10.400  12.867  64.794  0.00  0.00    +0.038 A 
ATOM     10  C   UNL     1      -9.873  11.598  64.977  0.00  0.00    +0.014 A 
ATOM     11  C   UNL     1     -10.482  10.846  65.960  0.00  0.00    +0.058 A 
ATOM     12 CL   UNL     1      -9.824   9.236  66.235  0.00  0.00    -0.082 Cl
ATOM     13  C   UNL     1     -11.285  11.477  66.898  0.00  0.00    +0.014 A 
ATOM     14  C   UNL     1     -11.374  12.838  66.872  0.00  0.00    +0.038 A 
ENDBRANCH   5   8
BRANCH   1  16
ATOM     15  C   UNL     1      -7.006  17.239  68.803  0.00  0.00    +0.047 C 
ATOM     16  C   UNL     1      -7.916  16.043  68.747  0.00  0.00    +0.181 C 
ATOM     17  C   UNL     1      -7.213  14.929  69.514  0.00  0.00    +0.047 C 
ENDBRANCH   1  16
TORSDOF 2
ENDMDL
MODEL 4
REMARK VINA RESULT:      -5.3      3.401      4.331
REMARK  Name = 
REMARK  2 active torsions:
REMARK  status: ('A' for Active; 'I' for Inactive)
REMARK    1  A    between atoms: C_2  and  N_4
REMARK    2  A    between atoms: N_10  and  C_11
REMARK                            x       y       z     vdW  Elec       q    Type
REMARK                         _______ _______ _______ _____ _____    ______ ____
ROOT
ATOM      1  N   UNL     1      -8.496  15.124  66.806  0.00  0.00    -0.093 NA
ATOM      2  C   UNL     1      -9.911  14.986  66.583  0.00  0.00    +0.505 C 
ATOM      3  N   UNL     1     -10.353  14.526  65.287  0.00  0.00    +0.011 NA
ATOM      4  C   UNL     1     -11.771  14.324  65.212  0.00  0.00    +0.510 C 
ATOM      5  N   UNL     1     -12.309  14.192  66.390  0.00  0.00    -0.063 NA
ATOM      6  N   UNL     1     -12.521  14.410  63.996  0.00  0.00    +0.133 NA
ATOM      7  N   UNL     1     -10.575  16.068  66.909  0.00  0.00    +0.132 NA
ENDROOT
BRANCH   5   8
ATOM      8  C   UNL     1     -11.591  13.273  67.247  0.00  0.00    +0.159 A 
ATOM      9  C   UNL     1     -11.560  11.906  66.964  0.00  0.00    +0.038 A 
ATOM     10  C   UNL     1     -11.110  10.979  67.891  0.00  0.00    +0.014 A 
ATOM     11  C   UNL     1     -11.463  11.238  69.199  0.00  0.00    +0.058 A 
ATOM     12 CL   UNL     1     -10.890  10.092  70.406  0.00  0.00    -0.082 Cl
ATOM     13  C   UNL     1     -11.899  12.508  69.546  0.00  0.00    +0.014 A 
ATOM     14  C   UNL     1     -11.878  13.488  68.596  0.00  0.00    +0.038 A 
ENDBRANCH   5   8
BRANCH   1  16
ATOM     15  C   UNL     1      -6.724  16.834  66.740  0.00  0.00    +0.047 C 
ATOM     16  C   UNL     1      -7.913  16.268  67.466  0.00  0.00    +0.181 C 
ATOM     17  C   UNL     1      -7.412  15.821  68.834  0.00  0.00    +0.047 C 
ENDBRANCH   1  16
TORSDOF 2
ENDMDL
MODEL 5
REMARK VINA RESULT:      -5.3      3.654      4.672
REMARK  Name = 
REMARK  2 active torsions:
REMARK  status: ('A' for Active; 'I' for Inactive)
REMARK    1  A    between atoms: C_2  and  N_4
REMARK    2  A    between atoms: N_10  and  C_11
REMARK                            x       y       z     vdW  Elec       q    Type
REMARK                         _______ _______ _______ _____ _____    ______ ____
ROOT
ATOM      1  N   UNL     1      -9.065  14.882  66.295  0.00  0.00    -0.093 NA
ATOM      2  C   UNL     1     -10.334  14.248  66.057  0.00  0.00    +0.505 C 
ATOM      3  N   UNL     1     -10.525  13.557  64.803  0.00  0.00    +0.011 NA
ATOM      4  C   UNL     1     -11.782  12.873  64.720  0.00  0.00    +0.510 C 
ATOM      5  N   UNL     1     -12.303  12.663  65.894  0.00  0.00    -0.063 NA
ATOM      6  N   UNL     1     -12.452  12.593  63.486  0.00  0.00    +0.133 NA
ATOM      7  N   UNL     1     -11.343  15.058  66.264  0.00  0.00    +0.132 NA
ENDROOT
BRANCH   5   8
ATOM      8  C   UNL     1     -11.361  12.124  66.850  0.00  0.00    +0.159 A 
ATOM      9  C   UNL     1     -10.814  10.850  66.675  0.00  0.00    +0.038 A 
ATOM     10  C   UNL     1     -10.123  10.208  67.690  0.00  0.00    +0.014 A 
ATOM     11  C   UNL     1     -10.635  10.392  68.958  0.00  0.00    +0.058 A 
ATOM     12 CL   UNL     1      -9.768   9.608  70.274  0.00  0.00    -0.082 Cl
ATOM     13  C   UNL     1     -11.527  11.429  69.185  0.00  0.00    +0.014 A 
ATOM     14  C   UNL     1     -11.799  12.293  68.165  0.00  0.00    +0.038 A 
ENDBRANCH   5   8
BRANCH   1  16
ATOM     15  C   UNL     1      -7.879  17.039  66.188  0.00  0.00    +0.047 C 
ATOM     16  C   UNL     1      -8.942  16.209  66.852  0.00  0.00    +0.181 C 
ATOM     17  C   UNL     1      -8.534  16.072  68.314  0.00  0.00    +0.047 C 
ENDBRANCH   1  16
TORSDOF 2
ENDMDL
MODEL 6
REMARK VINA RESULT:      -5.1      1.929      3.794
REMARK  Name = 
REMARK  2 active torsions:
REMARK  status: ('A' for Active; 'I' for Inactive)
REMARK    1  A    between atoms: C_2  and  N_4
REMARK    2  A    between atoms: N_10  and  C_11
REMARK                            x       y       z     vdW  Elec       q    Type
REMARK                         _______ _______ _______ _____ _____    ______ ____
ROOT
ATOM      1  N   UNL     1     -11.138  15.104  69.379  0.00  0.00    -0.093 NA
ATOM      2  C   UNL     1     -10.650  15.856  68.253  0.00  0.00    +0.505 C 
ATOM      3  N   UNL     1      -9.222  15.914  68.042  0.00  0.00    +0.011 NA
ATOM      4  C   UNL     1      -8.856  16.596  66.835  0.00  0.00    +0.510 C 
ATOM      5  N   UNL     1      -9.844  16.658  65.989  0.00  0.00    -0.063 NA
ATOM      6  N   UNL     1      -7.602  17.262  66.650  0.00  0.00    +0.133 NA
ATOM      7  N   UNL     1     -11.144  17.069  68.212  0.00  0.00    +0.132 NA
ENDROOT
BRANCH   5   8
ATOM      8  C   UNL     1     -10.523  15.393  65.811  0.00  0.00    +0.159 A 
ATOM      9  C   UNL     1      -9.820  14.253  65.415  0.00  0.00    +0.038 A 
ATOM     10  C   UNL     1     -10.471  13.107  64.987  0.00  0.00    +0.014 A 
ATOM     11  C   UNL     1     -11.598  13.323  64.221  0.00  0.00    +0.058 A 
ATOM     12 CL   UNL     1     -12.462  11.888  63.678  0.00  0.00    -0.082 Cl
ATOM     13  C   UNL     1     -12.191  14.576  64.225  0.00  0.00    +0.014 A 
ATOM     14  C   UNL     1     -11.692  15.532  65.061  0.00  0.00    +0.038 A 
ENDBRANCH   5   8
BRANCH   1  16
ATOM     15  C   UNL     1     -11.651  16.135  71.557  0.00  0.00    +0.047 C 
ATOM     16  C   UNL     1     -12.175  15.590  70.257  0.00  0.00    +0.181 C 
ATOM     17  C   UNL     1     -13.082  14.417  70.614  0.00  0.00    +0.047 C 
ENDBRANCH   1  16
TORSDOF 2
ENDMDL
MODEL 7
REMARK VINA RESULT:      -5.1      3.319      5.336
REMARK  Name = 
REMARK  2 active torsions:
REMARK  status: ('A' for Active; 'I' for Inactive)
REMARK    1  A    between atoms: C_2  and  N_4
REMARK    2  A    between atoms: N_10  and  C_11
REMARK                            x       y       z     vdW  Elec       q    Type
REMARK                         _______ _______ _______ _____ _____    ______ ____
ROOT
ATOM      1  N   UNL     1     -12.367  15.897  70.190  0.00  0.00    -0.093 NA
ATOM      2  C   UNL     1     -11.511  15.263  69.222  0.00  0.00    +0.505 C 
ATOM      3  N   UNL     1     -11.919  15.282  67.837  0.00  0.00    +0.011 NA
ATOM      4  C   UNL     1     -10.942  14.719  66.952  0.00  0.00    +0.510 C 
ATOM      5  N   UNL     1      -9.756  14.687  67.489  0.00  0.00    -0.063 NA
ATOM      6  N   UNL     1     -11.264  14.124  65.690  0.00  0.00    +0.133 NA
ATOM      7  N   UNL     1     -11.194  14.038  69.564  0.00  0.00    +0.132 NA
ENDROOT
BRANCH   5   8
ATOM      8  C   UNL     1      -9.381  15.933  68.122  0.00  0.00    +0.159 A 
ATOM      9  C   UNL     1      -9.363  17.126  67.397  0.00  0.00    +0.038 A 
ATOM     10  C   UNL     1      -8.766  18.273  67.895  0.00  0.00    +0.014 A 
ATOM     11  C   UNL     1      -7.599  18.069  68.603  0.00  0.00    +0.058 A 
ATOM     12 CL   UNL     1      -6.826  19.502  69.269  0.00  0.00    -0.082 Cl
ATOM     13  C   UNL     1      -7.299  16.795  69.062  0.00  0.00    +0.014 A 
ATOM     14  C   UNL     1      -8.216  15.801  68.879  0.00  0.00    +0.038 A 
ENDBRANCH   5   8
BRANCH   1  16
ATOM     15  C   UNL     1     -14.174  15.240  71.730  0.00  0.00    +0.047 C 
ATOM     16  C   UNL     1     -12.696  15.296  71.461  0.00  0.00    +0.181 C 
ATOM     17  C   UNL     1     -12.087  16.156  72.562  0.00  0.00    +0.047 C 
ENDBRANCH   1  16
TORSDOF 2
ENDMDL
MODEL 8
REMARK VINA RESULT:      -5.1      3.027      4.688
REMARK  Name = 
REMARK  2 active torsions:
REMARK  status: ('A' for Active; 'I' for Inactive)
REMARK    1  A    between atoms: C_2  and  N_4
REMARK    2  A    between atoms: N_10  and  C_11
REMARK                            x       y       z     vdW  Elec       q    Type
REMARK                         _______ _______ _______ _____ _____    ______ ____
ROOT
ATOM      1  N   UNL     1     -12.256  15.173  69.486  0.00  0.00    -0.093 NA
ATOM      2  C   UNL     1     -11.683  14.203  68.591  0.00  0.00    +0.505 C 
ATOM      3  N   UNL     1     -12.330  13.986  67.318  0.00  0.00    +0.011 NA
ATOM      4  C   UNL     1     -11.614  13.081  66.467  0.00  0.00    +0.510 C 
ATOM      5  N   UNL     1     -10.366  12.964  66.818  0.00  0.00    -0.063 NA
ATOM      6  N   UNL     1     -12.238  12.287  65.452  0.00  0.00    +0.133 NA
ATOM      7  N   UNL     1     -11.476  13.048  69.175  0.00  0.00    +0.132 NA
ENDROOT
BRANCH   5   8
ATOM      8  C   UNL     1      -9.719  14.235  67.062  0.00  0.00    +0.159 A 
ATOM      9  C   UNL     1      -9.668  15.214  66.068  0.00  0.00    +0.038 A 
ATOM     10  C   UNL     1      -8.842  16.322  66.178  0.00  0.00    +0.014 A 
ATOM     11  C   UNL     1      -7.607  16.080  66.744  0.00  0.00    +0.058 A 
ATOM     12 CL   UNL     1      -6.540  17.469  66.918  0.00  0.00    -0.082 Cl
ATOM     13  C   UNL     1      -7.406  14.909  67.459  0.00  0.00    +0.014 A 
ATOM     14  C   UNL     1      -8.467  14.075  67.658  0.00  0.00    +0.038 A 
ENDBRANCH   5   8
BRANCH   1  16
ATOM     15  C   UNL     1     -13.864  14.930  71.337  0.00  0.00    +0.047 C 
ATOM     16  C   UNL     1     -12.426  14.934  70.900  0.00  0.00    +0.181 C 
ATOM     17  C   UNL     1     -11.746  16.069  71.657  0.00  0.00    +0.047 C 
ENDBRANCH   1  16
TORSDOF 2
ENDMDL
MODEL 9
REMARK VINA RESULT:      -5.0      3.479      5.486
REMARK  Name = 
REMARK  2 active torsions:
REMARK  status: ('A' for Active; 'I' for Inactive)
REMARK    1  A    between atoms: C_2  and  N_4
REMARK    2  A    between atoms: N_10  and  C_11
REMARK                            x       y       z     vdW  Elec       q    Type
REMARK                         _______ _______ _______ _____ _____    ______ ____
ROOT
ATOM      1  N   UNL     1     -12.261  12.487  65.529  0.00  0.00    -0.093 NA
ATOM      2  C   UNL     1     -11.601  13.160  66.617  0.00  0.00    +0.505 C 
ATOM      3  N   UNL     1     -12.326  14.197  67.315  0.00  0.00    +0.011 NA
ATOM      4  C   UNL     1     -11.615  14.721  68.445  0.00  0.00    +0.510 C 
ATOM      5  N   UNL     1     -10.685  13.909  68.857  0.00  0.00    -0.063 NA
ATOM      6  N   UNL     1     -11.807  16.044  68.958  0.00  0.00    +0.133 NA
ATOM      7  N   UNL     1     -10.417  13.609  66.281  0.00  0.00    +0.132 NA
ENDROOT
BRANCH   5   8
ATOM      8  C   UNL     1     -11.135  12.539  68.982  0.00  0.00    +0.159 A 
ATOM      9  C   UNL     1     -11.976  12.156  70.029  0.00  0.00    +0.038 A 
ATOM     10  C   UNL     1     -12.211  10.823  70.325  0.00  0.00    +0.014 A 
ATOM     11  C   UNL     1     -11.117   9.991  70.197  0.00  0.00    +0.058 A 
ATOM     12 CL   UNL     1     -11.384   8.287  70.545  0.00  0.00    -0.082 Cl
ATOM     13  C   UNL     1     -10.015  10.427  69.477  0.00  0.00    +0.014 A 
ATOM     14  C   UNL     1     -10.084  11.632  68.840  0.00  0.00    +0.038 A 
ENDBRANCH   5   8
BRANCH   1  16
ATOM     15  C   UNL     1     -12.575  11.891  63.160  0.00  0.00    +0.047 C 
ATOM     16  C   UNL     1     -11.612  12.208  64.270  0.00  0.00    +0.181 C 
ATOM     17  C   UNL     1     -10.739  10.971  64.452  0.00  0.00    +0.047 C 
ENDBRANCH   1  16
TORSDOF 2
ENDMDL
