MODEL 1
REMARK VINA RESULT:      -5.4      0.000      0.000
REMARK  Name = 
REMARK  10 active torsions:
REMARK  status: ('A' for Active; 'I' for Inactive)
REMARK    1  A    between atoms: O_2  and  C_3
REMARK    2  A    between atoms: C_3  and  C_5
REMARK    3  A    between atoms: C_5  and  C_6
REMARK    4  A    between atoms: C_6  and  C_7
REMARK    5  A    between atoms: C_10  and  O_11
REMARK    6  A    between atoms: O_11  and  C_12
REMARK    7  A    between atoms: C_12  and  C_13
REMARK    8  A    between atoms: C_13  and  C_15
REMARK    9  A    between atoms: C_15  and  N_16
REMARK   10  A    between atoms: N_16  and  C_17
REMARK                            x       y       z     vdW  Elec       q    Type
REMARK                         _______ _______ _______ _____ _____    ______ ____
ROOT
ATOM      1  C   UNL     1     -10.808  16.042  69.220  0.00  0.00    -0.021 A 
ATOM      2  C   UNL     1     -10.668  17.182  68.437  0.00  0.00    -0.001 A 
ATOM      3  C   UNL     1     -10.075  17.112  67.179  0.00  0.00    +0.037 A 
ATOM      4  C   UNL     1      -9.793  15.887  66.580  0.00  0.00    +0.139 A 
ATOM      5  C   UNL     1      -9.520  14.891  67.517  0.00  0.00    +0.037 A 
ATOM      6  C   UNL     1     -10.018  14.972  68.816  0.00  0.00    -0.001 A 
ENDROOT
BRANCH   1   7
ATOM      7  C   UNL     1     -12.091  15.719  69.921  0.00  0.00    +0.038 C 
BRANCH   7   8
ATOM      8  C   UNL     1     -11.837  15.242  71.345  0.00  0.00    +0.114 C 
BRANCH   8   9
ATOM      9  C   UNL     1     -13.188  15.183  71.987  0.00  0.00    +0.317 C 
ATOM     10  O   UNL     1     -14.140  15.615  71.269  0.00  0.00    -0.250 OA
BRANCH   9  12
ATOM     11  C   UNL     1     -12.398  15.519  74.150  0.00  0.00    +0.256 C 
ATOM     12  O   UNL     1     -13.335  15.404  73.360  0.00  0.00    -0.444 OA
ENDBRANCH   9  12
ENDBRANCH   8   9
ENDBRANCH   7   8
ENDBRANCH   1   7
BRANCH   4  13
ATOM     13  O   UNL     1     -10.243  15.533  65.325  0.00  0.00    -0.473 OA
BRANCH  13  14
ATOM     14  C   UNL     1     -10.673  14.335  64.844  0.00  0.00    +0.240 C 
BRANCH  14  15
ATOM     15  C   UNL     1     -12.313  14.251  64.986  0.00  0.00    +0.213 C 
ATOM     16  O   UNL     1     -12.529  13.936  63.512  0.00  0.00    -0.218 OA
BRANCH  15  17
ATOM     17  C   UNL     1     -12.247  12.655  65.423  0.00  0.00    +0.125 C 
BRANCH  17  18
ATOM     18  N   UNL     1     -12.155  12.635  66.827  0.00  0.00    -0.217 NA
BRANCH  18  19
ATOM     19  C   UNL     1     -11.438  11.686  67.518  0.00  0.00    +0.073 C 
ATOM     20  C   UNL     1     -11.608  11.562  68.981  0.00  0.00    +0.019 C 
ATOM     21  C   UNL     1     -10.173  11.195  66.929  0.00  0.00    +0.019 C 
ENDBRANCH  18  19
ENDBRANCH  17  18
ENDBRANCH  15  17
ENDBRANCH  14  15
ENDBRANCH  13  14
ENDBRANCH   4  13
TORSDOF 10
ENDMDL
MODEL 2
REMARK VINA RESULT:      -5.3      2.287      6.279
REMARK  Name = 
REMARK  10 active torsions:
REMARK  status: ('A' for Active; 'I' for Inactive)
REMARK    1  A    between atoms: O_2  and  C_3
REMARK    2  A    between atoms: C_3  and  C_5
REMARK    3  A    between atoms: C_5  and  C_6
REMARK    4  A    between atoms: C_6  and  C_7
REMARK    5  A    between atoms: C_10  and  O_11
REMARK    6  A    between atoms: O_11  and  C_12
REMARK    7  A    between atoms: C_12  and  C_13
REMARK    8  A    between atoms: C_13  and  C_15
REMARK    9  A    between atoms: C_15  and  N_16
REMARK   10  A    between atoms: N_16  and  C_17
REMARK                            x       y       z     vdW  Elec       q    Type
REMARK                         _______ _______ _______ _____ _____    ______ ____
ROOT
ATOM      1  C   UNL     1     -10.306  11.016  66.435  0.00  0.00    -0.021 A 
ATOM      2  C   UNL     1     -11.307  11.179  67.384  0.00  0.00    -0.001 A 
ATOM      3  C   UNL     1     -11.178  12.122  68.400  0.00  0.00    +0.037 A 
ATOM      4  C   UNL     1     -10.153  13.065  68.384  0.00  0.00    +0.139 A 
ATOM      5  C   UNL     1      -9.008  12.590  67.746  0.00  0.00    +0.037 A 
ATOM      6  C   UNL     1      -9.086  11.580  66.790  0.00  0.00    -0.001 A 
ENDROOT
BRANCH   1   7
ATOM      7  C   UNL     1     -10.613  10.915  64.972  0.00  0.00    +0.038 C 
BRANCH   7   8
ATOM      8  C   UNL     1     -10.927  12.281  64.379  0.00  0.00    +0.114 C 
BRANCH   8   9
ATOM      9  C   UNL     1     -12.420  12.340  64.296  0.00  0.00    +0.317 C 
ATOM     10  O   UNL     1     -12.908  11.973  63.184  0.00  0.00    -0.250 OA
BRANCH   9  12
ATOM     11  C   UNL     1     -12.617  14.213  65.663  0.00  0.00    +0.256 C 
ATOM     12  O   UNL     1     -13.131  13.352  64.949  0.00  0.00    -0.444 OA
ENDBRANCH   9  12
ENDBRANCH   8   9
ENDBRANCH   7   8
ENDBRANCH   1   7
BRANCH   4  13
ATOM     13  O   UNL     1     -10.371  14.425  68.464  0.00  0.00    -0.473 OA
BRANCH  13  14
ATOM     14  C   UNL     1      -9.756  15.377  69.218  0.00  0.00    +0.240 C 
BRANCH  14  15
ATOM     15  C   UNL     1     -10.842  16.559  69.589  0.00  0.00    +0.213 C 
ATOM     16  O   UNL     1     -11.916  16.009  68.661  0.00  0.00    -0.218 OA
BRANCH  15  17
ATOM     17  C   UNL     1     -11.396  15.713  70.900  0.00  0.00    +0.125 C 
BRANCH  17  18
ATOM     18  N   UNL     1     -12.778  15.963  70.974  0.00  0.00    -0.217 NA
BRANCH  18  19
ATOM     19  C   UNL     1     -13.569  15.509  72.004  0.00  0.00    +0.073 C 
ATOM     20  C   UNL     1     -12.960  15.201  73.314  0.00  0.00    +0.019 C 
ATOM     21  C   UNL     1     -14.847  14.845  71.667  0.00  0.00    +0.019 C 
ENDBRANCH  18  19
ENDBRANCH  17  18
ENDBRANCH  15  17
ENDBRANCH  14  15
ENDBRANCH  13  14
ENDBRANCH   4  13
TORSDOF 10
ENDMDL
MODEL 3
REMARK VINA RESULT:      -5.1      2.078      3.411
REMARK  Name = 
REMARK  10 active torsions:
REMARK  status: ('A' for Active; 'I' for Inactive)
REMARK    1  A    between atoms: O_2  and  C_3
REMARK    2  A    between atoms: C_3  and  C_5
REMARK    3  A    between atoms: C_5  and  C_6
REMARK    4  A    between atoms: C_6  and  C_7
REMARK    5  A    between atoms: C_10  and  O_11
REMARK    6  A    between atoms: O_11  and  C_12
REMARK    7  A    between atoms: C_12  and  C_13
REMARK    8  A    between atoms: C_13  and  C_15
REMARK    9  A    between atoms: C_15  and  N_16
REMARK   10  A    between atoms: N_16  and  C_17
REMARK                            x       y       z     vdW  Elec       q    Type
REMARK                         _______ _______ _______ _____ _____    ______ ____
ROOT
ATOM      1  C   UNL     1     -10.945  13.956  69.023  0.00  0.00    -0.021 A 
ATOM      2  C   UNL     1      -9.792  13.796  68.264  0.00  0.00    -0.001 A 
ATOM      3  C   UNL     1      -9.591  12.642  67.510  0.00  0.00    +0.037 A 
ATOM      4  C   UNL     1     -10.612  11.713  67.325  0.00  0.00    +0.139 A 
ATOM      5  C   UNL     1     -11.493  11.676  68.404  0.00  0.00    +0.037 A 
ATOM      6  C   UNL     1     -11.653  12.779  69.240  0.00  0.00    -0.001 A 
ENDROOT
BRANCH   1   7
ATOM      7  C   UNL     1     -11.727  15.233  69.011  0.00  0.00    +0.038 C 
BRANCH   7   8
ATOM      8  C   UNL     1     -11.257  16.178  70.108  0.00  0.00    +0.114 C 
BRANCH   8   9
ATOM      9  C   UNL     1     -12.149  15.899  71.277  0.00  0.00    +0.317 C 
ATOM     10  O   UNL     1     -11.609  15.241  72.216  0.00  0.00    -0.250 OA
BRANCH   9  12
ATOM     11  C   UNL     1     -14.191  14.915  71.806  0.00  0.00    +0.256 C 
ATOM     12  O   UNL     1     -13.513  15.651  71.089  0.00  0.00    -0.444 OA
ENDBRANCH   9  12
ENDBRANCH   8   9
ENDBRANCH   7   8
ENDBRANCH   1   7
BRANCH   4  13
ATOM     13  O   UNL     1     -11.040  11.291  66.084  0.00  0.00    -0.473 OA
BRANCH  13  14
ATOM     14  C   UNL     1     -10.347  10.750  65.045  0.00  0.00    +0.240 C 
BRANCH  14  15
ATOM     15  C   UNL     1     -10.195  11.875  63.850  0.00  0.00    +0.213 C 
ATOM     16  O   UNL     1     -10.075  10.836  62.744  0.00  0.00    -0.218 OA
BRANCH  15  17
ATOM     17  C   UNL     1     -11.838  12.005  63.690  0.00  0.00    +0.125 C 
BRANCH  17  18
ATOM     18  N   UNL     1     -12.110  13.377  63.535  0.00  0.00    -0.217 NA
BRANCH  18  19
ATOM     19  C   UNL     1     -12.132  14.261  64.588  0.00  0.00    +0.073 C 
ATOM     20  C   UNL     1     -10.993  15.177  64.799  0.00  0.00    +0.019 C 
ATOM     21  C   UNL     1     -12.982  13.940  65.756  0.00  0.00    +0.019 C 
ENDBRANCH  18  19
ENDBRANCH  17  18
ENDBRANCH  15  17
ENDBRANCH  14  15
ENDBRANCH  13  14
ENDBRANCH   4  13
TORSDOF 10
ENDMDL
MODEL 4
REMARK VINA RESULT:      -5.1      4.186      6.352
REMARK  Name = 
REMARK  10 active torsions:
REMARK  status: ('A' for Active; 'I' for Inactive)
REMARK    1  A    between atoms: O_2  and  C_3
REMARK    2  A    between atoms: C_3  and  C_5
REMARK    3  A    between atoms: C_5  and  C_6
REMARK    4  A    between atoms: C_6  and  C_7
REMARK    5  A    between atoms: C_10  and  O_11
REMARK    6  A    between atoms: O_11  and  C_12
REMARK    7  A    between atoms: C_12  and  C_13
REMARK    8  A    between atoms: C_13  and  C_15
REMARK    9  A    between atoms: C_15  and  N_16
REMARK   10  A    between atoms: N_16  and  C_17
REMARK                            x       y       z     vdW  Elec       q    Type
REMARK                         _______ _______ _______ _____ _____    ______ ____
ROOT
ATOM      1  C   UNL     1      -8.283  19.489  67.049  0.00  0.00    -0.021 A 
ATOM      2  C   UNL     1      -9.512  20.053  67.369  0.00  0.00    -0.001 A 
ATOM      3  C   UNL     1     -10.647  19.257  67.501  0.00  0.00    +0.037 A 
ATOM      4  C   UNL     1     -10.557  17.868  67.522  0.00  0.00    +0.139 A 
ATOM      5  C   UNL     1      -9.479  17.397  66.774  0.00  0.00    +0.037 A 
ATOM      6  C   UNL     1      -8.363  18.198  66.539  0.00  0.00    -0.001 A 
ENDROOT
BRANCH   1   7
ATOM      7  C   UNL     1      -7.029  19.860  67.780  0.00  0.00    +0.038 C 
BRANCH   7   8
ATOM      8  C   UNL     1      -7.201  19.700  69.285  0.00  0.00    +0.114 C 
BRANCH   8   9
ATOM      9  C   UNL     1      -5.816  19.781  69.849  0.00  0.00    +0.317 C 
ATOM     10  O   UNL     1      -5.309  18.667  70.183  0.00  0.00    -0.250 OA
BRANCH   9  12
ATOM     11  C   UNL     1      -4.304  21.359  70.649  0.00  0.00    +0.256 C 
ATOM     12  O   UNL     1      -5.433  20.867  70.642  0.00  0.00    -0.444 OA
ENDBRANCH   9  12
ENDBRANCH   8   9
ENDBRANCH   7   8
ENDBRANCH   1   7
BRANCH   4  13
ATOM     13  O   UNL     1     -11.069  17.089  68.538  0.00  0.00    -0.473 OA
BRANCH  13  14
ATOM     14  C   UNL     1     -11.650  15.858  68.503  0.00  0.00    +0.240 C 
BRANCH  14  15
ATOM     15  C   UNL     1     -11.151  14.986  69.809  0.00  0.00    +0.213 C 
ATOM     16  O   UNL     1      -9.738  15.551  69.778  0.00  0.00    -0.218 OA
BRANCH  15  17
ATOM     17  C   UNL     1     -11.700  16.142  70.859  0.00  0.00    +0.125 C 
BRANCH  17  18
ATOM     18  N   UNL     1     -13.019  15.778  71.190  0.00  0.00    -0.217 NA
BRANCH  18  19
ATOM     19  C   UNL     1     -13.353  15.165  72.375  0.00  0.00    +0.073 C 
ATOM     20  C   UNL     1     -12.764  15.648  73.641  0.00  0.00    +0.019 C 
ATOM     21  C   UNL     1     -13.836  13.767  72.330  0.00  0.00    +0.019 C 
ENDBRANCH  18  19
ENDBRANCH  17  18
ENDBRANCH  15  17
ENDBRANCH  14  15
ENDBRANCH  13  14
ENDBRANCH   4  13
TORSDOF 10
ENDMDL
MODEL 5
REMARK VINA RESULT:      -5.1      1.956      2.566
REMARK  Name = 
REMARK  10 active torsions:
REMARK  status: ('A' for Active; 'I' for Inactive)
REMARK    1  A    between atoms: O_2  and  C_3
REMARK    2  A    between atoms: C_3  and  C_5
REMARK    3  A    between atoms: C_5  and  C_6
REMARK    4  A    between atoms: C_6  and  C_7
REMARK    5  A    between atoms: C_10  and  O_11
REMARK    6  A    between atoms: O_11  and  C_12
REMARK    7  A    between atoms: C_12  and  C_13
REMARK    8  A    between atoms: C_13  and  C_15
REMARK    9  A    between atoms: C_15  and  N_16
REMARK   10  A    between atoms: N_16  and  C_17
REMARK                            x       y       z     vdW  Elec       q    Type
REMARK                         _______ _______ _______ _____ _____    ______ ____
ROOT
ATOM      1  C   UNL     1     -12.077  14.306  70.259  0.00  0.00    -0.021 A 
ATOM      2  C   UNL     1     -11.715  15.571  69.812  0.00  0.00    -0.001 A 
ATOM      3  C   UNL     1     -11.147  15.745  68.553  0.00  0.00    +0.037 A 
ATOM      4  C   UNL     1     -11.111  14.706  67.626  0.00  0.00    +0.139 A 
ATOM      5  C   UNL     1     -11.039  13.455  68.238  0.00  0.00    +0.037 A 
ATOM      6  C   UNL     1     -11.512  13.262  69.535  0.00  0.00    -0.001 A 
ENDROOT
BRANCH   1   7
ATOM      7  C   UNL     1     -13.399  14.047  70.914  0.00  0.00    +0.038 C 
BRANCH   7   8
ATOM      8  C   UNL     1     -13.275  14.061  72.431  0.00  0.00    +0.114 C 
BRANCH   8   9
ATOM      9  C   UNL     1     -13.908  15.346  72.866  0.00  0.00    +0.317 C 
ATOM     10  O   UNL     1     -14.625  15.912  71.986  0.00  0.00    -0.250 OA
BRANCH   9  12
ATOM     11  C   UNL     1     -12.405  15.861  74.566  0.00  0.00    +0.256 C 
ATOM     12  O   UNL     1     -13.235  16.216  73.730  0.00  0.00    -0.444 OA
ENDBRANCH   9  12
ENDBRANCH   8   9
ENDBRANCH   7   8
ENDBRANCH   1   7
BRANCH   4  13
ATOM     13  O   UNL     1     -11.621  14.808  66.349  0.00  0.00    -0.473 OA
BRANCH  13  14
ATOM     14  C   UNL     1     -12.525  14.032  65.692  0.00  0.00    +0.240 C 
BRANCH  14  15
ATOM     15  C   UNL     1     -11.919  13.629  64.213  0.00  0.00    +0.213 C 
ATOM     16  O   UNL     1     -10.509  14.097  64.547  0.00  0.00    -0.218 OA
BRANCH  15  17
ATOM     17  C   UNL     1     -11.628  12.073  64.696  0.00  0.00    +0.125 C 
BRANCH  17  18
ATOM     18  N   UNL     1     -11.209  11.376  63.548  0.00  0.00    -0.217 NA
BRANCH  18  19
ATOM     19  C   UNL     1     -10.047  10.643  63.498  0.00  0.00    +0.073 C 
ATOM     20  C   UNL     1      -9.602   9.892  64.690  0.00  0.00    +0.019 C 
ATOM     21  C   UNL     1      -9.020  11.023  62.502  0.00  0.00    +0.019 C 
ENDBRANCH  18  19
ENDBRANCH  17  18
ENDBRANCH  15  17
ENDBRANCH  14  15
ENDBRANCH  13  14
ENDBRANCH   4  13
TORSDOF 10
ENDMDL
MODEL 6
REMARK VINA RESULT:      -5.0      3.100      6.523
REMARK  Name = 
REMARK  10 active torsions:
REMARK  status: ('A' for Active; 'I' for Inactive)
REMARK    1  A    between atoms: O_2  and  C_3
REMARK    2  A    between atoms: C_3  and  C_5
REMARK    3  A    between atoms: C_5  and  C_6
REMARK    4  A    between atoms: C_6  and  C_7
REMARK    5  A    between atoms: C_10  and  O_11
REMARK    6  A    between atoms: O_11  and  C_12
REMARK    7  A    between atoms: C_12  and  C_13
REMARK    8  A    between atoms: C_13  and  C_15
REMARK    9  A    between atoms: C_15  and  N_16
REMARK   10  A    between atoms: N_16  and  C_17
REMARK                            x       y       z     vdW  Elec       q    Type
REMARK                         _______ _______ _______ _____ _____    ______ ____
ROOT
ATOM      1  C   UNL     1     -11.278  13.621  68.325  0.00  0.00    -0.021 A 
ATOM      2  C   UNL     1     -12.118  14.396  69.117  0.00  0.00    -0.001 A 
ATOM      3  C   UNL     1     -11.812  15.728  69.386  0.00  0.00    +0.037 A 
ATOM      4  C   UNL     1     -10.782  16.383  68.715  0.00  0.00    +0.139 A 
ATOM      5  C   UNL     1      -9.760  15.513  68.339  0.00  0.00    +0.037 A 
ATOM      6  C   UNL     1     -10.006  14.154  68.151  0.00  0.00    -0.001 A 
ENDROOT
BRANCH   1   7
ATOM      7  C   UNL     1     -11.809  12.747  67.231  0.00  0.00    +0.038 C 
BRANCH   7   8
ATOM      8  C   UNL     1     -11.208  13.122  65.884  0.00  0.00    +0.114 C 
BRANCH   8   9
ATOM      9  C   UNL     1     -12.377  13.448  65.008  0.00  0.00    +0.317 C 
ATOM     10  O   UNL     1     -13.245  14.207  65.537  0.00  0.00    -0.250 OA
BRANCH   9  12
ATOM     11  C   UNL     1     -12.200  11.838  63.338  0.00  0.00    +0.256 C 
ATOM     12  O   UNL     1     -12.886  12.499  64.116  0.00  0.00    -0.444 OA
ENDBRANCH   9  12
ENDBRANCH   8   9
ENDBRANCH   7   8
ENDBRANCH   1   7
BRANCH   4  13
ATOM     13  O   UNL     1     -10.955  17.565  68.026  0.00  0.00    -0.473 OA
BRANCH  13  14
ATOM     14  C   UNL     1     -10.331  18.041  66.914  0.00  0.00    +0.240 C 
BRANCH  14  15
ATOM     15  C   UNL     1     -10.375  19.689  66.931  0.00  0.00    +0.213 C 
ATOM     16  O   UNL     1     -10.502  19.773  68.446  0.00  0.00    -0.218 OA
BRANCH  15  17
ATOM     17  C   UNL     1      -8.723  19.786  66.962  0.00  0.00    +0.125 C 
BRANCH  17  18
ATOM     18  N   UNL     1      -8.345  19.636  68.308  0.00  0.00    -0.217 NA
BRANCH  18  19
ATOM     19  C   UNL     1      -7.121  19.139  68.693  0.00  0.00    +0.073 C 
ATOM     20  C   UNL     1      -6.827  17.702  68.521  0.00  0.00    +0.019 C 
ATOM     21  C   UNL     1      -6.355  19.880  69.720  0.00  0.00    +0.019 C 
ENDBRANCH  18  19
ENDBRANCH  17  18
ENDBRANCH  15  17
ENDBRANCH  14  15
ENDBRANCH  13  14
ENDBRANCH   4  13
TORSDOF 10
ENDMDL
MODEL 7
REMARK VINA RESULT:      -5.0      3.373      5.266
REMARK  Name = 
REMARK  10 active torsions:
REMARK  status: ('A' for Active; 'I' for Inactive)
REMARK    1  A    between atoms: O_2  and  C_3
REMARK    2  A    between atoms: C_3  and  C_5
REMARK    3  A    between atoms: C_5  and  C_6
REMARK    4  A    between atoms: C_6  and  C_7
REMARK    5  A    between atoms: C_10  and  O_11
REMARK    6  A    between atoms: O_11  and  C_12
REMARK    7  A    between atoms: C_12  and  C_13
REMARK    8  A    between atoms: C_13  and  C_15
REMARK    9  A    between atoms: C_15  and  N_16
REMARK   10  A    between atoms: N_16  and  C_17
REMARK                            x       y       z     vdW  Elec       q    Type
REMARK                         _______ _______ _______ _____ _____    ______ ____
ROOT
ATOM      1  C   UNL     1     -12.033  11.250  70.525  0.00  0.00    -0.021 A 
ATOM      2  C   UNL     1     -11.968  12.596  70.187  0.00  0.00    -0.001 A 
ATOM      3  C   UNL     1     -11.576  12.991  68.910  0.00  0.00    +0.037 A 
ATOM      4  C   UNL     1     -11.439  12.067  67.879  0.00  0.00    +0.139 A 
ATOM      5  C   UNL     1     -11.067  10.807  68.345  0.00  0.00    +0.037 A 
ATOM      6  C   UNL     1     -11.357  10.409  69.648  0.00  0.00    -0.001 A 
ENDROOT
BRANCH   1   7
ATOM      7  C   UNL     1     -13.206  10.675  71.257  0.00  0.00    +0.038 C 
BRANCH   7   8
ATOM      8  C   UNL     1     -12.802   9.456  72.076  0.00  0.00    +0.114 C 
BRANCH   8   9
ATOM      9  C   UNL     1     -13.823   8.410  71.753  0.00  0.00    +0.317 C 
ATOM     10  O   UNL     1     -14.865   8.439  72.476  0.00  0.00    -0.250 OA
BRANCH   9  12
ATOM     11  C   UNL     1     -12.280   6.832  71.017  0.00  0.00    +0.256 C 
ATOM     12  O   UNL     1     -13.430   7.136  71.332  0.00  0.00    -0.444 OA
ENDBRANCH   9  12
ENDBRANCH   8   9
ENDBRANCH   7   8
ENDBRANCH   1   7
BRANCH   4  13
ATOM     13  O   UNL     1     -12.088  12.177  66.667  0.00  0.00    -0.473 OA
BRANCH  13  14
ATOM     14  C   UNL     1     -11.615  12.072  65.396  0.00  0.00    +0.240 C 
BRANCH  14  15
ATOM     15  C   UNL     1     -12.120  13.374  64.520  0.00  0.00    +0.213 C 
ATOM     16  O   UNL     1     -12.900  13.982  65.678  0.00  0.00    -0.218 OA
BRANCH  15  17
ATOM     17  C   UNL     1     -10.739  14.215  64.875  0.00  0.00    +0.125 C 
BRANCH  17  18
ATOM     18  N   UNL     1     -11.102  15.183  65.829  0.00  0.00    -0.217 NA
BRANCH  18  19
ATOM     19  C   UNL     1     -10.182  15.937  66.521  0.00  0.00    +0.073 C 
ATOM     20  C   UNL     1      -8.739  15.696  66.321  0.00  0.00    +0.019 C 
ATOM     21  C   UNL     1     -10.605  16.565  67.793  0.00  0.00    +0.019 C 
ENDBRANCH  18  19
ENDBRANCH  17  18
ENDBRANCH  15  17
ENDBRANCH  14  15
ENDBRANCH  13  14
ENDBRANCH   4  13
TORSDOF 10
ENDMDL
MODEL 8
REMARK VINA RESULT:      -4.9      3.673      5.289
REMARK  Name = 
REMARK  10 active torsions:
REMARK  status: ('A' for Active; 'I' for Inactive)
REMARK    1  A    between atoms: O_2  and  C_3
REMARK    2  A    between atoms: C_3  and  C_5
REMARK    3  A    between atoms: C_5  and  C_6
REMARK    4  A    between atoms: C_6  and  C_7
REMARK    5  A    between atoms: C_10  and  O_11
REMARK    6  A    between atoms: O_11  and  C_12
REMARK    7  A    between atoms: C_12  and  C_13
REMARK    8  A    between atoms: C_13  and  C_15
REMARK    9  A    between atoms: C_15  and  N_16
REMARK   10  A    between atoms: N_16  and  C_17
REMARK                            x       y       z     vdW  Elec       q    Type
REMARK                         _______ _______ _______ _____ _____    ______ ____
ROOT
ATOM      1  C   UNL     1     -12.174  11.005  70.834  0.00  0.00    -0.021 A 
ATOM      2  C   UNL     1     -12.173  12.370  70.575  0.00  0.00    -0.001 A 
ATOM      3  C   UNL     1     -11.769  12.858  69.334  0.00  0.00    +0.037 A 
ATOM      4  C   UNL     1     -11.554  12.003  68.257  0.00  0.00    +0.139 A 
ATOM      5  C   UNL     1     -11.127  10.739  68.663  0.00  0.00    +0.037 A 
ATOM      6  C   UNL     1     -11.431  10.252  69.932  0.00  0.00    -0.001 A 
ENDROOT
BRANCH   1   7
ATOM      7  C   UNL     1     -13.334  10.329  71.498  0.00  0.00    +0.038 C 
BRANCH   7   8
ATOM      8  C   UNL     1     -12.893   9.066  72.225  0.00  0.00    +0.114 C 
BRANCH   8   9
ATOM      9  C   UNL     1     -13.675   7.956  71.595  0.00  0.00    +0.317 C 
ATOM     10  O   UNL     1     -14.868   7.840  72.009  0.00  0.00    -0.250 OA
BRANCH   9  12
ATOM     11  C   UNL     1     -11.884   6.661  70.868  0.00  0.00    +0.256 C 
ATOM     12  O   UNL     1     -13.052   6.754  71.244  0.00  0.00    -0.444 OA
ENDBRANCH   9  12
ENDBRANCH   8   9
ENDBRANCH   7   8
ENDBRANCH   1   7
BRANCH   4  13
ATOM     13  O   UNL     1     -12.176  12.149  67.035  0.00  0.00    -0.473 OA
BRANCH  13  14
ATOM     14  C   UNL     1     -11.973  13.055  66.040  0.00  0.00    +0.240 C 
BRANCH  14  15
ATOM     15  C   UNL     1     -12.312  12.353  64.588  0.00  0.00    +0.213 C 
ATOM     16  O   UNL     1     -12.508  13.683  63.873  0.00  0.00    -0.218 OA
BRANCH  15  17
ATOM     17  C   UNL     1     -10.706  12.261  64.197  0.00  0.00    +0.125 C 
BRANCH  17  18
ATOM     18  N   UNL     1     -10.364  10.898  64.258  0.00  0.00    -0.217 NA
BRANCH  18  19
ATOM     19  C   UNL     1      -9.487  10.385  65.186  0.00  0.00    +0.073 C 
ATOM     20  C   UNL     1      -9.705   9.029  65.728  0.00  0.00    +0.019 C 
ATOM     21  C   UNL     1      -8.695  11.333  66.001  0.00  0.00    +0.019 C 
ENDBRANCH  18  19
ENDBRANCH  17  18
ENDBRANCH  15  17
ENDBRANCH  14  15
ENDBRANCH  13  14
ENDBRANCH   4  13
TORSDOF 10
ENDMDL
MODEL 9
REMARK VINA RESULT:      -4.9      3.147      5.378
REMARK  Name = 
REMARK  10 active torsions:
REMARK  status: ('A' for Active; 'I' for Inactive)
REMARK    1  A    between atoms: O_2  and  C_3
REMARK    2  A    between atoms: C_3  and  C_5
REMARK    3  A    between atoms: C_5  and  C_6
REMARK    4  A    between atoms: C_6  and  C_7
REMARK    5  A    between atoms: C_10  and  O_11
REMARK    6  A    between atoms: O_11  and  C_12
REMARK    7  A    between atoms: C_12  and  C_13
REMARK    8  A    between atoms: C_13  and  C_15
REMARK    9  A    between atoms: C_15  and  N_16
REMARK   10  A    between atoms: N_16  and  C_17
REMARK                            x       y       z     vdW  Elec       q    Type
REMARK                         _______ _______ _______ _____ _____    ______ ____
ROOT
ATOM      1  C   UNL     1     -11.160  13.569  67.184  0.00  0.00    -0.021 A 
ATOM      2  C   UNL     1      -9.815  13.910  67.262  0.00  0.00    -0.001 A 
ATOM      3  C   UNL     1      -9.274  14.868  66.408  0.00  0.00    +0.037 A 
ATOM      4  C   UNL     1     -10.087  15.658  65.600  0.00  0.00    +0.139 A 
ATOM      5  C   UNL     1     -11.260  15.001  65.230  0.00  0.00    +0.037 A 
ATOM      6  C   UNL     1     -11.784  13.972  66.009  0.00  0.00    -0.001 A 
ENDROOT
BRANCH   1   7
ATOM      7  C   UNL     1     -12.016  13.450  68.407  0.00  0.00    +0.038 C 
BRANCH   7   8
ATOM      8  C   UNL     1     -11.389  14.172  69.592  0.00  0.00    +0.114 C 
BRANCH   8   9
ATOM      9  C   UNL     1     -12.224  15.398  69.793  0.00  0.00    +0.317 C 
ATOM     10  O   UNL     1     -11.925  16.376  69.043  0.00  0.00    -0.250 OA
BRANCH   9  12
ATOM     11  C   UNL     1     -11.955  16.104  71.994  0.00  0.00    +0.256 C 
ATOM     12  O   UNL     1     -12.683  15.748  71.067  0.00  0.00    -0.444 OA
ENDBRANCH   9  12
ENDBRANCH   8   9
ENDBRANCH   7   8
ENDBRANCH   1   7
BRANCH   4  13
ATOM     13  O   UNL     1     -10.054  17.036  65.604  0.00  0.00    -0.473 OA
BRANCH  13  14
ATOM     14  C   UNL     1     -10.106  17.921  66.637  0.00  0.00    +0.240 C 
BRANCH  14  15
ATOM     15  C   UNL     1     -10.166  19.454  66.035  0.00  0.00    +0.213 C 
ATOM     16  O   UNL     1     -10.434  20.088  67.393  0.00  0.00    -0.218 OA
BRANCH  15  17
ATOM     17  C   UNL     1      -8.524  19.626  66.164  0.00  0.00    +0.125 C 
BRANCH  17  18
ATOM     18  N   UNL     1      -8.228  19.557  67.537  0.00  0.00    -0.217 NA
BRANCH  18  19
ATOM     19  C   UNL     1      -6.973  19.794  68.047  0.00  0.00    +0.073 C 
ATOM     20  C   UNL     1      -6.569  19.164  69.321  0.00  0.00    +0.019 C 
ATOM     21  C   UNL     1      -6.273  21.032  67.641  0.00  0.00    +0.019 C 
ENDBRANCH  18  19
ENDBRANCH  17  18
ENDBRANCH  15  17
ENDBRANCH  14  15
ENDBRANCH  13  14
ENDBRANCH   4  13
TORSDOF 10
ENDMDL
