MODEL 1
REMARK VINA RESULT:      -7.9      0.000      0.000
REMARK  Name = 
REMARK  7 active torsions:
REMARK  status: ('A' for Active; 'I' for Inactive)
REMARK    1  A    between atoms: C_2  and  C_4
REMARK    2  A    between atoms: C_2  and  C_15
REMARK    3  A    between atoms: C_4  and  S_5
REMARK    4  A    between atoms: S_5  and  C_8
REMARK    5  A    between atoms: N_17  and  C_18
REMARK    6  A    between atoms: C_21  and  C_22
REMARK    7  A    between atoms: C_24  and  C_25
REMARK                            x       y       z     vdW  Elec       q    Type
REMARK                         _______ _______ _______ _____ _____    ______ ____
ROOT
ATOM      1  C   UNL     1     -11.783  12.946  67.448  0.00  0.00    +0.275 C 
ATOM      2  N   UNL     1     -12.077  13.406  68.772  0.00  0.00    -0.177 NA
ATOM      3  O   UNL     1     -12.126  11.749  67.207  0.00  0.00    -0.270 OA
ENDROOT
BRANCH   2   4
ATOM      4  C   UNL     1     -12.004  12.574  69.908  0.00  0.00    +0.073 A 
ATOM      5  C   UNL     1     -11.342  11.353  69.905  0.00  0.00    +0.021 A 
ATOM      6  C   UNL     1     -11.821  10.331  70.715  0.00  0.00    +0.082 A 
ATOM      7  C   UNL     1     -12.800  10.593  71.665  0.00  0.00    +0.072 A 
ATOM      8  C   UNL     1     -13.174  11.910  71.898  0.00  0.00    +0.012 A 
ATOM      9  C   UNL     1     -12.709  12.900  71.041  0.00  0.00    +0.017 A 
BRANCH   6  10
ATOM     10  C   UNL     1     -11.037   9.078  70.895  0.00  0.00    +0.419 C 
ATOM     11  F   UNL     1     -11.716   7.974  70.435  0.00  0.00    -0.166 F 
ATOM     12  F   UNL     1     -10.695   8.849  72.203  0.00  0.00    -0.166 F 
ATOM     13  F   UNL     1      -9.852   9.187  70.182  0.00  0.00    -0.166 F 
ENDBRANCH   6  10
BRANCH   7  14
ATOM     14  C   UNL     1     -13.655   9.490  72.039  0.00  0.00    +0.100 C 
ATOM     15  N   UNL     1     -14.427   8.671  72.338  0.00  0.00    -0.191 NA
ENDBRANCH   7  14
ENDBRANCH   2   4
BRANCH   1  17
ATOM     16  C   UNL     1     -10.541  13.301  65.424  0.00  0.00    +0.044 C 
ATOM     17  C   UNL     1     -11.553  13.910  66.327  0.00  0.00    +0.218 C 
ATOM     18  O   UNL     1     -12.758  14.017  65.630  0.00  0.00    -0.214 OA
BRANCH  17  19
ATOM     19  C   UNL     1     -11.128  15.209  66.940  0.00  0.00    +0.195 C 
BRANCH  19  20
ATOM     20  S   UNL     1     -10.347  16.309  65.807  0.00  0.00    +0.012 S 
ATOM     21  O   UNL     1     -11.116  16.490  64.541  0.00  0.00    -0.169 OA
ATOM     22  O   UNL     1      -9.022  15.686  65.429  0.00  0.00    -0.169 OA
BRANCH  20  23
ATOM     23  C   UNL     1      -9.975  17.838  66.569  0.00  0.00    +0.106 A 
ATOM     24  C   UNL     1      -9.178  17.802  67.700  0.00  0.00    +0.021 A 
ATOM     25  C   UNL     1      -8.570  18.971  68.124  0.00  0.00    +0.031 A 
ATOM     26  C   UNL     1      -8.764  20.147  67.422  0.00  0.00    +0.140 A 
ATOM     27  F   UNL     1      -7.839  21.145  67.452  0.00  0.00    -0.204 F 
ATOM     28  C   UNL     1      -9.794  20.182  66.489  0.00  0.00    +0.031 A 
ATOM     29  C   UNL     1     -10.504  19.036  66.156  0.00  0.00    +0.021 A 
ENDBRANCH  20  23
ENDBRANCH  19  20
ENDBRANCH  17  19
ENDBRANCH   1  17
TORSDOF 7
ENDMDL
MODEL 2
REMARK VINA RESULT:      -7.8      1.765      2.123
REMARK  Name = 
REMARK  7 active torsions:
REMARK  status: ('A' for Active; 'I' for Inactive)
REMARK    1  A    between atoms: C_2  and  C_4
REMARK    2  A    between atoms: C_2  and  C_15
REMARK    3  A    between atoms: C_4  and  S_5
REMARK    4  A    between atoms: S_5  and  C_8
REMARK    5  A    between atoms: N_17  and  C_18
REMARK    6  A    between atoms: C_21  and  C_22
REMARK    7  A    between atoms: C_24  and  C_25
REMARK                            x       y       z     vdW  Elec       q    Type
REMARK                         _______ _______ _______ _____ _____    ______ ____
ROOT
ATOM      1  C   UNL     1     -10.419  12.765  68.053  0.00  0.00    +0.275 C 
ATOM      2  N   UNL     1     -11.625  12.129  68.491  0.00  0.00    -0.177 NA
ATOM      3  O   UNL     1      -9.348  12.177  68.394  0.00  0.00    -0.270 OA
ENDROOT
BRANCH   2   4
ATOM      4  C   UNL     1     -11.736  11.459  69.726  0.00  0.00    +0.073 A 
ATOM      5  C   UNL     1     -11.306  10.151  69.912  0.00  0.00    +0.021 A 
ATOM      6  C   UNL     1     -11.984   9.347  70.820  0.00  0.00    +0.082 A 
ATOM      7  C   UNL     1     -12.925   9.903  71.678  0.00  0.00    +0.072 A 
ATOM      8  C   UNL     1     -13.061  11.284  71.721  0.00  0.00    +0.012 A 
ATOM      9  C   UNL     1     -12.401  12.053  70.770  0.00  0.00    +0.017 A 
BRANCH   6  10
ATOM     10  C   UNL     1     -11.445   8.012  71.198  0.00  0.00    +0.419 C 
ATOM     11  F   UNL     1     -12.213   6.986  70.699  0.00  0.00    -0.166 F 
ATOM     12  F   UNL     1     -11.345   7.844  72.555  0.00  0.00    -0.166 F 
ATOM     13  F   UNL     1     -10.163   7.885  70.681  0.00  0.00    -0.166 F 
ENDBRANCH   6  10
BRANCH   7  14
ATOM     14  C   UNL     1     -13.976   9.027  72.144  0.00  0.00    +0.100 C 
ATOM     15  N   UNL     1     -14.859   8.319  72.418  0.00  0.00    -0.191 NA
ENDBRANCH   7  14
ENDBRANCH   2   4
BRANCH   1  17
ATOM     16  C   UNL     1      -9.032  14.228  66.748  0.00  0.00    +0.044 C 
ATOM     17  C   UNL     1     -10.424  13.732  66.911  0.00  0.00    +0.218 C 
ATOM     18  O   UNL     1     -10.770  13.007  65.768  0.00  0.00    -0.214 OA
BRANCH  17  19
ATOM     19  C   UNL     1     -11.423  14.800  67.237  0.00  0.00    +0.195 C 
BRANCH  19  20
ATOM     20  S   UNL     1     -10.950  15.830  68.585  0.00  0.00    +0.012 S 
ATOM     21  O   UNL     1     -10.094  15.131  69.586  0.00  0.00    -0.169 OA
ATOM     22  O   UNL     1     -12.222  16.231  69.300  0.00  0.00    -0.169 OA
BRANCH  20  23
ATOM     23  C   UNL     1     -10.215  17.311  68.017  0.00  0.00    +0.106 A 
ATOM     24  C   UNL     1     -10.594  17.764  66.765  0.00  0.00    +0.021 A 
ATOM     25  C   UNL     1     -10.328  19.080  66.425  0.00  0.00    +0.031 A 
ATOM     26  C   UNL     1      -9.694  19.915  67.328  0.00  0.00    +0.140 A 
ATOM     27  F   UNL     1      -9.871  21.264  67.283  0.00  0.00    -0.204 F 
ATOM     28  C   UNL     1      -9.082  19.331  68.430  0.00  0.00    +0.031 A 
ATOM     29  C   UNL     1      -9.231  17.978  68.705  0.00  0.00    +0.021 A 
ENDBRANCH  20  23
ENDBRANCH  19  20
ENDBRANCH  17  19
ENDBRANCH   1  17
TORSDOF 7
ENDMDL
MODEL 3
REMARK VINA RESULT:      -7.8      3.674      5.510
REMARK  Name = 
REMARK  7 active torsions:
REMARK  status: ('A' for Active; 'I' for Inactive)
REMARK    1  A    between atoms: C_2  and  C_4
REMARK    2  A    between atoms: C_2  and  C_15
REMARK    3  A    between atoms: C_4  and  S_5
REMARK    4  A    between atoms: S_5  and  C_8
REMARK    5  A    between atoms: N_17  and  C_18
REMARK    6  A    between atoms: C_21  and  C_22
REMARK    7  A    between atoms: C_24  and  C_25
REMARK                            x       y       z     vdW  Elec       q    Type
REMARK                         _______ _______ _______ _____ _____    ______ ____
ROOT
ATOM      1  C   UNL     1     -10.059  17.826  68.346  0.00  0.00    +0.275 C 
ATOM      2  N   UNL     1     -10.233  17.007  69.508  0.00  0.00    -0.177 NA
ATOM      3  O   UNL     1     -11.133  18.244  67.818  0.00  0.00    -0.270 OA
ENDROOT
BRANCH   2   4
ATOM      4  C   UNL     1     -11.307  16.107  69.659  0.00  0.00    +0.073 A 
ATOM      5  C   UNL     1     -12.066  16.029  70.821  0.00  0.00    +0.021 A 
ATOM      6  C   UNL     1     -12.600  14.801  71.190  0.00  0.00    +0.082 A 
ATOM      7  C   UNL     1     -12.562  13.729  70.307  0.00  0.00    +0.072 A 
ATOM      8  C   UNL     1     -12.129  13.947  69.005  0.00  0.00    +0.012 A 
ATOM      9  C   UNL     1     -11.561  15.174  68.684  0.00  0.00    +0.017 A 
BRANCH   6  10
ATOM     10  C   UNL     1     -13.576  14.706  72.310  0.00  0.00    +0.419 C 
ATOM     11  F   UNL     1     -13.040  14.076  73.409  0.00  0.00    -0.166 F 
ATOM     12  F   UNL     1     -14.723  14.042  71.960  0.00  0.00    -0.166 F 
ATOM     13  F   UNL     1     -13.951  15.988  72.685  0.00  0.00    -0.166 F 
ENDBRANCH   6  10
BRANCH   7  14
ATOM     14  C   UNL     1     -12.562  12.407  70.889  0.00  0.00    +0.100 C 
ATOM     15  N   UNL     1     -12.668  11.356  71.381  0.00  0.00    -0.191 NA
ENDBRANCH   7  14
ENDBRANCH   2   4
BRANCH   1  17
ATOM     16  C   UNL     1      -8.835  19.071  66.697  0.00  0.00    +0.044 C 
ATOM     17  C   UNL     1      -8.760  18.516  68.074  0.00  0.00    +0.218 C 
ATOM     18  O   UNL     1      -8.670  19.581  68.974  0.00  0.00    -0.214 OA
BRANCH  17  19
ATOM     19  C   UNL     1      -7.670  17.506  68.271  0.00  0.00    +0.195 C 
BRANCH  19  20
ATOM     20  S   UNL     1      -7.325  16.542  66.838  0.00  0.00    +0.012 S 
ATOM     21  O   UNL     1      -5.930  16.014  66.809  0.00  0.00    -0.169 OA
ATOM     22  O   UNL     1      -7.471  17.459  65.644  0.00  0.00    -0.169 OA
BRANCH  20  23
ATOM     23  C   UNL     1      -8.509  15.272  66.634  0.00  0.00    +0.106 A 
ATOM     24  C   UNL     1      -9.536  15.506  65.735  0.00  0.00    +0.021 A 
ATOM     25  C   UNL     1     -10.276  14.429  65.276  0.00  0.00    +0.031 A 
ATOM     26  C   UNL     1      -9.985  13.150  65.716  0.00  0.00    +0.140 A 
ATOM     27  F   UNL     1     -10.285  12.060  64.957  0.00  0.00    -0.204 F 
ATOM     28  C   UNL     1      -9.157  13.019  66.824  0.00  0.00    +0.031 A 
ATOM     29  C   UNL     1      -8.515  14.118  67.379  0.00  0.00    +0.021 A 
ENDBRANCH  20  23
ENDBRANCH  19  20
ENDBRANCH  17  19
ENDBRANCH   1  17
TORSDOF 7
ENDMDL
MODEL 4
REMARK VINA RESULT:      -7.8      3.237      3.869
REMARK  Name = 
REMARK  7 active torsions:
REMARK  status: ('A' for Active; 'I' for Inactive)
REMARK    1  A    between atoms: C_2  and  C_4
REMARK    2  A    between atoms: C_2  and  C_15
REMARK    3  A    between atoms: C_4  and  S_5
REMARK    4  A    between atoms: S_5  and  C_8
REMARK    5  A    between atoms: N_17  and  C_18
REMARK    6  A    between atoms: C_21  and  C_22
REMARK    7  A    between atoms: C_24  and  C_25
REMARK                            x       y       z     vdW  Elec       q    Type
REMARK                         _______ _______ _______ _____ _____    ______ ____
ROOT
ATOM      1  C   UNL     1     -10.516  12.736  68.146  0.00  0.00    +0.275 C 
ATOM      2  N   UNL     1     -11.696  12.031  68.549  0.00  0.00    -0.177 NA
ATOM      3  O   UNL     1      -9.424  12.198  68.497  0.00  0.00    -0.270 OA
ENDROOT
BRANCH   2   4
ATOM      4  C   UNL     1     -11.795  11.332  69.769  0.00  0.00    +0.073 A 
ATOM      5  C   UNL     1     -11.388  10.012  69.915  0.00  0.00    +0.021 A 
ATOM      6  C   UNL     1     -12.063   9.200  70.817  0.00  0.00    +0.082 A 
ATOM      7  C   UNL     1     -12.975   9.753  71.708  0.00  0.00    +0.072 A 
ATOM      8  C   UNL     1     -13.082  11.135  71.788  0.00  0.00    +0.012 A 
ATOM      9  C   UNL     1     -12.426  11.914  70.842  0.00  0.00    +0.017 A 
BRANCH   6  10
ATOM     10  C   UNL     1     -11.543   7.846  71.152  0.00  0.00    +0.419 C 
ATOM     11  F   UNL     1     -12.384   6.848  70.715  0.00  0.00    -0.166 F 
ATOM     12  F   UNL     1     -11.344   7.671  72.497  0.00  0.00    -0.166 F 
ATOM     13  F   UNL     1     -10.311   7.676  70.536  0.00  0.00    -0.166 F 
ENDBRANCH   6  10
BRANCH   7  14
ATOM     14  C   UNL     1     -14.033   8.887  72.175  0.00  0.00    +0.100 C 
ATOM     15  N   UNL     1     -14.953   8.243  72.485  0.00  0.00    -0.191 NA
ENDBRANCH   7  14
ENDBRANCH   2   4
BRANCH   1  17
ATOM     16  C   UNL     1      -9.166  14.235  66.844  0.00  0.00    +0.044 C 
ATOM     17  C   UNL     1     -10.550  13.722  67.021  0.00  0.00    +0.218 C 
ATOM     18  O   UNL     1     -10.909  13.014  65.872  0.00  0.00    -0.214 OA
BRANCH  17  19
ATOM     19  C   UNL     1     -11.554  14.774  67.383  0.00  0.00    +0.195 C 
BRANCH  19  20
ATOM     20  S   UNL     1     -11.039  15.830  68.695  0.00  0.00    +0.012 S 
ATOM     21  O   UNL     1     -11.102  17.278  68.341  0.00  0.00    -0.169 OA
ATOM     22  O   UNL     1      -9.587  15.510  68.973  0.00  0.00    -0.169 OA
BRANCH  20  23
ATOM     23  C   UNL     1     -11.914  15.478  70.167  0.00  0.00    +0.106 A 
ATOM     24  C   UNL     1     -11.187  15.464  71.344  0.00  0.00    +0.021 A 
ATOM     25  C   UNL     1     -11.867  15.546  72.548  0.00  0.00    +0.031 A 
ATOM     26  C   UNL     1     -13.247  15.640  72.558  0.00  0.00    +0.140 A 
ATOM     27  F   UNL     1     -13.904  16.230  73.595  0.00  0.00    -0.204 F 
ATOM     28  C   UNL     1     -13.925  15.353  71.380  0.00  0.00    +0.031 A 
ATOM     29  C   UNL     1     -13.243  15.132  70.191  0.00  0.00    +0.021 A 
ENDBRANCH  20  23
ENDBRANCH  19  20
ENDBRANCH  17  19
ENDBRANCH   1  17
TORSDOF 7
ENDMDL
MODEL 5
REMARK VINA RESULT:      -7.7      1.899      2.533
REMARK  Name = 
REMARK  7 active torsions:
REMARK  status: ('A' for Active; 'I' for Inactive)
REMARK    1  A    between atoms: C_2  and  C_4
REMARK    2  A    between atoms: C_2  and  C_15
REMARK    3  A    between atoms: C_4  and  S_5
REMARK    4  A    between atoms: S_5  and  C_8
REMARK    5  A    between atoms: N_17  and  C_18
REMARK    6  A    between atoms: C_21  and  C_22
REMARK    7  A    between atoms: C_24  and  C_25
REMARK                            x       y       z     vdW  Elec       q    Type
REMARK                         _______ _______ _______ _____ _____    ______ ____
ROOT
ATOM      1  C   UNL     1     -10.801  11.909  66.024  0.00  0.00    +0.275 C 
ATOM      2  N   UNL     1     -11.462  10.934  66.838  0.00  0.00    -0.177 NA
ATOM      3  O   UNL     1      -9.631  12.219  66.400  0.00  0.00    -0.270 OA
ENDROOT
BRANCH   2   4
ATOM      4  C   UNL     1     -11.296  10.862  68.237  0.00  0.00    +0.073 A 
ATOM      5  C   UNL     1     -10.698   9.779  68.868  0.00  0.00    +0.021 A 
ATOM      6  C   UNL     1     -11.127   9.427  70.142  0.00  0.00    +0.082 A 
ATOM      7  C   UNL     1     -11.975  10.269  70.851  0.00  0.00    +0.072 A 
ATOM      8  C   UNL     1     -12.256  11.528  70.335  0.00  0.00    +0.012 A 
ATOM      9  C   UNL     1     -11.848  11.828  69.041  0.00  0.00    +0.017 A 
BRANCH   6  10
ATOM     10  C   UNL     1     -10.388   8.406  70.934  0.00  0.00    +0.419 C 
ATOM     11  F   UNL     1     -11.131   7.264  71.124  0.00  0.00    -0.166 F 
ATOM     12  F   UNL     1     -10.000   8.868  72.165  0.00  0.00    -0.166 F 
ATOM     13  F   UNL     1      -9.231   8.062  70.250  0.00  0.00    -0.166 F 
ENDBRANCH   6  10
BRANCH   7  14
ATOM     14  C   UNL     1     -12.832   9.649  71.835  0.00  0.00    +0.100 C 
ATOM     15  N   UNL     1     -13.490   9.054  72.589  0.00  0.00    -0.191 NA
ENDBRANCH   7  14
ENDBRANCH   2   4
BRANCH   1  17
ATOM     16  C   UNL     1     -10.640  11.104  63.767  0.00  0.00    +0.044 C 
ATOM     17  C   UNL     1     -11.240  12.167  64.617  0.00  0.00    +0.218 C 
ATOM     18  O   UNL     1     -12.629  12.020  64.591  0.00  0.00    -0.214 OA
BRANCH  17  19
ATOM     19  C   UNL     1     -10.804  13.556  64.262  0.00  0.00    +0.195 C 
BRANCH  19  20
ATOM     20  S   UNL     1     -11.796  14.820  64.982  0.00  0.00    +0.012 S 
ATOM     21  O   UNL     1     -13.176  14.363  65.317  0.00  0.00    -0.169 OA
ATOM     22  O   UNL     1     -11.936  15.914  63.946  0.00  0.00    -0.169 OA
BRANCH  20  23
ATOM     23  C   UNL     1     -10.995  15.542  66.358  0.00  0.00    +0.106 A 
ATOM     24  C   UNL     1      -9.919  16.372  66.098  0.00  0.00    +0.021 A 
ATOM     25  C   UNL     1      -9.485  17.233  67.092  0.00  0.00    +0.031 A 
ATOM     26  C   UNL     1     -10.124  17.251  68.319  0.00  0.00    +0.140 A 
ATOM     27  F   UNL     1     -10.110  18.364  69.103  0.00  0.00    -0.204 F 
ATOM     28  C   UNL     1     -10.987  16.204  68.615  0.00  0.00    +0.031 A 
ATOM     29  C   UNL     1     -11.323  15.253  67.660  0.00  0.00    +0.021 A 
ENDBRANCH  20  23
ENDBRANCH  19  20
ENDBRANCH  17  19
ENDBRANCH   1  17
TORSDOF 7
ENDMDL
MODEL 6
REMARK VINA RESULT:      -7.7      3.883      8.293
REMARK  Name = 
REMARK  7 active torsions:
REMARK  status: ('A' for Active; 'I' for Inactive)
REMARK    1  A    between atoms: C_2  and  C_4
REMARK    2  A    between atoms: C_2  and  C_15
REMARK    3  A    between atoms: C_4  and  S_5
REMARK    4  A    between atoms: S_5  and  C_8
REMARK    5  A    between atoms: N_17  and  C_18
REMARK    6  A    between atoms: C_21  and  C_22
REMARK    7  A    between atoms: C_24  and  C_25
REMARK                            x       y       z     vdW  Elec       q    Type
REMARK                         _______ _______ _______ _____ _____    ______ ____
ROOT
ATOM      1  C   UNL     1     -10.766  15.677  65.634  0.00  0.00    +0.275 C 
ATOM      2  N   UNL     1      -9.694  15.987  66.533  0.00  0.00    -0.177 NA
ATOM      3  O   UNL     1     -10.898  16.479  64.661  0.00  0.00    -0.270 OA
ENDROOT
BRANCH   2   4
ATOM      4  C   UNL     1      -9.317  17.308  66.853  0.00  0.00    +0.073 A 
ATOM      5  C   UNL     1      -8.228  17.941  66.269  0.00  0.00    +0.021 A 
ATOM      6  C   UNL     1      -7.516  18.871  67.016  0.00  0.00    +0.082 A 
ATOM      7  C   UNL     1      -8.013  19.317  68.234  0.00  0.00    +0.072 A 
ATOM      8  C   UNL     1      -9.295  18.941  68.613  0.00  0.00    +0.012 A 
ATOM      9  C   UNL     1      -9.960  17.976  67.866  0.00  0.00    +0.017 A 
BRANCH   6  10
ATOM     10  C   UNL     1      -6.470  19.715  66.375  0.00  0.00    +0.419 C 
ATOM     11  F   UNL     1      -5.207  19.395  66.817  0.00  0.00    -0.166 F 
ATOM     12  F   UNL     1      -6.665  21.055  66.588  0.00  0.00    -0.166 F 
ATOM     13  F   UNL     1      -6.514  19.515  65.003  0.00  0.00    -0.166 F 
ENDBRANCH   6  10
BRANCH   7  14
ATOM     14  C   UNL     1      -7.044  19.775  69.203  0.00  0.00    +0.100 C 
ATOM     15  N   UNL     1      -6.188  20.130  69.907  0.00  0.00    -0.191 NA
ENDBRANCH   7  14
ENDBRANCH   2   4
BRANCH   1  17
ATOM     16  C   UNL     1     -12.070  14.188  64.275  0.00  0.00    +0.044 C 
ATOM     17  C   UNL     1     -11.346  14.300  65.568  0.00  0.00    +0.218 C 
ATOM     18  O   UNL     1     -10.272  13.407  65.551  0.00  0.00    -0.214 OA
BRANCH  17  19
ATOM     19  C   UNL     1     -12.216  14.126  66.776  0.00  0.00    +0.195 C 
BRANCH  19  20
ATOM     20  S   UNL     1     -11.460  13.204  68.072  0.00  0.00    +0.012 S 
ATOM     21  O   UNL     1      -9.987  13.046  67.898  0.00  0.00    -0.169 OA
ATOM     22  O   UNL     1     -12.057  11.815  68.031  0.00  0.00    -0.169 OA
BRANCH  20  23
ATOM     23  C   UNL     1     -11.865  13.870  69.637  0.00  0.00    +0.106 A 
ATOM     24  C   UNL     1     -11.548  15.198  69.859  0.00  0.00    +0.021 A 
ATOM     25  C   UNL     1     -12.152  15.860  70.915  0.00  0.00    +0.031 A 
ATOM     26  C   UNL     1     -13.054  15.193  71.725  0.00  0.00    +0.140 A 
ATOM     27  F   UNL     1     -14.028  15.867  72.397  0.00  0.00    -0.204 F 
ATOM     28  C   UNL     1     -13.102  13.808  71.637  0.00  0.00    +0.031 A 
ATOM     29  C   UNL     1     -12.388  13.121  70.663  0.00  0.00    +0.021 A 
ENDBRANCH  20  23
ENDBRANCH  19  20
ENDBRANCH  17  19
ENDBRANCH   1  17
TORSDOF 7
ENDMDL
MODEL 7
REMARK VINA RESULT:      -7.7      3.607      9.041
REMARK  Name = 
REMARK  7 active torsions:
REMARK  status: ('A' for Active; 'I' for Inactive)
REMARK    1  A    between atoms: C_2  and  C_4
REMARK    2  A    between atoms: C_2  and  C_15
REMARK    3  A    between atoms: C_4  and  S_5
REMARK    4  A    between atoms: S_5  and  C_8
REMARK    5  A    between atoms: N_17  and  C_18
REMARK    6  A    between atoms: C_21  and  C_22
REMARK    7  A    between atoms: C_24  and  C_25
REMARK                            x       y       z     vdW  Elec       q    Type
REMARK                         _______ _______ _______ _____ _____    ______ ____
ROOT
ATOM      1  C   UNL     1     -11.015  15.981  65.211  0.00  0.00    +0.275 C 
ATOM      2  N   UNL     1      -9.896  16.191  66.080  0.00  0.00    -0.177 NA
ATOM      3  O   UNL     1     -11.229  16.913  64.378  0.00  0.00    -0.270 OA
ENDROOT
BRANCH   2   4
ATOM      4  C   UNL     1      -9.532  17.461  66.572  0.00  0.00    +0.073 A 
ATOM      5  C   UNL     1      -8.464  18.187  66.061  0.00  0.00    +0.021 A 
ATOM      6  C   UNL     1      -7.751  19.018  66.915  0.00  0.00    +0.082 A 
ATOM      7  C   UNL     1      -8.230  19.284  68.192  0.00  0.00    +0.072 A 
ATOM      8  C   UNL     1      -9.498  18.837  68.539  0.00  0.00    +0.012 A 
ATOM      9  C   UNL     1     -10.163  17.973  67.679  0.00  0.00    +0.017 A 
BRANCH   6  10
ATOM     10  C   UNL     1      -6.731  19.961  66.377  0.00  0.00    +0.419 C 
ATOM     11  F   UNL     1      -5.450  19.560  66.678  0.00  0.00    -0.166 F 
ATOM     12  F   UNL     1      -6.893  21.240  66.842  0.00  0.00    -0.166 F 
ATOM     13  F   UNL     1      -6.856  20.013  64.997  0.00  0.00    -0.166 F 
ENDBRANCH   6  10
BRANCH   7  14
ATOM     14  C   UNL     1      -7.248  19.621  69.197  0.00  0.00    +0.100 C 
ATOM     15  N   UNL     1      -6.420  19.969  69.939  0.00  0.00    -0.191 NA
ENDBRANCH   7  14
ENDBRANCH   2   4
BRANCH   1  17
ATOM     16  C   UNL     1     -12.361  14.240  66.173  0.00  0.00    +0.044 C 
ATOM     17  C   UNL     1     -11.564  14.610  64.973  0.00  0.00    +0.218 C 
ATOM     18  O   UNL     1     -12.429  14.702  63.881  0.00  0.00    -0.214 OA
BRANCH  17  19
ATOM     19  C   UNL     1     -10.400  13.705  64.707  0.00  0.00    +0.195 C 
BRANCH  19  20
ATOM     20  S   UNL     1     -10.859  12.079  64.210  0.00  0.00    +0.012 S 
ATOM     21  O   UNL     1     -10.328  11.704  62.867  0.00  0.00    -0.169 OA
ATOM     22  O   UNL     1     -12.369  12.061  64.104  0.00  0.00    -0.169 OA
BRANCH  20  23
ATOM     23  C   UNL     1     -10.436  10.904  65.432  0.00  0.00    +0.106 A 
ATOM     24  C   UNL     1     -10.937  11.109  66.705  0.00  0.00    +0.021 A 
ATOM     25  C   UNL     1     -10.935  10.052  67.600  0.00  0.00    +0.031 A 
ATOM     26  C   UNL     1     -10.436   8.820  67.216  0.00  0.00    +0.140 A 
ATOM     27  F   UNL     1     -10.865   7.672  67.809  0.00  0.00    -0.204 F 
ATOM     28  C   UNL     1      -9.687   8.760  66.047  0.00  0.00    +0.031 A 
ATOM     29  C   UNL     1      -9.570   9.861  65.208  0.00  0.00    +0.021 A 
ENDBRANCH  20  23
ENDBRANCH  19  20
ENDBRANCH  17  19
ENDBRANCH   1  17
TORSDOF 7
ENDMDL
MODEL 8
REMARK VINA RESULT:      -7.6      2.600      2.960
REMARK  Name = 
REMARK  7 active torsions:
REMARK  status: ('A' for Active; 'I' for Inactive)
REMARK    1  A    between atoms: C_2  and  C_4
REMARK    2  A    between atoms: C_2  and  C_15
REMARK    3  A    between atoms: C_4  and  S_5
REMARK    4  A    between atoms: S_5  and  C_8
REMARK    5  A    between atoms: N_17  and  C_18
REMARK    6  A    between atoms: C_21  and  C_22
REMARK    7  A    between atoms: C_24  and  C_25
REMARK                            x       y       z     vdW  Elec       q    Type
REMARK                         _______ _______ _______ _____ _____    ______ ____
ROOT
ATOM      1  C   UNL     1     -10.558  11.544  66.865  0.00  0.00    +0.275 C 
ATOM      2  N   UNL     1     -11.493  10.695  67.542  0.00  0.00    -0.177 NA
ATOM      3  O   UNL     1      -9.393  11.566  67.366  0.00  0.00    -0.270 OA
ENDROOT
BRANCH   2   4
ATOM      4  C   UNL     1     -11.492  10.513  68.940  0.00  0.00    +0.073 A 
ATOM      5  C   UNL     1     -11.048   9.344  69.545  0.00  0.00    +0.021 A 
ATOM      6  C   UNL     1     -11.642   8.939  70.734  0.00  0.00    +0.082 A 
ATOM      7  C   UNL     1     -12.502   9.794  71.411  0.00  0.00    +0.072 A 
ATOM      8  C   UNL     1     -12.632  11.104  70.969  0.00  0.00    +0.012 A 
ATOM      9  C   UNL     1     -12.060  11.461  69.754  0.00  0.00    +0.017 A 
BRANCH   6  10
ATOM     10  C   UNL     1     -11.071   7.810  71.518  0.00  0.00    +0.419 C 
ATOM     11  F   UNL     1     -11.876   6.695  71.476  0.00  0.00    -0.166 F 
ATOM     12  F   UNL     1     -10.862   8.130  72.834  0.00  0.00    -0.166 F 
ATOM     13  F   UNL     1      -9.836   7.474  70.983  0.00  0.00    -0.166 F 
ENDBRANCH   6  10
BRANCH   7  14
ATOM     14  C   UNL     1     -13.507   9.177  72.246  0.00  0.00    +0.100 C 
ATOM     15  N   UNL     1     -14.390   8.717  72.850  0.00  0.00    -0.191 NA
ENDBRANCH   7  14
ENDBRANCH   2   4
BRANCH   1  17
ATOM     16  C   UNL     1     -10.435  10.811  64.581  0.00  0.00    +0.044 C 
ATOM     17  C   UNL     1     -10.783  11.968  65.448  0.00  0.00    +0.218 C 
ATOM     18  O   UNL     1     -12.149  12.224  65.313  0.00  0.00    -0.214 OA
BRANCH  17  19
ATOM     19  C   UNL     1      -9.946  13.187  65.211  0.00  0.00    +0.195 C 
BRANCH  19  20
ATOM     20  S   UNL     1     -10.735  14.694  65.666  0.00  0.00    +0.012 S 
ATOM     21  O   UNL     1     -12.041  14.905  64.974  0.00  0.00    -0.169 OA
ATOM     22  O   UNL     1      -9.823  15.819  65.229  0.00  0.00    -0.169 OA
BRANCH  20  23
ATOM     23  C   UNL     1     -10.887  14.826  67.402  0.00  0.00    +0.106 A 
ATOM     24  C   UNL     1      -9.733  15.091  68.118  0.00  0.00    +0.021 A 
ATOM     25  C   UNL     1      -9.847  15.552  69.420  0.00  0.00    +0.031 A 
ATOM     26  C   UNL     1     -11.098  15.738  69.981  0.00  0.00    +0.140 A 
ATOM     27  F   UNL     1     -11.291  16.636  70.986  0.00  0.00    -0.204 F 
ATOM     28  C   UNL     1     -12.190  15.181  69.328  0.00  0.00    +0.031 A 
ATOM     29  C   UNL     1     -12.060  14.592  68.077  0.00  0.00    +0.021 A 
ENDBRANCH  20  23
ENDBRANCH  19  20
ENDBRANCH  17  19
ENDBRANCH   1  17
TORSDOF 7
ENDMDL
MODEL 9
REMARK VINA RESULT:      -7.6      1.876      2.456
REMARK  Name = 
REMARK  7 active torsions:
REMARK  status: ('A' for Active; 'I' for Inactive)
REMARK    1  A    between atoms: C_2  and  C_4
REMARK    2  A    between atoms: C_2  and  C_15
REMARK    3  A    between atoms: C_4  and  S_5
REMARK    4  A    between atoms: S_5  and  C_8
REMARK    5  A    between atoms: N_17  and  C_18
REMARK    6  A    between atoms: C_21  and  C_22
REMARK    7  A    between atoms: C_24  and  C_25
REMARK                            x       y       z     vdW  Elec       q    Type
REMARK                         _______ _______ _______ _____ _____    ______ ____
ROOT
ATOM      1  C   UNL     1     -11.538  12.803  68.078  0.00  0.00    +0.275 C 
ATOM      2  N   UNL     1     -11.631  12.329  69.426  0.00  0.00    -0.177 NA
ATOM      3  O   UNL     1     -12.070  12.052  67.207  0.00  0.00    -0.270 OA
ENDROOT
BRANCH   2   4
ATOM      4  C   UNL     1     -11.566  10.962  69.766  0.00  0.00    +0.073 A 
ATOM      5  C   UNL     1     -12.600  10.299  70.414  0.00  0.00    +0.021 A 
ATOM      6  C   UNL     1     -12.287   9.259  71.281  0.00  0.00    +0.082 A 
ATOM      7  C   UNL     1     -10.994   8.753  71.327  0.00  0.00    +0.072 A 
ATOM      8  C   UNL     1     -10.068   9.192  70.390  0.00  0.00    +0.012 A 
ATOM      9  C   UNL     1     -10.401  10.263  69.569  0.00  0.00    +0.017 A 
BRANCH   6  10
ATOM     10  C   UNL     1     -13.360   8.394  71.844  0.00  0.00    +0.419 C 
ATOM     11  F   UNL     1     -13.016   7.062  71.816  0.00  0.00    -0.166 F 
ATOM     12  F   UNL     1     -14.555   8.536  71.188  0.00  0.00    -0.166 F 
ATOM     13  F   UNL     1     -13.580   8.758  73.165  0.00  0.00    -0.166 F 
ENDBRANCH   6  10
BRANCH   7  14
ATOM     14  C   UNL     1     -10.578   8.146  72.571  0.00  0.00    +0.100 C 
ATOM     15  N   UNL     1     -10.246   7.560  73.521  0.00  0.00    -0.191 NA
ENDBRANCH   7  14
ENDBRANCH   2   4
BRANCH   1  17
ATOM     16  C   UNL     1     -11.914  14.546  66.469  0.00  0.00    +0.044 C 
ATOM     17  C   UNL     1     -11.285  14.248  67.782  0.00  0.00    +0.218 C 
ATOM     18  O   UNL     1     -11.947  14.986  68.766  0.00  0.00    -0.214 OA
BRANCH  17  19
ATOM     19  C   UNL     1      -9.801  14.454  67.813  0.00  0.00    +0.195 C 
BRANCH  19  20
ATOM     20  S   UNL     1      -9.219  15.624  66.632  0.00  0.00    +0.012 S 
ATOM     21  O   UNL     1      -9.487  15.216  65.222  0.00  0.00    -0.169 OA
ATOM     22  O   UNL     1      -7.716  15.697  66.789  0.00  0.00    -0.169 OA
BRANCH  20  23
ATOM     23  C   UNL     1      -9.831  17.225  66.977  0.00  0.00    +0.106 A 
ATOM     24  C   UNL     1      -9.695  17.686  68.274  0.00  0.00    +0.021 A 
ATOM     25  C   UNL     1      -9.828  19.043  68.516  0.00  0.00    +0.031 A 
ATOM     26  C   UNL     1     -10.094  19.910  67.471  0.00  0.00    +0.140 A 
ATOM     27  F   UNL     1      -9.727  21.220  67.533  0.00  0.00    -0.204 F 
ATOM     28  C   UNL     1     -10.509  19.361  66.264  0.00  0.00    +0.031 A 
ATOM     29  C   UNL     1     -10.509  17.988  66.058  0.00  0.00    +0.021 A 
ENDBRANCH  20  23
ENDBRANCH  19  20
ENDBRANCH  17  19
ENDBRANCH   1  17
TORSDOF 7
ENDMDL
