MODEL 1
REMARK VINA RESULT:      -5.6      0.000      0.000
REMARK  Name = 
REMARK  4 active torsions:
REMARK  status: ('A' for Active; 'I' for Inactive)
REMARK    1  A    between atoms: C_2  and  C_3
REMARK    2  A    between atoms: C_3  and  C_4
REMARK    3  A    between atoms: C_4  and  C_5
REMARK    4  A    between atoms: C_5  and  C_6
REMARK                            x       y       z     vdW  Elec       q    Type
REMARK                         _______ _______ _______ _____ _____    ______ ____
ROOT
ATOM      1  C   UNL     1     -11.359  13.144  66.014  0.00  0.00    +0.145 C 
ATOM      2  C   UNL     1     -12.210  13.290  64.791  0.00  0.00    +0.257 C 
ATOM      3  O   UNL     1     -13.173  12.470  64.692  0.00  0.00    -0.272 OA
ATOM      4  N   UNL     1     -12.531  14.646  64.450  0.00  0.00    -0.125 NA
ATOM      5  C   UNL     1     -11.428  15.559  64.447  0.00  0.00    +0.352 C 
ATOM      6  O   UNL     1     -11.622  16.695  63.972  0.00  0.00    -0.248 OA
ATOM      7  N   UNL     1     -10.167  15.055  64.854  0.00  0.00    -0.125 NA
ATOM      8  C   UNL     1     -10.137  13.981  65.799  0.00  0.00    +0.257 C 
ATOM      9  O   UNL     1      -9.207  13.914  66.657  0.00  0.00    -0.272 OA
ENDROOT
BRANCH   1  10
ATOM     10  C   UNL     1     -12.132  13.780  67.135  0.00  0.00    +0.044 C 
BRANCH  10  12
ATOM     11  C   UNL     1     -11.636  13.904  69.517  0.00  0.00    -0.005 C 
ATOM     12  C   UNL     1     -11.902  13.143  68.448  0.00  0.00    -0.025 C 
ENDBRANCH  10  12
ENDBRANCH   1  10
BRANCH   1  13
ATOM     13  C   UNL     1     -10.978  11.717  66.274  0.00  0.00    +0.018 C 
BRANCH  13  14
ATOM     14  C   UNL     1      -9.838  11.383  65.321  0.00  0.00    +0.001 C 
ATOM     15  C   UNL     1      -8.791  10.583  66.048  0.00  0.00    +0.000 C 
ATOM     16  C   UNL     1     -10.300  10.593  64.130  0.00  0.00    +0.000 C 
ENDBRANCH  13  14
ENDBRANCH   1  13
TORSDOF 4
ENDMDL
MODEL 2
REMARK VINA RESULT:      -5.1      3.485      5.037
REMARK  Name = 
REMARK  4 active torsions:
REMARK  status: ('A' for Active; 'I' for Inactive)
REMARK    1  A    between atoms: C_2  and  C_3
REMARK    2  A    between atoms: C_3  and  C_4
REMARK    3  A    between atoms: C_4  and  C_5
REMARK    4  A    between atoms: C_5  and  C_6
REMARK                            x       y       z     vdW  Elec       q    Type
REMARK                         _______ _______ _______ _____ _____    ______ ____
ROOT
ATOM      1  C   UNL     1      -9.930  16.805  67.642  0.00  0.00    +0.145 C 
ATOM      2  C   UNL     1      -9.384  15.879  66.600  0.00  0.00    +0.257 C 
ATOM      3  O   UNL     1      -8.739  14.879  67.039  0.00  0.00    -0.272 OA
ATOM      4  N   UNL     1     -10.292  15.592  65.527  0.00  0.00    -0.125 NA
ATOM      5  C   UNL     1     -10.941  16.728  64.946  0.00  0.00    +0.352 C 
ATOM      6  O   UNL     1     -11.584  16.548  63.894  0.00  0.00    -0.248 OA
ATOM      7  N   UNL     1     -10.686  17.992  65.535  0.00  0.00    -0.125 NA
ATOM      8  C   UNL     1     -10.383  18.043  66.933  0.00  0.00    +0.257 C 
ATOM      9  O   UNL     1     -10.770  19.027  67.632  0.00  0.00    -0.272 OA
ENDROOT
BRANCH   1  10
ATOM     10  C   UNL     1     -11.163  16.138  68.185  0.00  0.00    +0.044 C 
BRANCH  10  12
ATOM     11  C   UNL     1     -12.307  15.635  70.276  0.00  0.00    -0.005 C 
ATOM     12  C   UNL     1     -11.212  16.097  69.661  0.00  0.00    -0.025 C 
ENDBRANCH  10  12
ENDBRANCH   1  10
BRANCH   1  13
ATOM     13  C   UNL     1      -8.913  17.145  68.689  0.00  0.00    +0.018 C 
BRANCH  13  14
ATOM     14  C   UNL     1      -7.823  17.956  68.003  0.00  0.00    +0.001 C 
ATOM     15  C   UNL     1      -7.626  19.257  68.733  0.00  0.00    +0.000 C 
ATOM     16  C   UNL     1      -6.509  17.230  67.959  0.00  0.00    +0.000 C 
ENDBRANCH  13  14
ENDBRANCH   1  13
TORSDOF 4
ENDMDL
MODEL 3
REMARK VINA RESULT:      -5.1      1.311      3.295
REMARK  Name = 
REMARK  4 active torsions:
REMARK  status: ('A' for Active; 'I' for Inactive)
REMARK    1  A    between atoms: C_2  and  C_3
REMARK    2  A    between atoms: C_3  and  C_4
REMARK    3  A    between atoms: C_4  and  C_5
REMARK    4  A    between atoms: C_5  and  C_6
REMARK                            x       y       z     vdW  Elec       q    Type
REMARK                         _______ _______ _______ _____ _____    ______ ____
ROOT
ATOM      1  C   UNL     1     -11.235  13.107  66.016  0.00  0.00    +0.145 C 
ATOM      2  C   UNL     1     -10.821  14.439  66.563  0.00  0.00    +0.257 C 
ATOM      3  O   UNL     1      -9.954  14.405  67.488  0.00  0.00    -0.272 OA
ATOM      4  N   UNL     1     -10.608  15.449  65.567  0.00  0.00    -0.125 NA
ATOM      5  C   UNL     1     -11.639  15.572  64.582  0.00  0.00    +0.352 C 
ATOM      6  O   UNL     1     -11.591  16.557  63.820  0.00  0.00    -0.248 OA
ATOM      7  N   UNL     1     -12.709  14.644  64.643  0.00  0.00    -0.125 NA
ATOM      8  C   UNL     1     -12.449  13.340  65.172  0.00  0.00    +0.257 C 
ATOM      9  O   UNL     1     -13.055  12.331  64.702  0.00  0.00    -0.272 OA
ENDROOT
BRANCH   1  10
ATOM     10  C   UNL     1     -10.133  12.681  65.087  0.00  0.00    +0.044 C 
BRANCH  10  12
ATOM     11  C   UNL     1      -9.790  11.352  63.073  0.00  0.00    -0.005 C 
ATOM     12  C   UNL     1     -10.621  12.083  63.827  0.00  0.00    -0.025 C 
ENDBRANCH  10  12
ENDBRANCH   1  10
BRANCH   1  13
ATOM     13  C   UNL     1     -11.533  12.116  67.099  0.00  0.00    +0.018 C 
BRANCH  13  14
ATOM     14  C   UNL     1     -10.358  11.148  67.152  0.00  0.00    +0.001 C 
ATOM     15  C   UNL     1      -9.700  11.228  68.503  0.00  0.00    +0.000 C 
ATOM     16  C   UNL     1     -10.775   9.726  66.907  0.00  0.00    +0.000 C 
ENDBRANCH  13  14
ENDBRANCH   1  13
TORSDOF 4
ENDMDL
MODEL 4
REMARK VINA RESULT:      -5.0      1.770      3.963
REMARK  Name = 
REMARK  4 active torsions:
REMARK  status: ('A' for Active; 'I' for Inactive)
REMARK    1  A    between atoms: C_2  and  C_3
REMARK    2  A    between atoms: C_3  and  C_4
REMARK    3  A    between atoms: C_4  and  C_5
REMARK    4  A    between atoms: C_5  and  C_6
REMARK                            x       y       z     vdW  Elec       q    Type
REMARK                         _______ _______ _______ _____ _____    ______ ____
ROOT
ATOM      1  C   UNL     1     -10.668  13.595  66.977  0.00  0.00    +0.145 C 
ATOM      2  C   UNL     1     -10.957  14.886  66.274  0.00  0.00    +0.257 C 
ATOM      3  O   UNL     1     -10.208  15.860  66.589  0.00  0.00    -0.272 OA
ATOM      4  N   UNL     1     -11.219  14.750  64.870  0.00  0.00    -0.125 NA
ATOM      5  C   UNL     1     -12.152  13.726  64.512  0.00  0.00    +0.352 C 
ATOM      6  O   UNL     1     -12.555  13.701  63.333  0.00  0.00    -0.248 OA
ATOM      7  N   UNL     1     -12.652  12.909  65.558  0.00  0.00    -0.125 NA
ATOM      8  C   UNL     1     -11.819  12.679  66.698  0.00  0.00    +0.257 C 
ATOM      9  O   UNL     1     -11.855  11.563  67.298  0.00  0.00    -0.272 OA
ENDROOT
BRANCH   1  10
ATOM     10  C   UNL     1      -9.468  13.008  66.290  0.00  0.00    +0.044 C 
BRANCH  10  12
ATOM     11  C   UNL     1      -8.173  11.184  67.258  0.00  0.00    -0.005 C 
ATOM     12  C   UNL     1      -8.444  12.495  67.225  0.00  0.00    -0.025 C 
ENDBRANCH  10  12
ENDBRANCH   1  10
BRANCH   1  13
ATOM     13  C   UNL     1     -10.493  13.780  68.454  0.00  0.00    +0.018 C 
BRANCH  13  14
ATOM     14  C   UNL     1     -11.850  14.184  69.016  0.00  0.00    +0.001 C 
ATOM     15  C   UNL     1     -12.177  13.328  70.209  0.00  0.00    +0.000 C 
ATOM     16  C   UNL     1     -11.890  15.625  69.437  0.00  0.00    +0.000 C 
ENDBRANCH  13  14
ENDBRANCH   1  13
TORSDOF 4
ENDMDL
MODEL 5
REMARK VINA RESULT:      -5.0      1.785      2.299
REMARK  Name = 
REMARK  4 active torsions:
REMARK  status: ('A' for Active; 'I' for Inactive)
REMARK    1  A    between atoms: C_2  and  C_3
REMARK    2  A    between atoms: C_3  and  C_4
REMARK    3  A    between atoms: C_4  and  C_5
REMARK    4  A    between atoms: C_5  and  C_6
REMARK                            x       y       z     vdW  Elec       q    Type
REMARK                         _______ _______ _______ _____ _____    ______ ____
ROOT
ATOM      1  C   UNL     1     -10.794  13.412  66.978  0.00  0.00    +0.145 C 
ATOM      2  C   UNL     1     -11.564  12.251  66.427  0.00  0.00    +0.257 C 
ATOM      3  O   UNL     1     -12.008  11.431  67.286  0.00  0.00    -0.272 OA
ATOM      4  N   UNL     1     -12.483  12.592  65.380  0.00  0.00    -0.125 NA
ATOM      5  C   UNL     1     -11.956  13.426  64.343  0.00  0.00    +0.352 C 
ATOM      6  O   UNL     1     -12.654  13.587  63.323  0.00  0.00    -0.248 OA
ATOM      7  N   UNL     1     -10.624  13.889  64.496  0.00  0.00    -0.125 NA
ATOM      8  C   UNL     1     -10.118  14.077  65.821  0.00  0.00    +0.257 C 
ATOM      9  O   UNL     1      -9.303  15.018  66.063  0.00  0.00    -0.272 OA
ENDROOT
BRANCH   1  10
ATOM     10  C   UNL     1     -11.820  14.379  67.498  0.00  0.00    +0.044 C 
BRANCH  10  12
ATOM     11  C   UNL     1     -11.279  16.206  69.017  0.00  0.00    -0.005 C 
ATOM     12  C   UNL     1     -11.513  14.899  68.847  0.00  0.00    -0.025 C 
ENDBRANCH  10  12
ENDBRANCH   1  10
BRANCH   1  13
ATOM     13  C   UNL     1      -9.785  12.990  68.002  0.00  0.00    +0.018 C 
BRANCH  13  14
ATOM     14  C   UNL     1      -8.771  12.106  67.288  0.00  0.00    +0.001 C 
ATOM     15  C   UNL     1      -7.392  12.685  67.455  0.00  0.00    +0.000 C 
ATOM     16  C   UNL     1      -8.765  10.699  67.813  0.00  0.00    +0.000 C 
ENDBRANCH  13  14
ENDBRANCH   1  13
TORSDOF 4
ENDMDL
MODEL 6
REMARK VINA RESULT:      -4.8      1.914      3.795
REMARK  Name = 
REMARK  4 active torsions:
REMARK  status: ('A' for Active; 'I' for Inactive)
REMARK    1  A    between atoms: C_2  and  C_3
REMARK    2  A    between atoms: C_3  and  C_4
REMARK    3  A    between atoms: C_4  and  C_5
REMARK    4  A    between atoms: C_5  and  C_6
REMARK                            x       y       z     vdW  Elec       q    Type
REMARK                         _______ _______ _______ _____ _____    ______ ____
ROOT
ATOM      1  C   UNL     1     -10.681  13.362  67.189  0.00  0.00    +0.145 C 
ATOM      2  C   UNL     1     -11.423  14.628  66.885  0.00  0.00    +0.257 C 
ATOM      3  O   UNL     1     -11.038  15.655  67.522  0.00  0.00    -0.272 OA
ATOM      4  N   UNL     1     -11.685  14.840  65.491  0.00  0.00    -0.125 NA
ATOM      5  C   UNL     1     -12.229  13.718  64.787  0.00  0.00    +0.352 C 
ATOM      6  O   UNL     1     -12.651  13.914  63.631  0.00  0.00    -0.248 OA
ATOM      7  N   UNL     1     -12.373  12.507  65.509  0.00  0.00    -0.125 NA
ATOM      8  C   UNL     1     -11.462  12.241  66.579  0.00  0.00    +0.257 C 
ATOM      9  O   UNL     1     -11.088  11.053  66.816  0.00  0.00    -0.272 OA
ENDROOT
BRANCH   1  10
ATOM     10  C   UNL     1      -9.384  13.451  66.435  0.00  0.00    +0.044 C 
BRANCH  10  12
ATOM     11  C   UNL     1      -7.477  14.676  67.331  0.00  0.00    -0.005 C 
ATOM     12  C   UNL     1      -8.197  13.547  67.310  0.00  0.00    -0.025 C 
ENDBRANCH  10  12
ENDBRANCH   1  10
BRANCH   1  13
ATOM     13  C   UNL     1     -10.513  13.143  68.662  0.00  0.00    +0.018 C 
BRANCH  13  14
ATOM     14  C   UNL     1     -11.906  12.940  69.243  0.00  0.00    +0.001 C 
ATOM     15  C   UNL     1     -11.955  11.636  69.992  0.00  0.00    +0.000 C 
ATOM     16  C   UNL     1     -12.303  14.044  70.180  0.00  0.00    +0.000 C 
ENDBRANCH  13  14
ENDBRANCH   1  13
TORSDOF 4
ENDMDL
MODEL 7
REMARK VINA RESULT:      -4.7      1.510      1.704
REMARK  Name = 
REMARK  4 active torsions:
REMARK  status: ('A' for Active; 'I' for Inactive)
REMARK    1  A    between atoms: C_2  and  C_3
REMARK    2  A    between atoms: C_3  and  C_4
REMARK    3  A    between atoms: C_4  and  C_5
REMARK    4  A    between atoms: C_5  and  C_6
REMARK                            x       y       z     vdW  Elec       q    Type
REMARK                         _______ _______ _______ _____ _____    ______ ____
ROOT
ATOM      1  C   UNL     1     -11.144  13.845  66.217  0.00  0.00    +0.145 C 
ATOM      2  C   UNL     1     -11.301  14.757  65.039  0.00  0.00    +0.257 C 
ATOM      3  O   UNL     1     -12.424  14.703  64.451  0.00  0.00    -0.272 OA
ATOM      4  N   UNL     1     -10.783  16.079  65.239  0.00  0.00    -0.125 NA
ATOM      5  C   UNL     1      -9.466  16.149  65.798  0.00  0.00    +0.352 C 
ATOM      6  O   UNL     1      -8.903  17.260  65.808  0.00  0.00    -0.248 OA
ATOM      7  N   UNL     1      -8.852  14.925  66.165  0.00  0.00    -0.125 NA
ATOM      8  C   UNL     1      -9.690  13.839  66.574  0.00  0.00    +0.257 C 
ATOM      9  O   UNL     1      -9.297  13.034  67.471  0.00  0.00    -0.272 OA
ENDROOT
BRANCH   1  10
ATOM     10  C   UNL     1     -11.869  14.509  67.354  0.00  0.00    +0.044 C 
BRANCH  10  12
ATOM     11  C   UNL     1     -12.056  14.159  69.758  0.00  0.00    -0.005 C 
ATOM     12  C   UNL     1     -12.058  13.631  68.527  0.00  0.00    -0.025 C 
ENDBRANCH  10  12
ENDBRANCH   1  10
BRANCH   1  13
ATOM     13  C   UNL     1     -11.617  12.453  65.925  0.00  0.00    +0.018 C 
BRANCH  13  14
ATOM     14  C   UNL     1     -10.713  11.897  64.834  0.00  0.00    +0.001 C 
ATOM     15  C   UNL     1     -10.113  10.594  65.290  0.00  0.00    +0.000 C 
ATOM     16  C   UNL     1     -11.449  11.658  63.546  0.00  0.00    +0.000 C 
ENDBRANCH  13  14
ENDBRANCH   1  13
TORSDOF 4
ENDMDL
MODEL 8
REMARK VINA RESULT:      -4.7      3.692      4.629
REMARK  Name = 
REMARK  4 active torsions:
REMARK  status: ('A' for Active; 'I' for Inactive)
REMARK    1  A    between atoms: C_2  and  C_3
REMARK    2  A    between atoms: C_3  and  C_4
REMARK    3  A    between atoms: C_4  and  C_5
REMARK    4  A    between atoms: C_5  and  C_6
REMARK                            x       y       z     vdW  Elec       q    Type
REMARK                         _______ _______ _______ _____ _____    ______ ____
ROOT
ATOM      1  C   UNL     1      -9.552  16.460  67.620  0.00  0.00    +0.145 C 
ATOM      2  C   UNL     1     -10.806  17.178  68.014  0.00  0.00    +0.257 C 
ATOM      3  O   UNL     1     -11.520  16.595  68.885  0.00  0.00    -0.272 OA
ATOM      4  N   UNL     1     -10.645  18.590  68.206  0.00  0.00    -0.125 NA
ATOM      5  C   UNL     1      -9.937  19.278  67.168  0.00  0.00    +0.352 C 
ATOM      6  O   UNL     1      -9.943  20.524  67.196  0.00  0.00    -0.248 OA
ATOM      7  N   UNL     1      -9.407  18.493  66.114  0.00  0.00    -0.125 NA
ATOM      8  C   UNL     1      -9.022  17.144  66.398  0.00  0.00    +0.257 C 
ATOM      9  O   UNL     1      -8.026  16.628  65.807  0.00  0.00    -0.272 OA
ENDROOT
BRANCH   1  10
ATOM     10  C   UNL     1      -8.565  16.713  68.724  0.00  0.00    +0.044 C 
BRANCH  10  12
ATOM     11  C   UNL     1      -6.583  15.377  69.197  0.00  0.00    -0.005 C 
ATOM     12  C   UNL     1      -7.917  15.485  69.230  0.00  0.00    -0.025 C 
ENDBRANCH  10  12
ENDBRANCH   1  10
BRANCH   1  13
ATOM     13  C   UNL     1      -9.793  15.007  67.342  0.00  0.00    +0.018 C 
BRANCH  13  14
ATOM     14  C   UNL     1     -10.897  14.932  66.296  0.00  0.00    +0.001 C 
ATOM     15  C   UNL     1     -10.358  14.305  65.038  0.00  0.00    +0.000 C 
ATOM     16  C   UNL     1     -12.076  14.127  66.763  0.00  0.00    +0.000 C 
ENDBRANCH  13  14
ENDBRANCH   1  13
TORSDOF 4
ENDMDL
MODEL 9
REMARK VINA RESULT:      -4.6      2.361      4.446
REMARK  Name = 
REMARK  4 active torsions:
REMARK  status: ('A' for Active; 'I' for Inactive)
REMARK    1  A    between atoms: C_2  and  C_3
REMARK    2  A    between atoms: C_3  and  C_4
REMARK    3  A    between atoms: C_4  and  C_5
REMARK    4  A    between atoms: C_5  and  C_6
REMARK                            x       y       z     vdW  Elec       q    Type
REMARK                         _______ _______ _______ _____ _____    ______ ____
ROOT
ATOM      1  C   UNL     1      -9.903  15.204  67.325  0.00  0.00    +0.145 C 
ATOM      2  C   UNL     1     -10.358  16.618  67.135  0.00  0.00    +0.257 C 
ATOM      3  O   UNL     1      -9.821  17.474  67.901  0.00  0.00    -0.272 OA
ATOM      4  N   UNL     1     -10.482  17.022  65.764  0.00  0.00    -0.125 NA
ATOM      5  C   UNL     1     -11.189  16.113  64.913  0.00  0.00    +0.352 C 
ATOM      6  O   UNL     1     -11.487  16.508  63.770  0.00  0.00    -0.248 OA
ATOM      7  N   UNL     1     -11.617  14.888  65.486  0.00  0.00    -0.125 NA
ATOM      8  C   UNL     1     -10.848  14.333  66.558  0.00  0.00    +0.257 C 
ATOM      9  O   UNL     1     -10.733  13.076  66.673  0.00  0.00    -0.272 OA
ENDROOT
BRANCH   1  10
ATOM     10  C   UNL     1      -8.567  15.104  66.643  0.00  0.00    +0.044 C 
BRANCH  10  12
ATOM     11  C   UNL     1      -6.392  15.655  67.594  0.00  0.00    -0.005 C 
ATOM     12  C   UNL     1      -7.449  14.833  67.571  0.00  0.00    -0.025 C 
ENDBRANCH  10  12
ENDBRANCH   1  10
BRANCH   1  13
ATOM     13  C   UNL     1      -9.879  14.804  68.769  0.00  0.00    +0.018 C 
BRANCH  13  14
ATOM     14  C   UNL     1     -11.295  14.977  69.302  0.00  0.00    +0.001 C 
ATOM     15  C   UNL     1     -11.814  13.654  69.795  0.00  0.00    +0.000 C 
ATOM     16  C   UNL     1     -11.367  15.968  70.428  0.00  0.00    +0.000 C 
ENDBRANCH  13  14
ENDBRANCH   1  13
TORSDOF 4
ENDMDL
