MODEL 1
REMARK VINA RESULT:      -5.5      0.000      0.000
REMARK  Name = 
REMARK  5 active torsions:
REMARK  status: ('A' for Active; 'I' for Inactive)
REMARK    1  A    between atoms: C_2  and  O_3
REMARK    2  A    between atoms: O_3  and  C_4
REMARK    3  A    between atoms: C_4  and  C_6
REMARK    4  A    between atoms: N_10  and  C_11
REMARK    5  A    between atoms: C_11  and  C_13
REMARK                            x       y       z     vdW  Elec       q    Type
REMARK                         _______ _______ _______ _____ _____    ______ ____
ROOT
ATOM      1  C   UNL     1     -10.630  12.770  68.519  0.00  0.00    +0.157 A 
ATOM      2  N   UNL     1     -10.631  14.030  69.022  0.00  0.00    -0.302 N 
ATOM      3  C   UNL     1      -9.491  14.553  68.719  0.00  0.00    +0.179 A 
ATOM      4  N   UNL     1      -8.644  13.630  68.201  0.00  0.00    -0.222 NA
ATOM      5  C   UNL     1      -9.369  12.533  67.985  0.00  0.00    +0.124 A 
ENDROOT
BRANCH   1   6
ATOM      6  C   UNL     1     -11.771  11.948  68.096  0.00  0.00    +0.359 C 
ATOM      7  O   UNL     1     -11.994  11.943  66.848  0.00  0.00    -0.243 OA
BRANCH   6   8
ATOM      8  O   UNL     1     -12.181  10.851  68.792  0.00  0.00    -0.444 OA
BRANCH   8  10
ATOM      9  C   UNL     1     -12.141  10.294  70.348  0.00  0.00    +0.051 C 
ATOM     10  C   UNL     1     -11.796  10.538  70.131  0.00  0.00    +0.209 C 
ENDBRANCH   8  10
ENDBRANCH   6   8
ENDBRANCH   1   6
BRANCH   2  11
ATOM     11  C   UNL     1     -12.045  14.717  69.068  0.00  0.00    +0.110 C 
ATOM     12  C   UNL     1     -11.502  16.267  68.895  0.00  0.00    +0.029 C 
BRANCH  11  13
ATOM     13  C   UNL     1     -12.059  14.797  70.681  0.00  0.00    -0.002 A 
ATOM     14  C   UNL     1     -12.833  13.820  71.278  0.00  0.00    -0.002 A 
ATOM     15  C   UNL     1     -13.316  14.113  72.547  0.00  0.00    -0.000 A 
ATOM     16  C   UNL     1     -13.029  15.312  73.172  0.00  0.00    -0.000 A 
ATOM     17  C   UNL     1     -12.048  16.108  72.634  0.00  0.00    -0.000 A 
ATOM     18  C   UNL     1     -11.787  15.966  71.275  0.00  0.00    -0.002 A 
ENDBRANCH  11  13
ENDBRANCH   2  11
TORSDOF 5
ENDMDL
MODEL 2
REMARK VINA RESULT:      -5.5      1.157      2.075
REMARK  Name = 
REMARK  5 active torsions:
REMARK  status: ('A' for Active; 'I' for Inactive)
REMARK    1  A    between atoms: C_2  and  O_3
REMARK    2  A    between atoms: O_3  and  C_4
REMARK    3  A    between atoms: C_4  and  C_6
REMARK    4  A    between atoms: N_10  and  C_11
REMARK    5  A    between atoms: C_11  and  C_13
REMARK                            x       y       z     vdW  Elec       q    Type
REMARK                         _______ _______ _______ _____ _____    ______ ____
ROOT
ATOM      1  C   UNL     1     -10.482  12.849  68.146  0.00  0.00    +0.157 A 
ATOM      2  N   UNL     1     -10.535  13.995  68.872  0.00  0.00    -0.302 N 
ATOM      3  C   UNL     1      -9.377  14.554  68.770  0.00  0.00    +0.179 A 
ATOM      4  N   UNL     1      -8.482  13.735  68.164  0.00  0.00    -0.222 NA
ATOM      5  C   UNL     1      -9.178  12.703  67.687  0.00  0.00    +0.124 A 
ENDROOT
BRANCH   1   6
ATOM      6  C   UNL     1     -11.577  12.130  67.482  0.00  0.00    +0.359 C 
ATOM      7  O   UNL     1     -12.176  11.280  68.207  0.00  0.00    -0.243 OA
BRANCH   6   8
ATOM      8  O   UNL     1     -12.297  12.674  66.462  0.00  0.00    -0.444 OA
BRANCH   8  10
ATOM      9  C   UNL     1     -12.410  12.531  64.819  0.00  0.00    +0.051 C 
ATOM     10  C   UNL     1     -12.010  12.503  65.073  0.00  0.00    +0.209 C 
ENDBRANCH   8  10
ENDBRANCH   6   8
ENDBRANCH   1   6
BRANCH   2  11
ATOM     11  C   UNL     1     -11.953  14.673  68.923  0.00  0.00    +0.110 C 
ATOM     12  C   UNL     1     -11.415  16.230  68.807  0.00  0.00    +0.029 C 
BRANCH  11  13
ATOM     13  C   UNL     1     -11.987  14.701  70.537  0.00  0.00    -0.002 A 
ATOM     14  C   UNL     1     -12.682  13.645  71.096  0.00  0.00    -0.002 A 
ATOM     15  C   UNL     1     -13.198  13.856  72.368  0.00  0.00    -0.000 A 
ATOM     16  C   UNL     1     -13.017  15.054  73.033  0.00  0.00    -0.000 A 
ATOM     17  C   UNL     1     -12.100  15.946  72.530  0.00  0.00    -0.000 A 
ATOM     18  C   UNL     1     -11.818  15.868  71.170  0.00  0.00    -0.002 A 
ENDBRANCH  11  13
ENDBRANCH   2  11
TORSDOF 5
ENDMDL
MODEL 3
REMARK VINA RESULT:      -5.4      2.970      4.993
REMARK  Name = 
REMARK  5 active torsions:
REMARK  status: ('A' for Active; 'I' for Inactive)
REMARK    1  A    between atoms: C_2  and  O_3
REMARK    2  A    between atoms: O_3  and  C_4
REMARK    3  A    between atoms: C_4  and  C_6
REMARK    4  A    between atoms: N_10  and  C_11
REMARK    5  A    between atoms: C_11  and  C_13
REMARK                            x       y       z     vdW  Elec       q    Type
REMARK                         _______ _______ _______ _____ _____    ______ ____
ROOT
ATOM      1  C   UNL     1     -11.010  14.677  65.450  0.00  0.00    +0.157 A 
ATOM      2  N   UNL     1     -10.804  14.112  66.667  0.00  0.00    -0.302 N 
ATOM      3  C   UNL     1      -9.881  14.803  67.245  0.00  0.00    +0.179 A 
ATOM      4  N   UNL     1      -9.318  15.693  66.392  0.00  0.00    -0.222 NA
ATOM      5  C   UNL     1     -10.073  15.691  65.294  0.00  0.00    +0.124 A 
ENDROOT
BRANCH   1   6
ATOM      6  C   UNL     1     -12.228  14.672  64.630  0.00  0.00    +0.359 C 
ATOM      7  O   UNL     1     -12.419  15.724  63.949  0.00  0.00    -0.243 OA
BRANCH   6   8
ATOM      8  O   UNL     1     -12.780  13.525  64.145  0.00  0.00    -0.444 OA
BRANCH   8  10
ATOM      9  C   UNL     1     -12.324  12.109  63.422  0.00  0.00    +0.051 C 
ATOM     10  C   UNL     1     -12.070  12.510  63.434  0.00  0.00    +0.209 C 
ENDBRANCH   8  10
ENDBRANCH   6   8
ENDBRANCH   1   6
BRANCH   2  11
ATOM     11  C   UNL     1     -12.076  13.443  67.304  0.00  0.00    +0.110 C 
ATOM     12  C   UNL     1     -11.980  14.216  68.760  0.00  0.00    +0.029 C 
BRANCH  11  13
ATOM     13  C   UNL     1     -11.256  12.153  67.823  0.00  0.00    -0.002 A 
ATOM     14  C   UNL     1     -10.972  11.238  66.826  0.00  0.00    -0.002 A 
ATOM     15  C   UNL     1     -10.760   9.929  67.238  0.00  0.00    -0.000 A 
ATOM     16  C   UNL     1     -10.826   9.571  68.572  0.00  0.00    -0.000 A 
ATOM     17  C   UNL     1     -10.848  10.570  69.514  0.00  0.00    -0.000 A 
ATOM     18  C   UNL     1     -11.333  11.810  69.115  0.00  0.00    -0.002 A 
ENDBRANCH  11  13
ENDBRANCH   2  11
TORSDOF 5
ENDMDL
MODEL 4
REMARK VINA RESULT:      -5.3      3.105      4.911
REMARK  Name = 
REMARK  5 active torsions:
REMARK  status: ('A' for Active; 'I' for Inactive)
REMARK    1  A    between atoms: C_2  and  O_3
REMARK    2  A    between atoms: O_3  and  C_4
REMARK    3  A    between atoms: C_4  and  C_6
REMARK    4  A    between atoms: N_10  and  C_11
REMARK    5  A    between atoms: C_11  and  C_13
REMARK                            x       y       z     vdW  Elec       q    Type
REMARK                         _______ _______ _______ _____ _____    ______ ____
ROOT
ATOM      1  C   UNL     1     -10.541  15.881  66.339  0.00  0.00    +0.157 A 
ATOM      2  N   UNL     1     -10.890  14.767  67.032  0.00  0.00    -0.302 N 
ATOM      3  C   UNL     1     -11.390  13.940  66.177  0.00  0.00    +0.179 A 
ATOM      4  N   UNL     1     -11.572  14.524  64.967  0.00  0.00    -0.222 NA
ATOM      5  C   UNL     1     -10.963  15.708  65.026  0.00  0.00    +0.124 A 
ENDROOT
BRANCH   1   6
ATOM      6  C   UNL     1      -9.497  16.866  66.650  0.00  0.00    +0.359 C 
ATOM      7  O   UNL     1      -8.568  16.951  65.792  0.00  0.00    -0.243 OA
BRANCH   6   8
ATOM      8  O   UNL     1      -9.741  17.980  67.395  0.00  0.00    -0.444 OA
BRANCH   8  10
ATOM      9  C   UNL     1     -10.549  19.420  67.307  0.00  0.00    +0.051 C 
ATOM     10  C   UNL     1     -10.598  19.055  67.007  0.00  0.00    +0.209 C 
ENDBRANCH   8  10
ENDBRANCH   6   8
ENDBRANCH   1   6
BRANCH   2  11
ATOM     11  C   UNL     1      -9.988  14.462  68.282  0.00  0.00    +0.110 C 
ATOM     12  C   UNL     1     -10.211  12.826  68.275  0.00  0.00    +0.029 C 
BRANCH  11  13
ATOM     13  C   UNL     1     -11.189  14.720  69.331  0.00  0.00    -0.002 A 
ATOM     14  C   UNL     1     -11.115  15.945  69.968  0.00  0.00    -0.002 A 
ATOM     15  C   UNL     1     -11.750  16.033  71.200  0.00  0.00    -0.000 A 
ATOM     16  C   UNL     1     -12.419  14.955  71.748  0.00  0.00    -0.000 A 
ATOM     17  C   UNL     1     -12.673  13.869  70.945  0.00  0.00    -0.000 A 
ATOM     18  C   UNL     1     -11.825  13.669  69.861  0.00  0.00    -0.002 A 
ENDBRANCH  11  13
ENDBRANCH   2  11
TORSDOF 5
ENDMDL
MODEL 5
REMARK VINA RESULT:      -5.3      2.817      4.757
REMARK  Name = 
REMARK  5 active torsions:
REMARK  status: ('A' for Active; 'I' for Inactive)
REMARK    1  A    between atoms: C_2  and  O_3
REMARK    2  A    between atoms: O_3  and  C_4
REMARK    3  A    between atoms: C_4  and  C_6
REMARK    4  A    between atoms: N_10  and  C_11
REMARK    5  A    between atoms: C_11  and  C_13
REMARK                            x       y       z     vdW  Elec       q    Type
REMARK                         _______ _______ _______ _____ _____    ______ ____
ROOT
ATOM      1  C   UNL     1     -11.531  14.573  65.900  0.00  0.00    +0.157 A 
ATOM      2  N   UNL     1     -11.615  13.293  66.343  0.00  0.00    -0.302 N 
ATOM      3  C   UNL     1     -12.145  12.604  65.390  0.00  0.00    +0.179 A 
ATOM      4  N   UNL     1     -12.602  13.403  64.395  0.00  0.00    -0.222 NA
ATOM      5  C   UNL     1     -12.145  14.627  64.655  0.00  0.00    +0.124 A 
ENDROOT
BRANCH   1   6
ATOM      6  C   UNL     1     -10.581  15.621  66.296  0.00  0.00    +0.359 C 
ATOM      7  O   UNL     1      -9.894  16.107  65.348  0.00  0.00    -0.243 OA
BRANCH   6   8
ATOM      8  O   UNL     1     -10.790  16.430  67.372  0.00  0.00    -0.444 OA
BRANCH   8  10
ATOM      9  C   UNL     1     -10.160  16.759  68.865  0.00  0.00    +0.051 C 
ATOM     10  C   UNL     1      -9.969  16.470  68.540  0.00  0.00    +0.209 C 
ENDBRANCH   8  10
ENDBRANCH   6   8
ENDBRANCH   1   6
BRANCH   2  11
ATOM     11  C   UNL     1     -10.482  12.871  67.348  0.00  0.00    +0.110 C 
ATOM     12  C   UNL     1     -10.273  11.343  66.757  0.00  0.00    +0.029 C 
BRANCH  11  13
ATOM     13  C   UNL     1     -11.531  12.396  68.481  0.00  0.00    -0.002 A 
ATOM     14  C   UNL     1     -11.871  13.393  69.375  0.00  0.00    -0.002 A 
ATOM     15  C   UNL     1     -12.314  12.972  70.622  0.00  0.00    -0.000 A 
ATOM     16  C   UNL     1     -12.412  11.630  70.940  0.00  0.00    -0.000 A 
ATOM     17  C   UNL     1     -12.313  10.711  69.924  0.00  0.00    -0.000 A 
ATOM     18  C   UNL     1     -11.612  11.095  68.786  0.00  0.00    -0.002 A 
ENDBRANCH  11  13
ENDBRANCH   2  11
TORSDOF 5
ENDMDL
MODEL 6
REMARK VINA RESULT:      -5.2      2.348      4.519
REMARK  Name = 
REMARK  5 active torsions:
REMARK  status: ('A' for Active; 'I' for Inactive)
REMARK    1  A    between atoms: C_2  and  O_3
REMARK    2  A    between atoms: O_3  and  C_4
REMARK    3  A    between atoms: C_4  and  C_6
REMARK    4  A    between atoms: N_10  and  C_11
REMARK    5  A    between atoms: C_11  and  C_13
REMARK                            x       y       z     vdW  Elec       q    Type
REMARK                         _______ _______ _______ _____ _____    ______ ____
ROOT
ATOM      1  C   UNL     1     -11.887  14.187  67.277  0.00  0.00    +0.157 A 
ATOM      2  N   UNL     1     -11.539  12.898  67.523  0.00  0.00    -0.302 N 
ATOM      3  C   UNL     1     -11.708  12.250  66.420  0.00  0.00    +0.179 A 
ATOM      4  N   UNL     1     -12.341  13.008  65.491  0.00  0.00    -0.222 NA
ATOM      5  C   UNL     1     -12.378  14.248  65.978  0.00  0.00    +0.124 A 
ENDROOT
BRANCH   1   6
ATOM      6  C   UNL     1     -11.413  15.408  67.939  0.00  0.00    +0.359 C 
ATOM      7  O   UNL     1     -10.700  16.168  67.216  0.00  0.00    -0.243 OA
BRANCH   6   8
ATOM      8  O   UNL     1     -12.098  16.003  68.955  0.00  0.00    -0.444 OA
BRANCH   8  10
ATOM      9  C   UNL     1     -12.383  15.702  70.556  0.00  0.00    +0.051 C 
ATOM     10  C   UNL     1     -11.961  15.678  70.339  0.00  0.00    +0.209 C 
ENDBRANCH   8  10
ENDBRANCH   6   8
ENDBRANCH   1   6
BRANCH   2  11
ATOM     11  C   UNL     1     -10.414  12.718  68.606  0.00  0.00    +0.110 C 
ATOM     12  C   UNL     1      -9.432  11.754  67.692  0.00  0.00    +0.029 C 
BRANCH  11  13
ATOM     13  C   UNL     1     -11.155  11.466  69.307  0.00  0.00    -0.002 A 
ATOM     14  C   UNL     1     -12.190  11.834  70.146  0.00  0.00    -0.002 A 
ATOM     15  C   UNL     1     -12.517  10.929  71.148  0.00  0.00    -0.000 A 
ATOM     16  C   UNL     1     -11.845   9.729  71.287  0.00  0.00    -0.000 A 
ATOM     17  C   UNL     1     -11.020   9.323  70.266  0.00  0.00    -0.000 A 
ATOM     18  C   UNL     1     -10.492  10.311  69.443  0.00  0.00    -0.002 A 
ENDBRANCH  11  13
ENDBRANCH   2  11
TORSDOF 5
ENDMDL
MODEL 7
REMARK VINA RESULT:      -5.2      3.347      5.921
REMARK  Name = 
REMARK  5 active torsions:
REMARK  status: ('A' for Active; 'I' for Inactive)
REMARK    1  A    between atoms: C_2  and  O_3
REMARK    2  A    between atoms: O_3  and  C_4
REMARK    3  A    between atoms: C_4  and  C_6
REMARK    4  A    between atoms: N_10  and  C_11
REMARK    5  A    between atoms: C_11  and  C_13
REMARK                            x       y       z     vdW  Elec       q    Type
REMARK                         _______ _______ _______ _____ _____    ______ ____
ROOT
ATOM      1  C   UNL     1     -10.864  16.242  67.701  0.00  0.00    +0.157 A 
ATOM      2  N   UNL     1     -10.808  15.415  66.626  0.00  0.00    -0.302 N 
ATOM      3  C   UNL     1     -10.193  16.059  65.693  0.00  0.00    +0.179 A 
ATOM      4  N   UNL     1     -10.002  17.359  66.029  0.00  0.00    -0.222 NA
ATOM      5  C   UNL     1     -10.334  17.467  67.315  0.00  0.00    +0.124 A 
ENDROOT
BRANCH   1   6
ATOM      6  C   UNL     1     -10.944  15.893  69.125  0.00  0.00    +0.359 C 
ATOM      7  O   UNL     1      -9.827  15.809  69.719  0.00  0.00    -0.243 OA
BRANCH   6   8
ATOM      8  O   UNL     1     -12.021  16.208  69.897  0.00  0.00    -0.444 OA
BRANCH   8  10
ATOM      9  C   UNL     1     -13.060  15.522  70.984  0.00  0.00    +0.051 C 
ATOM     10  C   UNL     1     -12.703  15.301  70.762  0.00  0.00    +0.209 C 
ENDBRANCH   8  10
ENDBRANCH   6   8
ENDBRANCH   1   6
BRANCH   2  11
ATOM     11  C   UNL     1     -10.731  13.885  66.979  0.00  0.00    +0.110 C 
ATOM     12  C   UNL     1      -9.108  13.719  66.722  0.00  0.00    +0.029 C 
BRANCH  11  13
ATOM     13  C   UNL     1     -11.116  13.422  65.480  0.00  0.00    -0.002 A 
ATOM     14  C   UNL     1     -12.476  13.291  65.272  0.00  0.00    -0.002 A 
ATOM     15  C   UNL     1     -12.859  12.432  64.250  0.00  0.00    -0.000 A 
ATOM     16  C   UNL     1     -11.926  11.757  63.485  0.00  0.00    -0.000 A 
ATOM     17  C   UNL     1     -10.610  12.139  63.575  0.00  0.00    -0.000 A 
ATOM     18  C   UNL     1     -10.207  12.761  64.752  0.00  0.00    -0.002 A 
ENDBRANCH  11  13
ENDBRANCH   2  11
TORSDOF 5
ENDMDL
MODEL 8
REMARK VINA RESULT:      -5.2      2.785      4.964
REMARK  Name = 
REMARK  5 active torsions:
REMARK  status: ('A' for Active; 'I' for Inactive)
REMARK    1  A    between atoms: C_2  and  O_3
REMARK    2  A    between atoms: O_3  and  C_4
REMARK    3  A    between atoms: C_4  and  C_6
REMARK    4  A    between atoms: N_10  and  C_11
REMARK    5  A    between atoms: C_11  and  C_13
REMARK                            x       y       z     vdW  Elec       q    Type
REMARK                         _______ _______ _______ _____ _____    ______ ____
ROOT
ATOM      1  C   UNL     1     -11.709  14.580  68.494  0.00  0.00    +0.157 A 
ATOM      2  N   UNL     1     -10.878  15.601  68.822  0.00  0.00    -0.302 N 
ATOM      3  C   UNL     1     -10.775  15.599  70.108  0.00  0.00    +0.179 A 
ATOM      4  N   UNL     1     -11.656  14.739  70.675  0.00  0.00    -0.222 NA
ATOM      5  C   UNL     1     -12.184  14.029  69.678  0.00  0.00    +0.124 A 
ENDROOT
BRANCH   1   6
ATOM      6  C   UNL     1     -11.761  13.801  67.250  0.00  0.00    +0.359 C 
ATOM      7  O   UNL     1     -11.685  12.545  67.402  0.00  0.00    -0.243 OA
BRANCH   6   8
ATOM      8  O   UNL     1     -12.411  14.242  66.138  0.00  0.00    -0.444 OA
BRANCH   8  10
ATOM      9  C   UNL     1     -12.033  14.746  64.609  0.00  0.00    +0.051 C 
ATOM     10  C   UNL     1     -11.818  14.396  64.848  0.00  0.00    +0.209 C 
ENDBRANCH   8  10
ENDBRANCH   6   8
ENDBRANCH   1   6
BRANCH   2  11
ATOM     11  C   UNL     1      -9.774  15.919  67.749  0.00  0.00    +0.110 C 
ATOM     12  C   UNL     1      -8.568  16.265  68.823  0.00  0.00    +0.029 C 
BRANCH  11  13
ATOM     13  C   UNL     1     -10.223  17.464  67.605  0.00  0.00    -0.002 A 
ATOM     14  C   UNL     1     -10.507  17.840  66.305  0.00  0.00    -0.002 A 
ATOM     15  C   UNL     1     -10.385  19.193  66.019  0.00  0.00    -0.000 A 
ATOM     16  C   UNL     1     -10.006  20.106  66.986  0.00  0.00    -0.000 A 
ATOM     17  C   UNL     1     -10.001  19.700  68.299  0.00  0.00    -0.000 A 
ATOM     18  C   UNL     1      -9.843  18.340  68.543  0.00  0.00    -0.002 A 
ENDBRANCH  11  13
ENDBRANCH   2  11
TORSDOF 5
ENDMDL
MODEL 9
REMARK VINA RESULT:      -5.1      3.652      5.477
REMARK  Name = 
REMARK  5 active torsions:
REMARK  status: ('A' for Active; 'I' for Inactive)
REMARK    1  A    between atoms: C_2  and  O_3
REMARK    2  A    between atoms: O_3  and  C_4
REMARK    3  A    between atoms: C_4  and  C_6
REMARK    4  A    between atoms: N_10  and  C_11
REMARK    5  A    between atoms: C_11  and  C_13
REMARK                            x       y       z     vdW  Elec       q    Type
REMARK                         _______ _______ _______ _____ _____    ______ ____
ROOT
ATOM      1  C   UNL     1     -11.634  14.626  66.254  0.00  0.00    +0.157 A 
ATOM      2  N   UNL     1     -10.678  15.364  66.874  0.00  0.00    -0.302 N 
ATOM      3  C   UNL     1     -10.498  14.838  68.038  0.00  0.00    +0.179 A 
ATOM      4  N   UNL     1     -11.432  13.893  68.305  0.00  0.00    -0.222 NA
ATOM      5  C   UNL     1     -12.093  13.684  67.167  0.00  0.00    +0.124 A 
ENDROOT
BRANCH   1   6
ATOM      6  C   UNL     1     -11.844  14.418  64.816  0.00  0.00    +0.359 C 
ATOM      7  O   UNL     1     -12.187  15.453  64.170  0.00  0.00    -0.243 OA
BRANCH   6   8
ATOM      8  O   UNL     1     -11.193  13.450  64.113  0.00  0.00    -0.444 OA
BRANCH   8  10
ATOM      9  C   UNL     1     -11.905  12.033  63.646  0.00  0.00    +0.051 C 
ATOM     10  C   UNL     1     -11.827  12.410  63.368  0.00  0.00    +0.209 C 
ENDBRANCH   8  10
ENDBRANCH   6   8
ENDBRANCH   1   6
BRANCH   2  11
ATOM     11  C   UNL     1      -9.613  16.001  65.909  0.00  0.00    +0.110 C 
ATOM     12  C   UNL     1      -8.281  15.464  66.725  0.00  0.00    +0.029 C 
BRANCH  11  13
ATOM     13  C   UNL     1      -9.629  17.423  66.675  0.00  0.00    -0.002 A 
ATOM     14  C   UNL     1     -10.521  18.333  66.137  0.00  0.00    -0.002 A 
ATOM     15  C   UNL     1     -10.240  19.673  66.365  0.00  0.00    -0.000 A 
ATOM     16  C   UNL     1      -9.134  20.067  67.095  0.00  0.00    -0.000 A 
ATOM     17  C   UNL     1      -8.454  19.113  67.813  0.00  0.00    -0.000 A 
ATOM     18  C   UNL     1      -8.549  17.798  67.372  0.00  0.00    -0.002 A 
ENDBRANCH  11  13
ENDBRANCH   2  11
TORSDOF 5
ENDMDL
