MODEL 1
REMARK VINA RESULT:      -7.4      0.000      0.000
REMARK  Name = 
REMARK  3 active torsions:
REMARK  status: ('A' for Active; 'I' for Inactive)
REMARK    1  A    between atoms: C_2  and  C_3
REMARK    2  A    between atoms: C_9  and  C_11
REMARK    3  A    between atoms: C_11  and  C_13
REMARK                            x       y       z     vdW  Elec       q    Type
REMARK                         _______ _______ _______ _____ _____    ______ ____
ROOT
ATOM      1  C   UNL     1     -10.871  16.749  67.543  0.00  0.00    +0.168 C 
ATOM      2  N   UNL     1      -9.776  16.138  68.501  0.00  0.00    -0.123 NA
ENDROOT
BRANCH   1   3
ATOM      3  C   UNL     1      -9.800  17.847  66.971  0.00  0.00    +0.027 C 
ATOM      4  C   UNL     1      -9.999  18.974  67.945  0.00  0.00    +0.002 C 
ATOM      5  C   UNL     1      -9.017  20.295  67.466  0.00  0.00    +0.002 C 
ATOM      6  C   UNL     1      -7.531  19.851  67.964  0.00  0.00    +0.030 C 
ATOM      7  C   UNL     1      -8.039  18.508  68.357  0.00  0.00    +0.127 C 
ATOM      8  C   UNL     1      -9.157  19.263  68.457  0.00  0.00    +0.030 C 
ATOM      9  C   UNL     1      -9.713  19.996  66.998  0.00  0.00    +0.002 C 
ATOM     10  O   UNL     1      -6.999  18.283  69.132  0.00  0.00    -0.226 OA
ATOM     11  C   UNL     1      -8.459  19.677  66.103  0.00  0.00    +0.000 C 
ATOM     12  C   UNL     1      -8.414  17.531  67.375  0.00  0.00    +0.032 C 
ATOM     13  C   UNL     1     -10.410  18.760  66.214  0.00  0.00    +0.002 C 
ENDBRANCH   1   3
BRANCH   1  16
ATOM     14  C   UNL     1     -12.086  13.912  66.920  0.00  0.00    +0.167 C 
ATOM     15  N   UNL     1     -10.708  14.365  66.401  0.00  0.00    -0.269 N 
ATOM     16  C   UNL     1     -10.580  15.736  66.333  0.00  0.00    +0.244 C 
ATOM     17  O   UNL     1     -10.576  16.462  65.295  0.00  0.00    -0.273 OA
ATOM     18  C   UNL     1     -10.357  13.802  65.012  0.00  0.00    +0.076 C 
ATOM     19  C   UNL     1     -11.887  13.914  64.279  0.00  0.00    +0.023 C 
ATOM     20  C   UNL     1     -11.290  12.374  64.793  0.00  0.00    +0.022 C 
ATOM     21  C   UNL     1     -12.879  13.893  65.520  0.00  0.00    +0.037 C 
BRANCH  14  23
ATOM     22  N   UNL     1     -11.728  11.362  67.666  0.00  0.00    -0.194 NA
ATOM     23  C   UNL     1     -11.654  12.375  67.053  0.00  0.00    +0.093 C 
ENDBRANCH  14  23
ENDBRANCH   1  16
TORSDOF 3
ENDMDL
MODEL 2
REMARK VINA RESULT:      -7.2      1.694      2.849
REMARK  Name = 
REMARK  3 active torsions:
REMARK  status: ('A' for Active; 'I' for Inactive)
REMARK    1  A    between atoms: C_2  and  C_3
REMARK    2  A    between atoms: C_9  and  C_11
REMARK    3  A    between atoms: C_11  and  C_13
REMARK                            x       y       z     vdW  Elec       q    Type
REMARK                         _______ _______ _______ _____ _____    ______ ____
ROOT
ATOM      1  C   UNL     1      -8.990  16.044  66.136  0.00  0.00    +0.168 C 
ATOM      2  N   UNL     1     -10.318  16.345  65.340  0.00  0.00    -0.123 NA
ENDROOT
BRANCH   1   3
ATOM      3  C   UNL     1      -9.285  17.291  67.155  0.00  0.00    +0.027 C 
ATOM      4  C   UNL     1      -8.294  18.306  66.659  0.00  0.00    +0.002 C 
ATOM      5  C   UNL     1      -8.371  19.689  67.669  0.00  0.00    +0.002 C 
ATOM      6  C   UNL     1      -9.718  20.447  67.155  0.00  0.00    +0.030 C 
ATOM      7  C   UNL     1     -10.042  19.309  66.253  0.00  0.00    +0.127 C 
ATOM      8  C   UNL     1      -8.698  19.201  66.357  0.00  0.00    +0.030 C 
ATOM      9  C   UNL     1      -8.080  18.892  67.937  0.00  0.00    +0.002 C 
ATOM     10  O   UNL     1     -10.860  20.045  65.531  0.00  0.00    -0.226 OA
ATOM     11  C   UNL     1      -9.412  19.126  68.742  0.00  0.00    +0.000 C 
ATOM     12  C   UNL     1     -10.494  18.048  66.769  0.00  0.00    +0.032 C 
ATOM     13  C   UNL     1      -8.396  17.316  68.150  0.00  0.00    +0.002 C 
ENDBRANCH   1   3
BRANCH   1  16
ATOM     14  C   UNL     1     -10.478  13.336  65.533  0.00  0.00    +0.167 C 
ATOM     15  N   UNL     1     -10.717  14.156  66.816  0.00  0.00    -0.269 N 
ATOM     16  C   UNL     1      -9.661  14.982  67.134  0.00  0.00    +0.244 C 
ATOM     17  O   UNL     1      -8.817  14.834  68.068  0.00  0.00    -0.273 OA
ATOM     18  C   UNL     1     -11.013  13.291  68.055  0.00  0.00    +0.076 C 
ATOM     19  C   UNL     1      -9.923  12.019  67.763  0.00  0.00    +0.023 C 
ATOM     20  C   UNL     1     -11.614  11.783  67.488  0.00  0.00    +0.022 C 
ATOM     21  C   UNL     1      -9.721  12.077  66.188  0.00  0.00    +0.037 C 
BRANCH  14  23
ATOM     22  N   UNL     1     -12.968  12.641  64.822  0.00  0.00    -0.194 NA
ATOM     23  C   UNL     1     -11.984  12.793  65.467  0.00  0.00    +0.093 C 
ENDBRANCH  14  23
ENDBRANCH   1  16
TORSDOF 3
ENDMDL
MODEL 3
REMARK VINA RESULT:      -7.1      2.156      6.458
REMARK  Name = 
REMARK  3 active torsions:
REMARK  status: ('A' for Active; 'I' for Inactive)
REMARK    1  A    between atoms: C_2  and  C_3
REMARK    2  A    between atoms: C_9  and  C_11
REMARK    3  A    between atoms: C_11  and  C_13
REMARK                            x       y       z     vdW  Elec       q    Type
REMARK                         _______ _______ _______ _____ _____    ______ ____
ROOT
ATOM      1  C   UNL     1     -10.533  16.416  67.059  0.00  0.00    +0.168 C 
ATOM      2  N   UNL     1     -10.176  16.997  65.636  0.00  0.00    -0.123 NA
ENDROOT
BRANCH   1   3
ATOM      3  C   UNL     1     -10.451  14.885  66.488  0.00  0.00    +0.027 C 
ATOM      4  C   UNL     1     -11.798  14.357  66.891  0.00  0.00    +0.002 C 
ATOM      5  C   UNL     1     -11.892  12.700  66.460  0.00  0.00    +0.002 C 
ATOM      6  C   UNL     1     -12.162  12.750  64.855  0.00  0.00    +0.030 C 
ATOM      7  C   UNL     1     -11.979  14.227  64.847  0.00  0.00    +0.127 C 
ATOM      8  C   UNL     1     -12.380  14.008  66.120  0.00  0.00    +0.030 C 
ATOM      9  C   UNL     1     -11.346  13.023  67.086  0.00  0.00    +0.002 C 
ATOM     10  O   UNL     1     -12.592  14.350  63.689  0.00  0.00    -0.226 OA
ATOM     11  C   UNL     1     -10.393  12.519  65.939  0.00  0.00    +0.000 C 
ATOM     12  C   UNL     1     -10.686  14.824  65.030  0.00  0.00    +0.032 C 
ATOM     13  C   UNL     1     -10.131  14.029  67.459  0.00  0.00    +0.002 C 
ENDBRANCH   1   3
BRANCH   1  16
ATOM     14  C   UNL     1      -8.177  18.463  66.642  0.00  0.00    +0.167 C 
ATOM     15  N   UNL     1      -7.946  16.970  66.945  0.00  0.00    -0.269 N 
ATOM     16  C   UNL     1      -9.015  16.375  67.579  0.00  0.00    +0.244 C 
ATOM     17  O   UNL     1      -9.097  16.024  68.794  0.00  0.00    -0.273 OA
ATOM     18  C   UNL     1      -6.696  16.701  67.804  0.00  0.00    +0.076 C 
ATOM     19  C   UNL     1      -6.809  18.024  68.867  0.00  0.00    +0.023 C 
ATOM     20  C   UNL     1      -5.639  18.040  67.592  0.00  0.00    +0.022 C 
ATOM     21  C   UNL     1      -7.661  19.076  68.036  0.00  0.00    +0.037 C 
BRANCH  14  23
ATOM     22  N   UNL     1      -6.396  18.822  64.670  0.00  0.00    -0.194 NA
ATOM     23  C   UNL     1      -6.860  18.596  65.738  0.00  0.00    +0.093 C 
ENDBRANCH  14  23
ENDBRANCH   1  16
TORSDOF 3
ENDMDL
MODEL 4
REMARK VINA RESULT:      -7.1      3.783      5.597
REMARK  Name = 
REMARK  3 active torsions:
REMARK  status: ('A' for Active; 'I' for Inactive)
REMARK    1  A    between atoms: C_2  and  C_3
REMARK    2  A    between atoms: C_9  and  C_11
REMARK    3  A    between atoms: C_11  and  C_13
REMARK                            x       y       z     vdW  Elec       q    Type
REMARK                         _______ _______ _______ _____ _____    ______ ____
ROOT
ATOM      1  C   UNL     1     -10.923  14.357  69.471  0.00  0.00    +0.168 C 
ATOM      2  N   UNL     1     -10.805  15.848  68.969  0.00  0.00    -0.123 NA
ENDROOT
BRANCH   1   3
ATOM      3  C   UNL     1     -12.306  14.707  70.275  0.00  0.00    +0.027 C 
ATOM      4  C   UNL     1     -12.058  14.014  71.585  0.00  0.00    +0.002 C 
ATOM      5  C   UNL     1     -13.453  14.180  72.568  0.00  0.00    +0.002 C 
ATOM      6  C   UNL     1     -13.339  15.709  73.117  0.00  0.00    +0.030 C 
ATOM      7  C   UNL     1     -12.162  15.960  72.242  0.00  0.00    +0.127 C 
ATOM      8  C   UNL     1     -12.093  14.620  72.414  0.00  0.00    +0.030 C 
ATOM      9  C   UNL     1     -13.427  13.707  71.814  0.00  0.00    +0.002 C 
ATOM     10  O   UNL     1     -11.792  17.006  72.950  0.00  0.00    -0.226 OA
ATOM     11  C   UNL     1     -14.392  14.910  71.502  0.00  0.00    +0.000 C 
ATOM     12  C   UNL     1     -12.298  16.082  70.818  0.00  0.00    +0.032 C 
ATOM     13  C   UNL     1     -13.165  13.688  70.214  0.00  0.00    +0.002 C 
ENDBRANCH   1   3
BRANCH   1  16
ATOM     14  C   UNL     1     -10.357  14.791  66.405  0.00  0.00    +0.167 C 
ATOM     15  N   UNL     1     -11.759  14.476  66.961  0.00  0.00    -0.269 N 
ATOM     16  C   UNL     1     -11.725  13.837  68.182  0.00  0.00    +0.244 C 
ATOM     17  O   UNL     1     -11.979  12.620  68.426  0.00  0.00    -0.273 OA
ATOM     18  C   UNL     1     -12.619  13.616  66.017  0.00  0.00    +0.076 C 
ATOM     19  C   UNL     1     -11.416  12.563  65.439  0.00  0.00    +0.023 C 
ATOM     20  C   UNL     1     -12.002  13.838  64.427  0.00  0.00    +0.022 C 
ATOM     21  C   UNL     1     -10.081  13.401  65.644  0.00  0.00    +0.037 C 
BRANCH  14  23
ATOM     22  N   UNL     1     -10.910  16.748  64.658  0.00  0.00    -0.194 NA
ATOM     23  C   UNL     1     -10.915  15.696  65.206  0.00  0.00    +0.093 C 
ENDBRANCH  14  23
ENDBRANCH   1  16
TORSDOF 3
ENDMDL
MODEL 5
REMARK VINA RESULT:      -7.0      1.964      6.469
REMARK  Name = 
REMARK  3 active torsions:
REMARK  status: ('A' for Active; 'I' for Inactive)
REMARK    1  A    between atoms: C_2  and  C_3
REMARK    2  A    between atoms: C_9  and  C_11
REMARK    3  A    between atoms: C_11  and  C_13
REMARK                            x       y       z     vdW  Elec       q    Type
REMARK                         _______ _______ _______ _____ _____    ______ ____
ROOT
ATOM      1  C   UNL     1     -11.437  16.054  66.259  0.00  0.00    +0.168 C 
ATOM      2  N   UNL     1     -10.402  16.331  65.101  0.00  0.00    -0.123 NA
ENDROOT
BRANCH   1   3
ATOM      3  C   UNL     1     -10.800  14.567  66.511  0.00  0.00    +0.027 C 
ATOM      4  C   UNL     1     -12.027  13.708  66.401  0.00  0.00    +0.002 C 
ATOM      5  C   UNL     1     -11.593  12.082  66.730  0.00  0.00    +0.002 C 
ATOM      6  C   UNL     1     -10.880  11.603  65.346  0.00  0.00    +0.030 C 
ATOM      7  C   UNL     1     -10.959  12.984  64.800  0.00  0.00    +0.127 C 
ATOM      8  C   UNL     1     -11.988  12.979  65.678  0.00  0.00    +0.030 C 
ATOM      9  C   UNL     1     -11.573  12.736  67.334  0.00  0.00    +0.002 C 
ATOM     10  O   UNL     1     -10.792  12.562  63.564  0.00  0.00    -0.226 OA
ATOM     11  C   UNL     1     -10.066  12.334  67.124  0.00  0.00    +0.000 C 
ATOM     12  C   UNL     1     -10.128  14.040  65.304  0.00  0.00    +0.032 C 
ATOM     13  C   UNL     1     -10.978  14.179  67.775  0.00  0.00    +0.002 C 
ENDBRANCH   1   3
BRANCH   1  16
ATOM     14  C   UNL     1      -9.620  18.625  66.217  0.00  0.00    +0.167 C 
ATOM     15  N   UNL     1      -9.399  17.459  67.199  0.00  0.00    -0.269 N 
ATOM     16  C   UNL     1     -10.535  16.709  67.414  0.00  0.00    +0.244 C 
ATOM     17  O   UNL     1     -11.267  16.692  68.448  0.00  0.00    -0.273 OA
ATOM     18  C   UNL     1      -8.877  17.905  68.578  0.00  0.00    +0.076 C 
ATOM     19  C   UNL     1      -9.788  19.328  68.765  0.00  0.00    +0.023 C 
ATOM     20  C   UNL     1      -8.108  19.427  68.360  0.00  0.00    +0.022 C 
ATOM     21  C   UNL     1     -10.126  19.734  67.266  0.00  0.00    +0.037 C 
BRANCH  14  23
ATOM     22  N   UNL     1      -7.090  19.049  65.437  0.00  0.00    -0.194 NA
ATOM     23  C   UNL     1      -8.061  18.981  66.115  0.00  0.00    +0.093 C 
ENDBRANCH  14  23
ENDBRANCH   1  16
TORSDOF 3
ENDMDL
MODEL 6
REMARK VINA RESULT:      -7.0      1.907      6.159
REMARK  Name = 
REMARK  3 active torsions:
REMARK  status: ('A' for Active; 'I' for Inactive)
REMARK    1  A    between atoms: C_2  and  C_3
REMARK    2  A    between atoms: C_9  and  C_11
REMARK    3  A    between atoms: C_11  and  C_13
REMARK                            x       y       z     vdW  Elec       q    Type
REMARK                         _______ _______ _______ _____ _____    ______ ____
ROOT
ATOM      1  C   UNL     1      -9.598  15.427  68.233  0.00  0.00    +0.168 C 
ATOM      2  N   UNL     1     -10.604  14.881  69.319  0.00  0.00    -0.123 NA
ENDROOT
BRANCH   1   3
ATOM      3  C   UNL     1     -10.656  15.076  67.034  0.00  0.00    +0.027 C 
ATOM      4  C   UNL     1      -9.884  14.040  66.267  0.00  0.00    +0.002 C 
ATOM      5  C   UNL     1     -10.791  13.591  64.883  0.00  0.00    +0.002 C 
ATOM      6  C   UNL     1     -11.925  12.593  65.493  0.00  0.00    +0.030 C 
ATOM      7  C   UNL     1     -11.476  12.894  66.880  0.00  0.00    +0.127 C 
ATOM      8  C   UNL     1     -10.349  13.129  66.171  0.00  0.00    +0.030 C 
ATOM      9  C   UNL     1     -10.434  14.398  65.005  0.00  0.00    +0.002 C 
ATOM     10  O   UNL     1     -12.063  11.817  67.359  0.00  0.00    -0.226 OA
ATOM     11  C   UNL     1     -11.990  14.633  65.053  0.00  0.00    +0.000 C 
ATOM     12  C   UNL     1     -11.729  14.168  67.491  0.00  0.00    +0.032 C 
ATOM     13  C   UNL     1     -10.348  15.736  65.917  0.00  0.00    +0.002 C 
ENDBRANCH   1   3
BRANCH   1  16
ATOM     14  C   UNL     1      -8.247  18.091  67.237  0.00  0.00    +0.167 C 
ATOM     15  N   UNL     1      -9.282  18.052  68.377  0.00  0.00    -0.269 N 
ATOM     16  C   UNL     1     -10.103  16.947  68.325  0.00  0.00    +0.244 C 
ATOM     17  O   UNL     1     -11.323  16.905  67.983  0.00  0.00    -0.273 OA
ATOM     18  C   UNL     1     -10.187  19.296  68.430  0.00  0.00    +0.076 C 
ATOM     19  C   UNL     1     -10.414  19.537  66.762  0.00  0.00    +0.023 C 
ATOM     20  C   UNL     1      -9.344  20.571  67.644  0.00  0.00    +0.022 C 
ATOM     21  C   UNL     1      -9.139  18.836  66.125  0.00  0.00    +0.037 C 
BRANCH  14  23
ATOM     22  N   UNL     1      -6.422  19.724  68.328  0.00  0.00    -0.194 NA
ATOM     23  C   UNL     1      -7.437  19.323  67.863  0.00  0.00    +0.093 C 
ENDBRANCH  14  23
ENDBRANCH   1  16
TORSDOF 3
ENDMDL
MODEL 7
REMARK VINA RESULT:      -6.9      1.876      6.549
REMARK  Name = 
REMARK  3 active torsions:
REMARK  status: ('A' for Active; 'I' for Inactive)
REMARK    1  A    between atoms: C_2  and  C_3
REMARK    2  A    between atoms: C_9  and  C_11
REMARK    3  A    between atoms: C_11  and  C_13
REMARK                            x       y       z     vdW  Elec       q    Type
REMARK                         _______ _______ _______ _____ _____    ______ ____
ROOT
ATOM      1  C   UNL     1     -10.138  14.038  67.319  0.00  0.00    +0.168 C 
ATOM      2  N   UNL     1     -11.401  14.896  66.921  0.00  0.00    -0.123 NA
ENDROOT
BRANCH   1   3
ATOM      3  C   UNL     1     -10.130  13.315  65.851  0.00  0.00    +0.027 C 
ATOM      4  C   UNL     1     -11.362  12.461  65.946  0.00  0.00    +0.002 C 
ATOM      5  C   UNL     1     -11.496  11.527  64.515  0.00  0.00    +0.002 C 
ATOM      6  C   UNL     1     -12.070  12.596  63.428  0.00  0.00    +0.030 C 
ATOM      7  C   UNL     1     -11.927  13.705  64.410  0.00  0.00    +0.127 C 
ATOM      8  C   UNL     1     -12.073  12.636  65.225  0.00  0.00    +0.030 C 
ATOM      9  C   UNL     1     -10.849  11.425  65.118  0.00  0.00    +0.002 C 
ATOM     10  O   UNL     1     -12.754  14.477  63.737  0.00  0.00    -0.226 OA
ATOM     11  C   UNL     1     -10.121  11.965  63.831  0.00  0.00    +0.000 C 
ATOM     12  C   UNL     1     -10.638  14.210  64.790  0.00  0.00    +0.032 C 
ATOM     13  C   UNL     1      -9.609  12.089  65.924  0.00  0.00    +0.002 C 
ENDBRANCH   1   3
BRANCH   1  16
ATOM     14  C   UNL     1      -9.797  17.044  68.193  0.00  0.00    +0.167 C 
ATOM     15  N   UNL     1      -9.289  16.501  66.844  0.00  0.00    -0.269 N 
ATOM     16  C   UNL     1      -9.068  15.141  66.857  0.00  0.00    +0.244 C 
ATOM     17  O   UNL     1      -7.953  14.538  66.871  0.00  0.00    -0.273 OA
ATOM     18  C   UNL     1      -7.991  17.173  66.358  0.00  0.00    +0.076 C 
ATOM     19  C   UNL     1      -7.185  17.313  67.848  0.00  0.00    +0.023 C 
ATOM     20  C   UNL     1      -7.900  18.710  67.122  0.00  0.00    +0.022 C 
ATOM     21  C   UNL     1      -8.376  17.305  68.900  0.00  0.00    +0.037 C 
BRANCH  14  23
ATOM     22  N   UNL     1     -10.944  19.331  67.392  0.00  0.00    -0.194 NA
ATOM     23  C   UNL     1     -10.127  18.500  67.609  0.00  0.00    +0.093 C 
ENDBRANCH  14  23
ENDBRANCH   1  16
TORSDOF 3
ENDMDL
MODEL 8
REMARK VINA RESULT:      -6.5      1.861      2.887
REMARK  Name = 
REMARK  3 active torsions:
REMARK  status: ('A' for Active; 'I' for Inactive)
REMARK    1  A    between atoms: C_2  and  C_3
REMARK    2  A    between atoms: C_9  and  C_11
REMARK    3  A    between atoms: C_11  and  C_13
REMARK                            x       y       z     vdW  Elec       q    Type
REMARK                         _______ _______ _______ _____ _____    ______ ____
ROOT
ATOM      1  C   UNL     1     -10.155  17.851  66.678  0.00  0.00    +0.168 C 
ATOM      2  N   UNL     1     -10.556  18.937  67.750  0.00  0.00    -0.123 NA
ENDROOT
BRANCH   1   3
ATOM      3  C   UNL     1      -8.603  17.871  67.196  0.00  0.00    +0.027 C 
ATOM      4  C   UNL     1      -7.890  18.299  65.945  0.00  0.00    +0.002 C 
ATOM      5  C   UNL     1      -6.202  18.297  66.245  0.00  0.00    +0.002 C 
ATOM      6  C   UNL     1      -5.975  19.670  67.091  0.00  0.00    +0.030 C 
ATOM      7  C   UNL     1      -7.444  19.899  67.156  0.00  0.00    +0.127 C 
ATOM      8  C   UNL     1      -7.333  19.158  66.031  0.00  0.00    +0.030 C 
ATOM      9  C   UNL     1      -6.707  17.563  66.228  0.00  0.00    +0.002 C 
ATOM     10  O   UNL     1      -7.285  21.173  67.447  0.00  0.00    -0.226 OA
ATOM     11  C   UNL     1      -6.238  17.698  67.725  0.00  0.00    +0.000 C 
ATOM     12  C   UNL     1      -8.296  19.087  67.978  0.00  0.00    +0.032 C 
ATOM     13  C   UNL     1      -7.967  16.752  66.845  0.00  0.00    +0.002 C 
ENDBRANCH   1   3
BRANCH   1  16
ATOM     14  C   UNL     1     -10.830  14.871  65.914  0.00  0.00    +0.167 C 
ATOM     15  N   UNL     1     -11.302  15.527  67.226  0.00  0.00    -0.269 N 
ATOM     16  C   UNL     1     -10.520  16.595  67.609  0.00  0.00    +0.244 C 
ATOM     17  O   UNL     1      -9.679  16.638  68.556  0.00  0.00    -0.273 OA
ATOM     18  C   UNL     1     -11.362  14.551  68.415  0.00  0.00    +0.076 C 
ATOM     19  C   UNL     1      -9.959  13.646  68.094  0.00  0.00    +0.023 C 
ATOM     20  C   UNL     1     -11.516  12.968  67.765  0.00  0.00    +0.022 C 
ATOM     21  C   UNL     1      -9.762  13.838  66.530  0.00  0.00    +0.037 C 
BRANCH  14  23
ATOM     22  N   UNL     1     -13.061  13.607  65.134  0.00  0.00    -0.194 NA
ATOM     23  C   UNL     1     -12.126  13.938  65.783  0.00  0.00    +0.093 C 
ENDBRANCH  14  23
ENDBRANCH   1  16
TORSDOF 3
ENDMDL
MODEL 9
REMARK VINA RESULT:      -6.5      3.842      7.185
REMARK  Name = 
REMARK  3 active torsions:
REMARK  status: ('A' for Active; 'I' for Inactive)
REMARK    1  A    between atoms: C_2  and  C_3
REMARK    2  A    between atoms: C_9  and  C_11
REMARK    3  A    between atoms: C_11  and  C_13
REMARK                            x       y       z     vdW  Elec       q    Type
REMARK                         _______ _______ _______ _____ _____    ______ ____
ROOT
ATOM      1  C   UNL     1     -10.618  12.650  68.652  0.00  0.00    +0.168 C 
ATOM      2  N   UNL     1     -11.730  12.522  69.763  0.00  0.00    -0.123 NA
ENDROOT
BRANCH   1   3
ATOM      3  C   UNL     1     -10.634  11.031  68.408  0.00  0.00    +0.027 C 
ATOM      4  C   UNL     1      -9.236  10.667  68.820  0.00  0.00    +0.002 C 
ATOM      5  C   UNL     1      -9.003   8.990  68.551  0.00  0.00    +0.002 C 
ATOM      6  C   UNL     1      -9.774   8.302  69.810  0.00  0.00    +0.030 C 
ATOM      7  C   UNL     1     -10.293   9.627  70.245  0.00  0.00    +0.127 C 
ATOM      8  C   UNL     1      -9.169   9.979  69.580  0.00  0.00    +0.030 C 
ATOM      9  C   UNL     1      -9.123   9.587  67.901  0.00  0.00    +0.002 C 
ATOM     10  O   UNL     1     -10.554   9.186  71.457  0.00  0.00    -0.226 OA
ATOM     11  C   UNL     1     -10.406   8.677  67.856  0.00  0.00    +0.000 C 
ATOM     12  C   UNL     1     -11.315  10.313  69.506  0.00  0.00    +0.032 C 
ATOM     13  C   UNL     1     -10.076  10.718  67.238  0.00  0.00    +0.002 C 
ENDBRANCH   1   3
BRANCH   1  16
ATOM     14  C   UNL     1     -10.241  14.195  65.934  0.00  0.00    +0.167 C 
ATOM     15  N   UNL     1     -11.616  13.990  66.597  0.00  0.00    -0.269 N 
ATOM     16  C   UNL     1     -11.650  12.908  67.450  0.00  0.00    +0.244 C 
ATOM     17  O   UNL     1     -12.212  11.788  67.258  0.00  0.00    -0.273 OA
ATOM     18  C   UNL     1     -12.767  13.816  65.589  0.00  0.00    +0.076 C 
ATOM     19  C   UNL     1     -11.967  12.868  64.426  0.00  0.00    +0.023 C 
ATOM     20  C   UNL     1     -12.264  14.544  64.115  0.00  0.00    +0.022 C 
ATOM     21  C   UNL     1     -10.438  13.229  64.663  0.00  0.00    +0.037 C 
BRANCH  14  23
ATOM     22  N   UNL     1     -10.394  16.777  65.228  0.00  0.00    -0.194 NA
ATOM     23  C   UNL     1     -10.630  15.617  65.307  0.00  0.00    +0.093 C 
ENDBRANCH  14  23
ENDBRANCH   1  16
TORSDOF 3
ENDMDL
