MODEL 1
REMARK VINA RESULT:      -6.3      0.000      0.000
REMARK  Name = 
REMARK  8 active torsions:
REMARK  status: ('A' for Active; 'I' for Inactive)
REMARK    1  A    between atoms: C_2  and  O_3
REMARK    2  A    between atoms: O_3  and  C_4
REMARK    3  A    between atoms: C_4  and  C_6
REMARK    4  A    between atoms: C_8  and  O_9
REMARK    5  A    between atoms: O_9  and  C_10
REMARK    6  A    between atoms: C_10  and  C_11
REMARK    7  A    between atoms: C_10  and  C_13
REMARK    8  A    between atoms: C_15  and  N_16
REMARK                            x       y       z     vdW  Elec       q    Type
REMARK                         _______ _______ _______ _____ _____    ______ ____
ROOT
ATOM      1  C   UNL     1     -11.737  13.406  68.333  0.00  0.00    +0.053 C 
ATOM      2  C   UNL     1     -12.069  14.427  67.360  0.00  0.00    +0.054 C 
ATOM      3  C   UNL     1     -10.728  15.331  67.049  0.00  0.00    +0.119 C 
ATOM      4  N   UNL     1      -9.706  14.161  67.397  0.00  0.00    -0.131 NA
ATOM      5  C   UNL     1     -10.501  16.022  68.607  0.00  0.00    +0.144 C 
ATOM      6  C   UNL     1     -11.986  15.478  69.306  0.00  0.00    +0.158 C 
ATOM      7  C   UNL     1     -11.382  13.954  69.499  0.00  0.00    +0.007 C 
ENDROOT
BRANCH   5   8
ATOM      8  N   UNL     1     -11.148  17.361  68.150  0.00  0.00    -0.203 NA
ATOM      9  C   UNL     1     -10.277  18.464  67.968  0.00  0.00    +0.242 C 
ATOM     10  O   UNL     1      -9.469  18.665  68.926  0.00  0.00    -0.273 OA
ATOM     11  C   UNL     1     -10.224  19.289  66.737  0.00  0.00    +0.096 C 
ENDBRANCH   5   8
BRANCH   1  12
ATOM     12  C   UNL     1     -11.699  12.007  68.008  0.00  0.00    +0.337 C 
ATOM     13  O   UNL     1     -11.831  11.683  66.786  0.00  0.00    -0.245 OA
BRANCH  12  14
ATOM     14  O   UNL     1     -12.307  11.132  68.913  0.00  0.00    -0.446 OA
BRANCH  14  16
ATOM     15  C   UNL     1     -11.930  10.133  70.992  0.00  0.00    +0.051 C 
ATOM     16  C   UNL     1     -11.480  10.308  69.685  0.00  0.00    +0.209 C 
ENDBRANCH  14  16
ENDBRANCH  12  14
ENDBRANCH   1  12
BRANCH   6  17
ATOM     17  O   UNL     1     -11.473  15.890  70.691  0.00  0.00    -0.353 OA
BRANCH  17  18
ATOM     18  C   UNL     1     -12.315  15.351  71.600  0.00  0.00    +0.116 C 
BRANCH  18  19
ATOM     19  C   UNL     1     -13.764  15.457  71.390  0.00  0.00    +0.030 C 
ATOM     20  C   UNL     1     -14.416  14.174  71.885  0.00  0.00    +0.003 C 
ENDBRANCH  18  19
BRANCH  18  21
ATOM     21  C   UNL     1     -11.825  15.236  72.993  0.00  0.00    +0.030 C 
ATOM     22  C   UNL     1     -12.524  16.091  73.996  0.00  0.00    +0.003 C 
ENDBRANCH  18  21
ENDBRANCH  17  18
ENDBRANCH   6  17
TORSDOF 8
ENDMDL
MODEL 2
REMARK VINA RESULT:      -6.2      2.004      5.681
REMARK  Name = 
REMARK  8 active torsions:
REMARK  status: ('A' for Active; 'I' for Inactive)
REMARK    1  A    between atoms: C_2  and  O_3
REMARK    2  A    between atoms: O_3  and  C_4
REMARK    3  A    between atoms: C_4  and  C_6
REMARK    4  A    between atoms: C_8  and  O_9
REMARK    5  A    between atoms: O_9  and  C_10
REMARK    6  A    between atoms: C_10  and  C_11
REMARK    7  A    between atoms: C_10  and  C_13
REMARK    8  A    between atoms: C_15  and  N_16
REMARK                            x       y       z     vdW  Elec       q    Type
REMARK                         _______ _______ _______ _____ _____    ______ ____
ROOT
ATOM      1  C   UNL     1      -9.600  16.415  67.526  0.00  0.00    +0.053 C 
ATOM      2  C   UNL     1      -8.999  15.429  66.651  0.00  0.00    +0.054 C 
ATOM      3  C   UNL     1      -9.963  15.219  65.332  0.00  0.00    +0.119 C 
ATOM      4  N   UNL     1     -10.580  16.685  65.395  0.00  0.00    -0.131 NA
ATOM      5  C   UNL     1     -11.354  14.577  66.113  0.00  0.00    +0.144 C 
ATOM      6  C   UNL     1     -10.651  14.371  67.679  0.00  0.00    +0.158 C 
ATOM      7  C   UNL     1     -10.778  15.987  67.992  0.00  0.00    +0.007 C 
ENDROOT
BRANCH   5   8
ATOM      8  N   UNL     1     -10.969  13.130  65.694  0.00  0.00    -0.203 NA
ATOM      9  C   UNL     1     -11.795  12.500  64.728  0.00  0.00    +0.242 C 
ATOM     10  O   UNL     1     -13.039  12.578  64.965  0.00  0.00    -0.273 OA
ATOM     11  C   UNL     1     -11.291  11.867  63.486  0.00  0.00    +0.096 C 
ENDBRANCH   5   8
BRANCH   1  12
ATOM     12  C   UNL     1      -9.025  17.713  67.743  0.00  0.00    +0.337 C 
ATOM     13  O   UNL     1      -7.783  17.770  68.001  0.00  0.00    -0.245 OA
BRANCH  12  14
ATOM     14  O   UNL     1      -9.808  18.643  68.434  0.00  0.00    -0.446 OA
BRANCH  14  16
ATOM     15  C   UNL     1     -10.272  19.990  66.581  0.00  0.00    +0.051 C 
ATOM     16  C   UNL     1      -9.889  19.942  67.920  0.00  0.00    +0.209 C 
ENDBRANCH  14  16
ENDBRANCH  12  14
ENDBRANCH   1  12
BRANCH   6  17
ATOM     17  O   UNL     1     -12.045  14.116  68.261  0.00  0.00    -0.353 OA
BRANCH  17  18
ATOM     18  C   UNL     1     -11.872  13.455  69.426  0.00  0.00    +0.116 C 
BRANCH  18  19
ATOM     19  C   UNL     1     -11.589  12.014  69.401  0.00  0.00    +0.030 C 
ATOM     20  C   UNL     1     -12.299  11.366  70.580  0.00  0.00    +0.003 C 
ENDBRANCH  18  19
BRANCH  18  21
ATOM     21  C   UNL     1     -12.544  14.007  70.625  0.00  0.00    +0.030 C 
ATOM     22  C   UNL     1     -11.736  14.960  71.438  0.00  0.00    +0.003 C 
ENDBRANCH  18  21
ENDBRANCH  17  18
ENDBRANCH   6  17
TORSDOF 8
ENDMDL
MODEL 3
REMARK VINA RESULT:      -6.1      0.956      2.150
REMARK  Name = 
REMARK  8 active torsions:
REMARK  status: ('A' for Active; 'I' for Inactive)
REMARK    1  A    between atoms: C_2  and  O_3
REMARK    2  A    between atoms: O_3  and  C_4
REMARK    3  A    between atoms: C_4  and  C_6
REMARK    4  A    between atoms: C_8  and  O_9
REMARK    5  A    between atoms: O_9  and  C_10
REMARK    6  A    between atoms: C_10  and  C_11
REMARK    7  A    between atoms: C_10  and  C_13
REMARK    8  A    between atoms: C_15  and  N_16
REMARK                            x       y       z     vdW  Elec       q    Type
REMARK                         _______ _______ _______ _____ _____    ______ ____
ROOT
ATOM      1  C   UNL     1     -11.607  13.453  68.548  0.00  0.00    +0.053 C 
ATOM      2  C   UNL     1     -12.000  14.428  67.550  0.00  0.00    +0.054 C 
ATOM      3  C   UNL     1     -10.700  15.364  67.169  0.00  0.00    +0.119 C 
ATOM      4  N   UNL     1      -9.629  14.241  67.528  0.00  0.00    -0.131 NA
ATOM      5  C   UNL     1     -10.452  16.116  68.696  0.00  0.00    +0.144 C 
ATOM      6  C   UNL     1     -11.897  15.550  69.456  0.00  0.00    +0.158 C 
ATOM      7  C   UNL     1     -11.237  14.053  69.684  0.00  0.00    +0.007 C 
ENDROOT
BRANCH   5   8
ATOM      8  N   UNL     1     -11.157  17.416  68.212  0.00  0.00    -0.203 NA
ATOM      9  C   UNL     1     -10.325  18.531  67.934  0.00  0.00    +0.242 C 
ATOM     10  O   UNL     1      -9.476  18.796  68.839  0.00  0.00    -0.273 OA
ATOM     11  C   UNL     1     -10.356  19.298  66.666  0.00  0.00    +0.096 C 
ENDBRANCH   5   8
BRANCH   1  12
ATOM     12  C   UNL     1     -11.531  12.046  68.271  0.00  0.00    +0.337 C 
ATOM     13  O   UNL     1     -10.587  11.390  68.813  0.00  0.00    -0.245 OA
BRANCH  12  14
ATOM     14  O   UNL     1     -11.853  11.639  66.973  0.00  0.00    -0.446 OA
BRANCH  14  16
ATOM     15  C   UNL     1     -10.622  11.872  65.000  0.00  0.00    +0.051 C 
ATOM     16  C   UNL     1     -10.823  11.139  66.168  0.00  0.00    +0.209 C 
ENDBRANCH  14  16
ENDBRANCH  12  14
ENDBRANCH   1  12
BRANCH   6  17
ATOM     17  O   UNL     1     -11.360  16.027  70.810  0.00  0.00    -0.353 OA
BRANCH  17  18
ATOM     18  C   UNL     1     -12.320  15.776  71.727  0.00  0.00    +0.116 C 
BRANCH  18  19
ATOM     19  C   UNL     1     -11.938  15.271  73.051  0.00  0.00    +0.030 C 
ATOM     20  C   UNL     1     -12.418  16.264  74.099  0.00  0.00    +0.003 C 
ENDBRANCH  18  19
BRANCH  18  21
ATOM     21  C   UNL     1     -13.668  15.431  71.218  0.00  0.00    +0.030 C 
ATOM     22  C   UNL     1     -14.343  14.288  71.899  0.00  0.00    +0.003 C 
ENDBRANCH  18  21
ENDBRANCH  17  18
ENDBRANCH   6  17
TORSDOF 8
ENDMDL
MODEL 4
REMARK VINA RESULT:      -6.0      1.997      5.724
REMARK  Name = 
REMARK  8 active torsions:
REMARK  status: ('A' for Active; 'I' for Inactive)
REMARK    1  A    between atoms: C_2  and  O_3
REMARK    2  A    between atoms: O_3  and  C_4
REMARK    3  A    between atoms: C_4  and  C_6
REMARK    4  A    between atoms: C_8  and  O_9
REMARK    5  A    between atoms: O_9  and  C_10
REMARK    6  A    between atoms: C_10  and  C_11
REMARK    7  A    between atoms: C_10  and  C_13
REMARK    8  A    between atoms: C_15  and  N_16
REMARK                            x       y       z     vdW  Elec       q    Type
REMARK                         _______ _______ _______ _____ _____    ______ ____
ROOT
ATOM      1  C   UNL     1      -9.383  16.303  67.691  0.00  0.00    +0.053 C 
ATOM      2  C   UNL     1      -8.870  15.243  66.846  0.00  0.00    +0.054 C 
ATOM      3  C   UNL     1      -9.798  15.137  65.490  0.00  0.00    +0.119 C 
ATOM      4  N   UNL     1     -10.238  16.667  65.520  0.00  0.00    -0.131 NA
ATOM      5  C   UNL     1     -11.287  14.674  66.218  0.00  0.00    +0.144 C 
ATOM      6  C   UNL     1     -10.676  14.401  67.812  0.00  0.00    +0.158 C 
ATOM      7  C   UNL     1     -10.621  16.024  68.111  0.00  0.00    +0.007 C 
ENDROOT
BRANCH   5   8
ATOM      8  N   UNL     1     -11.061  13.187  65.822  0.00  0.00    -0.203 NA
ATOM      9  C   UNL     1     -11.939  12.641  64.852  0.00  0.00    +0.242 C 
ATOM     10  O   UNL     1     -13.170  12.862  65.068  0.00  0.00    -0.273 OA
ATOM     11  C   UNL     1     -11.492  11.937  63.626  0.00  0.00    +0.096 C 
ENDBRANCH   5   8
BRANCH   1  12
ATOM     12  C   UNL     1      -8.666  17.526  67.924  0.00  0.00    +0.337 C 
ATOM     13  O   UNL     1      -7.503  17.438  68.430  0.00  0.00    -0.245 OA
BRANCH  12  14
ATOM     14  O   UNL     1      -9.413  18.622  68.364  0.00  0.00    -0.446 OA
BRANCH  14  16
ATOM     15  C   UNL     1     -10.213  20.023  66.673  0.00  0.00    +0.051 C 
ATOM     16  C   UNL     1      -9.266  19.833  67.678  0.00  0.00    +0.209 C 
ENDBRANCH  14  16
ENDBRANCH  12  14
ENDBRANCH   1  12
BRANCH   6  17
ATOM     17  O   UNL     1     -12.113  14.322  68.338  0.00  0.00    -0.353 OA
BRANCH  17  18
ATOM     18  C   UNL     1     -12.085  13.553  69.448  0.00  0.00    +0.116 C 
BRANCH  18  19
ATOM     19  C   UNL     1     -12.030  14.195  70.767  0.00  0.00    +0.030 C 
ATOM     20  C   UNL     1     -13.092  15.283  70.816  0.00  0.00    +0.003 C 
ENDBRANCH  18  19
BRANCH  18  21
ATOM     21  C   UNL     1     -11.511  12.193  69.317  0.00  0.00    +0.030 C 
ATOM     22  C   UNL     1     -12.081  11.160  70.229  0.00  0.00    +0.003 C 
ENDBRANCH  18  21
ENDBRANCH  17  18
ENDBRANCH   6  17
TORSDOF 8
ENDMDL
MODEL 5
REMARK VINA RESULT:      -5.7      1.519      5.419
REMARK  Name = 
REMARK  8 active torsions:
REMARK  status: ('A' for Active; 'I' for Inactive)
REMARK    1  A    between atoms: C_2  and  O_3
REMARK    2  A    between atoms: O_3  and  C_4
REMARK    3  A    between atoms: C_4  and  C_6
REMARK    4  A    between atoms: C_8  and  O_9
REMARK    5  A    between atoms: O_9  and  C_10
REMARK    6  A    between atoms: C_10  and  C_11
REMARK    7  A    between atoms: C_10  and  C_13
REMARK    8  A    between atoms: C_15  and  N_16
REMARK                            x       y       z     vdW  Elec       q    Type
REMARK                         _______ _______ _______ _____ _____    ______ ____
ROOT
ATOM      1  C   UNL     1     -10.554  15.990  67.925  0.00  0.00    +0.053 C 
ATOM      2  C   UNL     1      -9.589  14.922  68.091  0.00  0.00    +0.054 C 
ATOM      3  C   UNL     1     -10.126  13.581  67.301  0.00  0.00    +0.119 C 
ATOM      4  N   UNL     1     -10.977  14.400  66.232  0.00  0.00    -0.131 NA
ATOM      5  C   UNL     1     -11.544  13.274  68.224  0.00  0.00    +0.144 C 
ATOM      6  C   UNL     1     -11.248  14.432  69.473  0.00  0.00    +0.158 C 
ATOM      7  C   UNL     1     -11.723  15.671  68.490  0.00  0.00    +0.007 C 
ENDROOT
BRANCH   5   8
ATOM      8  N   UNL     1     -10.825  12.151  69.025  0.00  0.00    -0.203 NA
ATOM      9  C   UNL     1     -11.409  10.859  68.985  0.00  0.00    +0.242 C 
ATOM     10  O   UNL     1     -12.658  10.836  69.210  0.00  0.00    -0.273 OA
ATOM     11  C   UNL     1     -10.672   9.623  68.629  0.00  0.00    +0.096 C 
ENDBRANCH   5   8
BRANCH   1  12
ATOM     12  C   UNL     1     -10.282  17.168  67.149  0.00  0.00    +0.337 C 
ATOM     13  O   UNL     1      -9.120  17.288  66.649  0.00  0.00    -0.245 OA
BRANCH  12  14
ATOM     14  O   UNL     1     -10.852  18.363  67.597  0.00  0.00    -0.446 OA
BRANCH  14  16
ATOM     15  C   UNL     1      -9.766  20.426  67.429  0.00  0.00    +0.051 C 
ATOM     16  C   UNL     1     -10.638  19.517  66.834  0.00  0.00    +0.209 C 
ENDBRANCH  14  16
ENDBRANCH  12  14
ENDBRANCH   1  12
BRANCH   6  17
ATOM     17  O   UNL     1     -12.683  14.240  69.977  0.00  0.00    -0.353 OA
BRANCH  17  18
ATOM     18  C   UNL     1     -12.642  14.324  71.325  0.00  0.00    +0.116 C 
BRANCH  18  19
ATOM     19  C   UNL     1     -13.856  14.044  72.100  0.00  0.00    +0.030 C 
ATOM     20  C   UNL     1     -14.986  14.902  71.549  0.00  0.00    +0.003 C 
ENDBRANCH  18  19
BRANCH  18  21
ATOM     21  C   UNL     1     -11.638  15.239  71.917  0.00  0.00    +0.030 C 
ATOM     22  C   UNL     1     -12.033  15.886  73.201  0.00  0.00    +0.003 C 
ENDBRANCH  18  21
ENDBRANCH  17  18
ENDBRANCH   6  17
TORSDOF 8
ENDMDL
MODEL 6
REMARK VINA RESULT:      -5.7      2.595      3.877
REMARK  Name = 
REMARK  8 active torsions:
REMARK  status: ('A' for Active; 'I' for Inactive)
REMARK    1  A    between atoms: C_2  and  O_3
REMARK    2  A    between atoms: O_3  and  C_4
REMARK    3  A    between atoms: C_4  and  C_6
REMARK    4  A    between atoms: C_8  and  O_9
REMARK    5  A    between atoms: O_9  and  C_10
REMARK    6  A    between atoms: C_10  and  C_11
REMARK    7  A    between atoms: C_10  and  C_13
REMARK    8  A    between atoms: C_15  and  N_16
REMARK                            x       y       z     vdW  Elec       q    Type
REMARK                         _______ _______ _______ _____ _____    ______ ____
ROOT
ATOM      1  C   UNL     1     -11.846  12.914  65.297  0.00  0.00    +0.053 C 
ATOM      2  C   UNL     1     -12.326  14.269  65.477  0.00  0.00    +0.054 C 
ATOM      3  C   UNL     1     -11.036  15.282  65.631  0.00  0.00    +0.119 C 
ATOM      4  N   UNL     1     -10.053  14.360  64.782  0.00  0.00    -0.131 NA
ATOM      5  C   UNL     1     -10.382  14.664  67.097  0.00  0.00    +0.144 C 
ATOM      6  C   UNL     1     -11.688  13.602  67.489  0.00  0.00    +0.158 C 
ATOM      7  C   UNL     1     -11.175  12.496  66.376  0.00  0.00    +0.007 C 
ENDROOT
BRANCH   5   8
ATOM      8  N   UNL     1     -11.016  15.827  67.914  0.00  0.00    -0.203 NA
ATOM      9  C   UNL     1     -10.138  16.602  68.713  0.00  0.00    +0.242 C 
ATOM     10  O   UNL     1      -9.349  15.925  69.441  0.00  0.00    -0.273 OA
ATOM     11  C   UNL     1     -10.057  18.081  68.668  0.00  0.00    +0.096 C 
ENDBRANCH   5   8
BRANCH   1  12
ATOM     12  C   UNL     1     -11.997  12.194  64.063  0.00  0.00    +0.337 C 
ATOM     13  O   UNL     1     -13.175  12.044  63.610  0.00  0.00    -0.245 OA
BRANCH  12  14
ATOM     14  O   UNL     1     -11.151  11.100  63.863  0.00  0.00    -0.446 OA
BRANCH  14  16
ATOM     15  C   UNL     1      -9.410  10.118  62.650  0.00  0.00    +0.051 C 
ATOM     16  C   UNL     1      -9.987  11.300  63.111  0.00  0.00    +0.209 C 
ENDBRANCH  14  16
ENDBRANCH  12  14
ENDBRANCH   1  12
BRANCH   6  17
ATOM     17  O   UNL     1     -10.822  12.955  68.576  0.00  0.00    -0.353 OA
BRANCH  17  18
ATOM     18  C   UNL     1     -11.658  12.544  69.554  0.00  0.00    +0.116 C 
BRANCH  18  19
ATOM     19  C   UNL     1     -12.062  11.134  69.612  0.00  0.00    +0.030 C 
ATOM     20  C   UNL     1     -12.494  10.816  71.036  0.00  0.00    +0.003 C 
ENDBRANCH  18  19
BRANCH  18  21
ATOM     21  C   UNL     1     -12.584  13.552  70.121  0.00  0.00    +0.030 C 
ATOM     22  C   UNL     1     -12.011  14.434  71.178  0.00  0.00    +0.003 C 
ENDBRANCH  18  21
ENDBRANCH  17  18
ENDBRANCH   6  17
TORSDOF 8
ENDMDL
MODEL 7
REMARK VINA RESULT:      -5.6      3.008      7.284
REMARK  Name = 
REMARK  8 active torsions:
REMARK  status: ('A' for Active; 'I' for Inactive)
REMARK    1  A    between atoms: C_2  and  O_3
REMARK    2  A    between atoms: O_3  and  C_4
REMARK    3  A    between atoms: C_4  and  C_6
REMARK    4  A    between atoms: C_8  and  O_9
REMARK    5  A    between atoms: O_9  and  C_10
REMARK    6  A    between atoms: C_10  and  C_11
REMARK    7  A    between atoms: C_10  and  C_13
REMARK    8  A    between atoms: C_15  and  N_16
REMARK                            x       y       z     vdW  Elec       q    Type
REMARK                         _______ _______ _______ _____ _____    ______ ____
ROOT
ATOM      1  C   UNL     1     -11.015  14.991  65.770  0.00  0.00    +0.053 C 
ATOM      2  C   UNL     1     -12.204  14.493  66.431  0.00  0.00    +0.054 C 
ATOM      3  C   UNL     1     -11.827  14.080  67.980  0.00  0.00    +0.119 C 
ATOM      4  N   UNL     1     -10.622  15.114  68.095  0.00  0.00    -0.131 NA
ATOM      5  C   UNL     1     -10.725  12.800  67.657  0.00  0.00    +0.144 C 
ATOM      6  C   UNL     1     -11.003  12.695  65.955  0.00  0.00    +0.158 C 
ATOM      7  C   UNL     1     -10.081  14.038  65.682  0.00  0.00    +0.007 C 
ENDROOT
BRANCH   5   8
ATOM      8  N   UNL     1     -11.818  11.733  67.952  0.00  0.00    -0.203 NA
ATOM      9  C   UNL     1     -11.519  10.766  68.945  0.00  0.00    +0.242 C 
ATOM     10  O   UNL     1     -10.382  10.215  68.821  0.00  0.00    -0.273 OA
ATOM     11  C   UNL     1     -12.398  10.455  70.098  0.00  0.00    +0.096 C 
ENDBRANCH   5   8
BRANCH   1  12
ATOM     12  C   UNL     1     -10.861  16.365  65.381  0.00  0.00    +0.337 C 
ATOM     13  O   UNL     1     -11.275  16.699  64.227  0.00  0.00    -0.245 OA
BRANCH  12  14
ATOM     14  O   UNL     1      -9.691  17.010  65.790  0.00  0.00    -0.446 OA
BRANCH  14  16
ATOM     15  C   UNL     1     -10.511  18.563  67.333  0.00  0.00    +0.051 C 
ATOM     16  C   UNL     1      -9.780  18.356  66.164  0.00  0.00    +0.209 C 
ENDBRANCH  14  16
ENDBRANCH  12  14
ENDBRANCH   1  12
BRANCH   6  17
ATOM     17  O   UNL     1      -9.775  11.788  65.820  0.00  0.00    -0.353 OA
BRANCH  17  18
ATOM     18  C   UNL     1     -10.137  10.747  65.038  0.00  0.00    +0.116 C 
BRANCH  18  19
ATOM     19  C   UNL     1      -9.669   9.397  65.374  0.00  0.00    +0.030 C 
ATOM     20  C   UNL     1      -8.294   9.512  66.014  0.00  0.00    +0.003 C 
ENDBRANCH  18  19
BRANCH  18  21
ATOM     21  C   UNL     1     -10.441  11.041  63.618  0.00  0.00    +0.030 C 
ATOM     22  C   UNL     1      -9.267  11.065  62.698  0.00  0.00    +0.003 C 
ENDBRANCH  18  21
ENDBRANCH  17  18
ENDBRANCH   6  17
TORSDOF 8
ENDMDL
MODEL 8
REMARK VINA RESULT:      -5.6      2.432      4.976
REMARK  Name = 
REMARK  8 active torsions:
REMARK  status: ('A' for Active; 'I' for Inactive)
REMARK    1  A    between atoms: C_2  and  O_3
REMARK    2  A    between atoms: O_3  and  C_4
REMARK    3  A    between atoms: C_4  and  C_6
REMARK    4  A    between atoms: C_8  and  O_9
REMARK    5  A    between atoms: O_9  and  C_10
REMARK    6  A    between atoms: C_10  and  C_11
REMARK    7  A    between atoms: C_10  and  C_13
REMARK    8  A    between atoms: C_15  and  N_16
REMARK                            x       y       z     vdW  Elec       q    Type
REMARK                         _______ _______ _______ _____ _____    ______ ____
ROOT
ATOM      1  C   UNL     1     -10.106  12.849  66.803  0.00  0.00    +0.053 C 
ATOM      2  C   UNL     1      -9.887  12.526  68.198  0.00  0.00    +0.054 C 
ATOM      3  C   UNL     1     -11.343  12.379  68.953  0.00  0.00    +0.119 C 
ATOM      4  N   UNL     1     -12.124  11.949  67.633  0.00  0.00    -0.131 NA
ATOM      5  C   UNL     1     -11.901  13.997  68.779  0.00  0.00    +0.144 C 
ATOM      6  C   UNL     1     -10.430  14.672  68.173  0.00  0.00    +0.158 C 
ATOM      7  C   UNL     1     -10.709  14.035  66.675  0.00  0.00    +0.007 C 
ENDROOT
BRANCH   5   8
ATOM      8  N   UNL     1     -11.507  14.330  70.247  0.00  0.00    -0.203 NA
ATOM      9  C   UNL     1     -12.504  14.930  71.058  0.00  0.00    +0.242 C 
ATOM     10  O   UNL     1     -13.099  15.914  70.523  0.00  0.00    -0.273 OA
ATOM     11  C   UNL     1     -12.907  14.426  72.393  0.00  0.00    +0.096 C 
ENDBRANCH   5   8
BRANCH   1  12
ATOM     12  C   UNL     1      -9.802  11.935  65.737  0.00  0.00    +0.337 C 
ATOM     13  O   UNL     1      -8.715  11.282  65.815  0.00  0.00    -0.245 OA
BRANCH  12  14
ATOM     14  O   UNL     1     -10.152  12.334  64.444  0.00  0.00    -0.446 OA
BRANCH  14  16
ATOM     15  C   UNL     1     -12.316  12.170  63.576  0.00  0.00    +0.051 C 
ATOM     16  C   UNL     1     -11.079  11.552  63.745  0.00  0.00    +0.209 C 
ENDBRANCH  14  16
ENDBRANCH  12  14
ENDBRANCH   1  12
BRANCH   6  17
ATOM     17  O   UNL     1     -11.183  15.954  67.802  0.00  0.00    -0.353 OA
BRANCH  17  18
ATOM     18  C   UNL     1     -10.285  16.963  67.836  0.00  0.00    +0.116 C 
BRANCH  18  19
ATOM     19  C   UNL     1     -10.108  17.809  66.650  0.00  0.00    +0.030 C 
ATOM     20  C   UNL     1     -10.645  19.198  66.966  0.00  0.00    +0.003 C 
ENDBRANCH  18  19
BRANCH  18  21
ATOM     21  C   UNL     1      -9.135  16.816  68.759  0.00  0.00    +0.030 C 
ATOM     22  C   UNL     1      -7.804  17.184  68.196  0.00  0.00    +0.003 C 
ENDBRANCH  18  21
ENDBRANCH  17  18
ENDBRANCH   6  17
TORSDOF 8
ENDMDL
MODEL 9
REMARK VINA RESULT:      -5.6      2.951      5.513
REMARK  Name = 
REMARK  8 active torsions:
REMARK  status: ('A' for Active; 'I' for Inactive)
REMARK    1  A    between atoms: C_2  and  O_3
REMARK    2  A    between atoms: O_3  and  C_4
REMARK    3  A    between atoms: C_4  and  C_6
REMARK    4  A    between atoms: C_8  and  O_9
REMARK    5  A    between atoms: O_9  and  C_10
REMARK    6  A    between atoms: C_10  and  C_11
REMARK    7  A    between atoms: C_10  and  C_13
REMARK    8  A    between atoms: C_15  and  N_16
REMARK                            x       y       z     vdW  Elec       q    Type
REMARK                         _______ _______ _______ _____ _____    ______ ____
ROOT
ATOM      1  C   UNL     1     -10.827  13.454  64.792  0.00  0.00    +0.053 C 
ATOM      2  C   UNL     1     -10.309  12.907  66.030  0.00  0.00    +0.054 C 
ATOM      3  C   UNL     1     -11.434  13.102  67.218  0.00  0.00    +0.119 C 
ATOM      4  N   UNL     1     -12.673  13.091  66.218  0.00  0.00    -0.131 NA
ATOM      5  C   UNL     1     -11.470  14.821  67.275  0.00  0.00    +0.144 C 
ATOM      6  C   UNL     1     -10.118  15.103  66.235  0.00  0.00    +0.158 C 
ATOM      7  C   UNL     1     -11.028  14.771  64.898  0.00  0.00    +0.007 C 
ENDROOT
BRANCH   5   8
ATOM      8  N   UNL     1     -10.564  14.835  68.540  0.00  0.00    -0.203 NA
ATOM      9  C   UNL     1     -10.964  15.681  69.605  0.00  0.00    +0.242 C 
ATOM     10  O   UNL     1     -11.262  16.864  69.258  0.00  0.00    -0.273 OA
ATOM     11  C   UNL     1     -11.116  15.234  71.011  0.00  0.00    +0.096 C 
ENDBRANCH   5   8
BRANCH   1  12
ATOM     12  C   UNL     1     -11.170  12.633  63.665  0.00  0.00    +0.337 C 
ATOM     13  O   UNL     1     -12.273  12.868  63.080  0.00  0.00    -0.245 OA
BRANCH  12  14
ATOM     14  O   UNL     1     -10.827  11.280  63.741  0.00  0.00    -0.446 OA
BRANCH  14  16
ATOM     15  C   UNL     1      -9.131   9.685  63.539  0.00  0.00    +0.051 C 
ATOM     16  C   UNL     1      -9.704  10.846  63.026  0.00  0.00    +0.209 C 
ENDBRANCH  14  16
ENDBRANCH  12  14
ENDBRANCH   1  12
BRANCH   6  17
ATOM     17  O   UNL     1     -10.497  16.587  66.162  0.00  0.00    -0.353 OA
BRANCH  17  18
ATOM     18  C   UNL     1      -9.348  17.292  66.251  0.00  0.00    +0.116 C 
BRANCH  18  19
ATOM     19  C   UNL     1      -8.073  16.577  66.389  0.00  0.00    +0.030 C 
ATOM     20  C   UNL     1      -6.945  17.540  66.049  0.00  0.00    +0.003 C 
ENDBRANCH  18  19
BRANCH  18  21
ATOM     21  C   UNL     1      -9.436  18.663  66.805  0.00  0.00    +0.030 C 
ATOM     22  C   UNL     1     -10.416  19.568  66.138  0.00  0.00    +0.003 C 
ENDBRANCH  18  21
ENDBRANCH  17  18
ENDBRANCH   6  17
TORSDOF 8
ENDMDL
