MODEL 1
REMARK VINA RESULT:      -6.4      0.000      0.000
REMARK  Name = 
REMARK  0 active torsions:
REMARK  status: ('A' for Active; 'I' for Inactive)
REMARK                            x       y       z     vdW  Elec       q    Type
REMARK                         _______ _______ _______ _____ _____    ______ ____
ROOT
ATOM      1  C   UNL     1     -12.049  10.937  69.272  0.00  0.00    +0.090 C 
ATOM      2  N   UNL     1     -11.079  11.700  69.287  0.00  0.00    -0.272 NA
ATOM      3  C   UNL     1     -11.641  13.008  68.579  0.00  0.00    +0.062 C 
ATOM      4  C   UNL     1     -11.563  12.259  67.112  0.00  0.00    +0.042 C 
ATOM      5  C   UNL     1     -11.627  13.323  66.113  0.00  0.00    -0.025 A 
ATOM      6  C   UNL     1     -10.359  13.911  66.117  0.00  0.00    -0.023 A 
ATOM      7  C   UNL     1      -9.539  13.319  67.136  0.00  0.00    +0.021 C 
ATOM      8  C   UNL     1      -8.200  13.981  67.184  0.00  0.00    +0.004 C 
ATOM      9  C   UNL     1      -8.311  15.469  67.264  0.00  0.00    +0.000 C 
ATOM     10  C   UNL     1      -9.282  15.960  68.321  0.00  0.00    +0.000 C 
ATOM     11  C   UNL     1     -10.600  15.208  68.140  0.00  0.00    +0.002 C 
ATOM     12  C   UNL     1      -9.546  11.851  67.307  0.00  0.00    +0.021 C 
ATOM     13  C   UNL     1     -10.124  14.987  65.302  0.00  0.00    +0.037 A 
ATOM     14  C   UNL     1     -11.204  15.490  64.581  0.00  0.00    +0.195 A 
ATOM     15  O   UNL     1     -11.320  16.857  64.296  0.00  0.00    -0.287 OA
ATOM     16  C   UNL     1     -12.316  14.681  64.369  0.00  0.00    +0.042 A 
ATOM     17  C   UNL     1     -12.533  13.530  65.122  0.00  0.00    -0.001 A 
ATOM     18  C   UNL     1     -10.062  13.729  68.622  0.00  0.00    +0.019 C 
ATOM     19  C   UNL     1      -9.897  11.326  68.637  0.00  0.00    +0.072 C 
ENDROOT
TORSDOF 0
ENDMDL
MODEL 2
REMARK VINA RESULT:      -6.2      2.068      3.562
REMARK  Name = 
REMARK  0 active torsions:
REMARK  status: ('A' for Active; 'I' for Inactive)
REMARK                            x       y       z     vdW  Elec       q    Type
REMARK                         _______ _______ _______ _____ _____    ______ ____
ROOT
ATOM      1  C   UNL     1     -10.188   9.879  65.906  0.00  0.00    +0.090 C 
ATOM      2  N   UNL     1     -10.055  11.011  65.434  0.00  0.00    -0.272 NA
ATOM      3  C   UNL     1      -9.742  11.899  66.717  0.00  0.00    +0.062 C 
ATOM      4  C   UNL     1     -11.326  11.816  67.171  0.00  0.00    +0.042 C 
ATOM      5  C   UNL     1     -11.523  12.892  68.140  0.00  0.00    -0.025 A 
ATOM      6  C   UNL     1     -11.581  14.065  67.384  0.00  0.00    -0.023 A 
ATOM      7  C   UNL     1     -11.340  13.778  65.998  0.00  0.00    +0.021 C 
ATOM      8  C   UNL     1     -11.344  15.035  65.190  0.00  0.00    +0.004 C 
ATOM      9  C   UNL     1     -10.449  16.080  65.772  0.00  0.00    +0.000 C 
ATOM     10  C   UNL     1      -9.062  15.578  66.125  0.00  0.00    +0.000 C 
ATOM     11  C   UNL     1      -9.217  14.304  66.955  0.00  0.00    +0.002 C 
ATOM     12  C   UNL     1     -11.992  12.605  65.379  0.00  0.00    +0.021 C 
ATOM     13  C   UNL     1     -11.716  15.265  68.030  0.00  0.00    +0.037 A 
ATOM     14  C   UNL     1     -11.693  15.246  69.423  0.00  0.00    +0.195 A 
ATOM     15  O   UNL     1     -11.149  16.306  70.160  0.00  0.00    -0.287 OA
ATOM     16  C   UNL     1     -11.964  14.056  70.091  0.00  0.00    +0.042 A 
ATOM     17  C   UNL     1     -11.924  12.828  69.436  0.00  0.00    -0.001 A 
ATOM     18  C   UNL     1      -9.791  13.341  65.750  0.00  0.00    +0.019 C 
ATOM     19  C   UNL     1     -11.120  11.601  64.745  0.00  0.00    +0.072 C 
ENDROOT
TORSDOF 0
ENDMDL
MODEL 3
REMARK VINA RESULT:      -6.1      1.956      3.949
REMARK  Name = 
REMARK  0 active torsions:
REMARK  status: ('A' for Active; 'I' for Inactive)
REMARK                            x       y       z     vdW  Elec       q    Type
REMARK                         _______ _______ _______ _____ _____    ______ ____
ROOT
ATOM      1  C   UNL     1      -7.193  16.895  67.154  0.00  0.00    +0.090 C 
ATOM      2  N   UNL     1      -7.757  16.092  67.903  0.00  0.00    -0.272 NA
ATOM      3  C   UNL     1      -8.416  15.059  66.888  0.00  0.00    +0.062 C 
ATOM      4  C   UNL     1      -9.579  16.164  66.504  0.00  0.00    +0.042 C 
ATOM      5  C   UNL     1     -10.655  15.409  65.865  0.00  0.00    -0.025 A 
ATOM      6  C   UNL     1     -11.319  14.757  66.908  0.00  0.00    -0.023 A 
ATOM      7  C   UNL     1     -10.650  15.001  68.154  0.00  0.00    +0.021 C 
ATOM      8  C   UNL     1     -11.321  14.261  69.266  0.00  0.00    +0.004 C 
ATOM      9  C   UNL     1     -11.520  12.816  68.940  0.00  0.00    +0.000 C 
ATOM     10  C   UNL     1     -10.280  12.129  68.401  0.00  0.00    +0.000 C 
ATOM     11  C   UNL     1      -9.715  12.989  67.271  0.00  0.00    +0.002 C 
ATOM     12  C   UNL     1     -10.185  16.368  68.470  0.00  0.00    +0.021 C 
ATOM     13  C   UNL     1     -12.364  13.923  66.609  0.00  0.00    +0.037 A 
ATOM     14  C   UNL     1     -12.641  13.704  65.262  0.00  0.00    +0.195 A 
ATOM     15  O   UNL     1     -13.132  12.472  64.808  0.00  0.00    -0.287 OA
ATOM     16  C   UNL     1     -12.179  14.613  64.316  0.00  0.00    +0.042 A 
ATOM     17  C   UNL     1     -11.180  15.534  64.619  0.00  0.00    -0.001 A 
ATOM     18  C   UNL     1      -9.207  14.247  68.203  0.00  0.00    +0.019 C 
ATOM     19  C   UNL     1      -8.755  16.544  68.773  0.00  0.00    +0.072 C 
ENDROOT
TORSDOF 0
ENDMDL
MODEL 4
REMARK VINA RESULT:      -6.0      1.322      1.646
REMARK  Name = 
REMARK  0 active torsions:
REMARK  status: ('A' for Active; 'I' for Inactive)
REMARK                            x       y       z     vdW  Elec       q    Type
REMARK                         _______ _______ _______ _____ _____    ______ ____
ROOT
ATOM      1  C   UNL     1     -10.484   9.348  68.443  0.00  0.00    +0.090 C 
ATOM      2  N   UNL     1     -10.277  10.530  68.734  0.00  0.00    -0.272 NA
ATOM      3  C   UNL     1     -11.383  11.304  67.892  0.00  0.00    +0.062 C 
ATOM      4  C   UNL     1     -10.519  11.055  66.510  0.00  0.00    +0.042 C 
ATOM      5  C   UNL     1     -11.040  12.008  65.533  0.00  0.00    -0.025 A 
ATOM      6  C   UNL     1     -10.500  13.244  65.899  0.00  0.00    -0.023 A 
ATOM      7  C   UNL     1      -9.741  13.118  67.110  0.00  0.00    +0.021 C 
ATOM      8  C   UNL     1      -9.207  14.447  67.539  0.00  0.00    +0.004 C 
ATOM      9  C   UNL     1     -10.273  15.493  67.581  0.00  0.00    +0.000 C 
ATOM     10  C   UNL     1     -11.529  15.065  68.316  0.00  0.00    +0.000 C 
ATOM     11  C   UNL     1     -11.960  13.706  67.766  0.00  0.00    +0.002 C 
ATOM     12  C   UNL     1      -8.828  11.967  67.274  0.00  0.00    +0.021 C 
ATOM     13  C   UNL     1     -10.851  14.359  65.184  0.00  0.00    +0.037 A 
ATOM     14  C   UNL     1     -11.806  14.201  64.183  0.00  0.00    +0.195 A 
ATOM     15  O   UNL     1     -12.718  15.220  63.875  0.00  0.00    -0.287 OA
ATOM     16  C   UNL     1     -12.043  12.932  63.663  0.00  0.00    +0.042 A 
ATOM     17  C   UNL     1     -11.617  11.784  64.324  0.00  0.00    -0.001 A 
ATOM     18  C   UNL     1     -10.712  12.828  68.384  0.00  0.00    +0.019 C 
ATOM     19  C   UNL     1      -9.033  11.102  68.449  0.00  0.00    +0.072 C 
ENDROOT
TORSDOF 0
ENDMDL
MODEL 5
REMARK VINA RESULT:      -6.0      1.889      3.648
REMARK  Name = 
REMARK  0 active torsions:
REMARK  status: ('A' for Active; 'I' for Inactive)
REMARK                            x       y       z     vdW  Elec       q    Type
REMARK                         _______ _______ _______ _____ _____    ______ ____
ROOT
ATOM      1  C   UNL     1      -9.642  16.820  68.711  0.00  0.00    +0.090 C 
ATOM      2  N   UNL     1      -9.715  15.620  68.990  0.00  0.00    -0.272 NA
ATOM      3  C   UNL     1      -9.544  14.912  67.576  0.00  0.00    +0.062 C 
ATOM      4  C   UNL     1     -11.083  15.342  67.166  0.00  0.00    +0.042 C 
ATOM      5  C   UNL     1     -11.451  14.490  66.038  0.00  0.00    -0.025 A 
ATOM      6  C   UNL     1     -11.723  13.237  66.594  0.00  0.00    -0.023 A 
ATOM      7  C   UNL     1     -11.454  13.248  68.004  0.00  0.00    +0.021 C 
ATOM      8  C   UNL     1     -11.688  11.896  68.596  0.00  0.00    +0.004 C 
ATOM      9  C   UNL     1     -10.980  10.821  67.838  0.00  0.00    +0.000 C 
ATOM     10  C   UNL     1      -9.522  11.125  67.550  0.00  0.00    +0.000 C 
ATOM     11  C   UNL     1      -9.442  12.524  66.941  0.00  0.00    +0.002 C 
ATOM     12  C   UNL     1     -11.900  14.400  68.815  0.00  0.00    +0.021 C 
ATOM     13  C   UNL     1     -12.055  12.200  65.762  0.00  0.00    +0.037 A 
ATOM     14  C   UNL     1     -12.011  12.442  64.391  0.00  0.00    +0.195 A 
ATOM     15  O   UNL     1     -11.650  11.437  63.483  0.00  0.00    -0.287 OA
ATOM     16  C   UNL     1     -12.062  13.753  63.930  0.00  0.00    +0.042 A 
ATOM     17  C   UNL     1     -11.817  14.832  64.775  0.00  0.00    -0.001 A 
ATOM     18  C   UNL     1      -9.856  13.363  68.295  0.00  0.00    +0.019 C 
ATOM     19  C   UNL     1     -10.875  15.120  69.591  0.00  0.00    +0.072 C 
ENDROOT
TORSDOF 0
ENDMDL
MODEL 6
REMARK VINA RESULT:      -6.0      2.547      4.098
REMARK  Name = 
REMARK  0 active torsions:
REMARK  status: ('A' for Active; 'I' for Inactive)
REMARK                            x       y       z     vdW  Elec       q    Type
REMARK                         _______ _______ _______ _____ _____    ______ ____
ROOT
ATOM      1  C   UNL     1      -9.947  11.325  66.702  0.00  0.00    +0.090 C 
ATOM      2  N   UNL     1      -9.693  12.530  66.621  0.00  0.00    -0.272 NA
ATOM      3  C   UNL     1      -9.661  12.992  68.143  0.00  0.00    +0.062 C 
ATOM      4  C   UNL     1     -11.307  12.913  68.211  0.00  0.00    +0.042 C 
ATOM      5  C   UNL     1     -11.698  13.685  69.388  0.00  0.00    -0.025 A 
ATOM      6  C   UNL     1     -11.566  15.024  69.014  0.00  0.00    -0.023 A 
ATOM      7  C   UNL     1     -11.026  15.120  67.687  0.00  0.00    +0.021 C 
ATOM      8  C   UNL     1     -10.829  16.550  67.300  0.00  0.00    +0.004 C 
ATOM      9  C   UNL     1     -10.069  17.313  68.336  0.00  0.00    +0.000 C 
ATOM     10  C   UNL     1      -8.804  16.621  68.809  0.00  0.00    +0.000 C 
ATOM     11  C   UNL     1      -9.162  15.182  69.179  0.00  0.00    +0.002 C 
ATOM     12  C   UNL     1     -11.542  14.225  66.630  0.00  0.00    +0.021 C 
ATOM     13  C   UNL     1     -11.822  16.001  69.940  0.00  0.00    +0.037 A 
ATOM     14  C   UNL     1     -12.112  15.589  71.238  0.00  0.00    +0.195 A 
ATOM     15  O   UNL     1     -11.728  16.351  72.350  0.00  0.00    -0.287 OA
ATOM     16  C   UNL     1     -12.545  14.285  71.458  0.00  0.00    +0.042 A 
ATOM     17  C   UNL     1     -12.379  13.292  70.496  0.00  0.00    -0.001 A 
ATOM     18  C   UNL     1      -9.468  14.647  67.653  0.00  0.00    +0.019 C 
ATOM     19  C   UNL     1     -10.567  13.374  65.928  0.00  0.00    +0.072 C 
ENDROOT
TORSDOF 0
ENDMDL
MODEL 7
REMARK VINA RESULT:      -5.8      3.066      4.642
REMARK  Name = 
REMARK  0 active torsions:
REMARK  status: ('A' for Active; 'I' for Inactive)
REMARK                            x       y       z     vdW  Elec       q    Type
REMARK                         _______ _______ _______ _____ _____    ______ ____
ROOT
ATOM      1  C   UNL     1     -10.938  15.871  65.000  0.00  0.00    +0.090 C 
ATOM      2  N   UNL     1     -10.915  15.131  65.988  0.00  0.00    -0.272 NA
ATOM      3  C   UNL     1      -9.797  14.065  65.609  0.00  0.00    +0.062 C 
ATOM      4  C   UNL     1     -10.838  13.333  64.560  0.00  0.00    +0.042 C 
ATOM      5  C   UNL     1     -10.279  12.008  64.299  0.00  0.00    -0.025 A 
ATOM      6  C   UNL     1     -10.564  11.254  65.440  0.00  0.00    -0.023 A 
ATOM      7  C   UNL     1     -11.195  12.075  66.434  0.00  0.00    +0.021 C 
ATOM      8  C   UNL     1     -11.452  11.290  67.680  0.00  0.00    +0.004 C 
ATOM      9  C   UNL     1     -10.232  10.570  68.152  0.00  0.00    +0.000 C 
ATOM     10  C   UNL     1      -8.989  11.438  68.215  0.00  0.00    +0.000 C 
ATOM     11  C   UNL     1      -8.851  12.164  66.877  0.00  0.00    +0.002 C 
ATOM     12  C   UNL     1     -12.260  13.015  66.026  0.00  0.00    +0.021 C 
ATOM     13  C   UNL     1     -10.117   9.961  65.510  0.00  0.00    +0.037 A 
ATOM     14  C   UNL     1      -9.317   9.505  64.465  0.00  0.00    +0.195 A 
ATOM     15  O   UNL     1      -8.291   8.576  64.681  0.00  0.00    -0.287 OA
ATOM     16  C   UNL     1      -9.351  10.169  63.243  0.00  0.00    +0.042 A 
ATOM     17  C   UNL     1      -9.884  11.450  63.125  0.00  0.00    -0.001 A 
ATOM     18  C   UNL     1     -10.149  13.161  67.049  0.00  0.00    +0.019 C 
ATOM     19  C   UNL     1     -12.071  14.438  66.357  0.00  0.00    +0.072 C 
ENDROOT
TORSDOF 0
ENDMDL
MODEL 8
REMARK VINA RESULT:      -5.8      2.462      3.414
REMARK  Name = 
REMARK  0 active torsions:
REMARK  status: ('A' for Active; 'I' for Inactive)
REMARK                            x       y       z     vdW  Elec       q    Type
REMARK                         _______ _______ _______ _____ _____    ______ ____
ROOT
ATOM      1  C   UNL     1      -8.675   7.738  65.700  0.00  0.00    +0.090 C 
ATOM      2  N   UNL     1      -8.758   8.582  66.597  0.00  0.00    -0.272 NA
ATOM      3  C   UNL     1     -10.167   9.265  66.316  0.00  0.00    +0.062 C 
ATOM      4  C   UNL     1      -9.527  10.078  65.032  0.00  0.00    +0.042 C 
ATOM      5  C   UNL     1     -10.457  11.166  64.741  0.00  0.00    -0.025 A 
ATOM      6  C   UNL     1     -10.228  12.124  65.732  0.00  0.00    -0.023 A 
ATOM      7  C   UNL     1      -9.262  11.641  66.677  0.00  0.00    +0.021 C 
ATOM      8  C   UNL     1      -9.053  12.637  67.772  0.00  0.00    +0.004 C 
ATOM      9  C   UNL     1     -10.343  13.085  68.378  0.00  0.00    +0.000 C 
ATOM     10  C   UNL     1     -11.280  11.949  68.746  0.00  0.00    +0.000 C 
ATOM     11  C   UNL     1     -11.404  11.027  67.533  0.00  0.00    +0.002 C 
ATOM     12  C   UNL     1      -8.050  10.953  66.185  0.00  0.00    +0.021 C 
ATOM     13  C   UNL     1     -10.997  13.258  65.749  0.00  0.00    +0.037 A 
ATOM     14  C   UNL     1     -12.032  13.342  64.821  0.00  0.00    +0.195 A 
ATOM     15  O   UNL     1     -13.231  14.002  65.120  0.00  0.00    -0.287 OA
ATOM     16  C   UNL     1     -11.993  12.539  63.685  0.00  0.00    +0.042 A 
ATOM     17  C   UNL     1     -11.153  11.431  63.605  0.00  0.00    -0.001 A 
ATOM     18  C   UNL     1      -9.872  10.426  67.573  0.00  0.00    +0.019 C 
ATOM     19  C   UNL     1      -7.794   9.592  66.685  0.00  0.00    +0.072 C 
ENDROOT
TORSDOF 0
ENDMDL
MODEL 9
REMARK VINA RESULT:      -5.8      4.050      6.290
REMARK  Name = 
REMARK  0 active torsions:
REMARK  status: ('A' for Active; 'I' for Inactive)
REMARK                            x       y       z     vdW  Elec       q    Type
REMARK                         _______ _______ _______ _____ _____    ______ ____
ROOT
ATOM      1  C   UNL     1      -4.688  18.622  68.745  0.00  0.00    +0.090 C 
ATOM      2  N   UNL     1      -5.619  19.215  68.195  0.00  0.00    -0.272 NA
ATOM      3  C   UNL     1      -6.885  18.763  69.047  0.00  0.00    +0.062 C 
ATOM      4  C   UNL     1      -6.849  17.278  68.328  0.00  0.00    +0.042 C 
ATOM      5  C   UNL     1      -8.161  16.683  68.572  0.00  0.00    -0.025 A 
ATOM      6  C   UNL     1      -9.029  17.326  67.686  0.00  0.00    -0.023 A 
ATOM      7  C   UNL     1      -8.335  18.356  66.966  0.00  0.00    +0.021 C 
ATOM      8  C   UNL     1      -9.270  19.086  66.057  0.00  0.00    +0.004 C 
ATOM      9  C   UNL     1     -10.500  19.547  66.769  0.00  0.00    +0.000 C 
ATOM     10  C   UNL     1     -10.223  20.265  68.077  0.00  0.00    +0.000 C 
ATOM     11  C   UNL     1      -9.270  19.399  68.900  0.00  0.00    +0.002 C 
ATOM     12  C   UNL     1      -6.987  18.077  66.426  0.00  0.00    +0.021 C 
ATOM     13  C   UNL     1     -10.361  17.006  67.713  0.00  0.00    +0.037 A 
ATOM     14  C   UNL     1     -10.784  16.117  68.698  0.00  0.00    +0.195 A 
ATOM     15  O   UNL     1     -12.055  16.220  69.279  0.00  0.00    -0.287 OA
ATOM     16  C   UNL     1      -9.851  15.284  69.308  0.00  0.00    +0.042 A 
ATOM     17  C   UNL     1      -8.485  15.534  69.220  0.00  0.00    -0.001 A 
ATOM     18  C   UNL     1      -7.941  19.594  67.948  0.00  0.00    +0.019 C 
ATOM     19  C   UNL     1      -5.892  18.969  66.845  0.00  0.00    +0.072 C 
ENDROOT
TORSDOF 0
ENDMDL
