MODEL 1
REMARK VINA RESULT:      -5.7      0.000      0.000
REMARK  Name = 
REMARK  4 active torsions:
REMARK  status: ('A' for Active; 'I' for Inactive)
REMARK    1  A    between atoms: N_2  and  N_3
REMARK    2  A    between atoms: N_3  and  C_4
REMARK    3  A    between atoms: C_4  and  C_5
REMARK    4  A    between atoms: N_9  and  C_10
REMARK                            x       y       z     vdW  Elec       q    Type
REMARK                         _______ _______ _______ _____ _____    ______ ____
ROOT
ATOM      1  N   UNL     1     -11.155  15.265  65.637  0.00  0.00    -0.127 N 
ATOM      2  C   UNL     1     -10.814  15.499  67.005  0.00  0.00    +0.345 C 
ATOM      3  N   UNL     1     -11.674  15.211  68.088  0.00  0.00    -0.189 NA
ATOM      4  O   UNL     1      -9.614  15.787  67.259  0.00  0.00    -0.249 OA
ENDROOT
BRANCH   3   5
ATOM      5  C   UNL     1     -11.163  14.646  69.303  0.00  0.00    +0.097 C 
ATOM      6  C   UNL     1     -10.824  15.635  70.361  0.00  0.00    +0.022 C 
ATOM      7  C   UNL     1     -11.937  15.949  71.313  0.00  0.00    +0.002 C 
ATOM      8  C   UNL     1     -13.126  15.062  71.062  0.00  0.00    +0.000 C 
ATOM      9  C   UNL     1     -12.704  13.619  71.006  0.00  0.00    +0.002 C 
ATOM     10  C   UNL     1     -11.881  13.423  69.770  0.00  0.00    +0.022 C 
ENDBRANCH   3   5
BRANCH   1  12
ATOM     11  O   UNL     1     -11.618  16.649  63.907  0.00  0.00    -0.126 OA
ATOM     12  N   UNL     1     -10.750  16.259  64.724  0.00  0.00    +0.053 NA
ENDBRANCH   1  12
BRANCH   1  13
ATOM     13  C   UNL     1     -11.030  13.892  65.153  0.00  0.00    +0.141 C 
BRANCH  13  14
ATOM     14  C   UNL     1     -12.425  13.286  65.046  0.00  0.00    +0.119 C 
ATOM     15 CL   UNL     1     -12.402  12.203  63.629  0.00  0.00    -0.112 Cl
ENDBRANCH  13  14
ENDBRANCH   1  13
TORSDOF 4
ENDMDL
MODEL 2
REMARK VINA RESULT:      -5.5      3.608      4.165
REMARK  Name = 
REMARK  4 active torsions:
REMARK  status: ('A' for Active; 'I' for Inactive)
REMARK    1  A    between atoms: N_2  and  N_3
REMARK    2  A    between atoms: N_3  and  C_4
REMARK    3  A    between atoms: C_4  and  C_5
REMARK    4  A    between atoms: N_9  and  C_10
REMARK                            x       y       z     vdW  Elec       q    Type
REMARK                         _______ _______ _______ _____ _____    ______ ____
ROOT
ATOM      1  N   UNL     1     -11.358  14.600  65.161  0.00  0.00    -0.127 N 
ATOM      2  C   UNL     1     -11.146  16.011  65.245  0.00  0.00    +0.345 C 
ATOM      3  N   UNL     1     -10.574  16.653  66.367  0.00  0.00    -0.189 NA
ATOM      4  O   UNL     1     -11.292  16.681  64.189  0.00  0.00    -0.249 OA
ENDROOT
BRANCH   3   5
ATOM      5  C   UNL     1      -9.642  17.730  66.202  0.00  0.00    +0.097 C 
ATOM      6  C   UNL     1     -10.246  19.089  66.218  0.00  0.00    +0.022 C 
ATOM      7  C   UNL     1     -10.314  19.736  67.567  0.00  0.00    +0.002 C 
ATOM      8  C   UNL     1      -9.607  18.900  68.600  0.00  0.00    +0.000 C 
ATOM      9  C   UNL     1      -8.228  18.530  68.123  0.00  0.00    +0.002 C 
ATOM     10  C   UNL     1      -8.374  17.579  66.976  0.00  0.00    +0.022 C 
ENDBRANCH   3   5
BRANCH   1  12
ATOM     11  O   UNL     1     -13.544  14.040  65.333  0.00  0.00    -0.126 OA
ATOM     12  N   UNL     1     -12.567  14.196  64.562  0.00  0.00    +0.053 NA
ENDBRANCH   1  12
BRANCH   1  13
ATOM     13  C   UNL     1     -10.196  13.778  64.829  0.00  0.00    +0.141 C 
BRANCH  13  14
ATOM     14  C   UNL     1     -10.655  12.624  63.945  0.00  0.00    +0.119 C 
ATOM     15 CL   UNL     1     -10.579  11.153  64.950  0.00  0.00    -0.112 Cl
ENDBRANCH  13  14
ENDBRANCH   1  13
TORSDOF 4
ENDMDL
MODEL 3
REMARK VINA RESULT:      -5.4      1.675      1.967
REMARK  Name = 
REMARK  4 active torsions:
REMARK  status: ('A' for Active; 'I' for Inactive)
REMARK    1  A    between atoms: N_2  and  N_3
REMARK    2  A    between atoms: N_3  and  C_4
REMARK    3  A    between atoms: C_4  and  C_5
REMARK    4  A    between atoms: N_9  and  C_10
REMARK                            x       y       z     vdW  Elec       q    Type
REMARK                         _______ _______ _______ _____ _____    ______ ____
ROOT
ATOM      1  N   UNL     1     -11.000  16.104  67.479  0.00  0.00    -0.127 N 
ATOM      2  C   UNL     1     -10.969  16.209  68.904  0.00  0.00    +0.345 C 
ATOM      3  N   UNL     1     -12.055  15.863  69.740  0.00  0.00    -0.189 NA
ATOM      4  O   UNL     1      -9.851  16.427  69.443  0.00  0.00    -0.249 OA
ENDROOT
BRANCH   3   5
ATOM      5  C   UNL     1     -11.840  15.177  70.980  0.00  0.00    +0.097 C 
ATOM      6  C   UNL     1     -12.149  15.973  72.199  0.00  0.00    +0.022 C 
ATOM      7  C   UNL     1     -13.553  15.843  72.701  0.00  0.00    +0.002 C 
ATOM      8  C   UNL     1     -14.307  14.798  71.923  0.00  0.00    +0.000 C 
ATOM      9  C   UNL     1     -13.516  13.519  71.857  0.00  0.00    +0.002 C 
ATOM     10  C   UNL     1     -12.312  13.761  70.999  0.00  0.00    +0.022 C 
ENDBRANCH   3   5
BRANCH   1  12
ATOM     11  O   UNL     1     -10.462  17.107  65.523  0.00  0.00    -0.126 OA
ATOM     12  N   UNL     1     -10.383  17.155  66.773  0.00  0.00    +0.053 NA
ENDBRANCH   1  12
BRANCH   1  13
ATOM     13  C   UNL     1     -10.796  14.773  66.912  0.00  0.00    +0.141 C 
BRANCH  13  14
ATOM     14  C   UNL     1     -12.158  14.174  66.579  0.00  0.00    +0.119 C 
ATOM     15 CL   UNL     1     -12.376  14.354  64.818  0.00  0.00    -0.112 Cl
ENDBRANCH  13  14
ENDBRANCH   1  13
TORSDOF 4
ENDMDL
MODEL 4
REMARK VINA RESULT:      -5.3      4.289      6.354
REMARK  Name = 
REMARK  4 active torsions:
REMARK  status: ('A' for Active; 'I' for Inactive)
REMARK    1  A    between atoms: N_2  and  N_3
REMARK    2  A    between atoms: N_3  and  C_4
REMARK    3  A    between atoms: C_4  and  C_5
REMARK    4  A    between atoms: N_9  and  C_10
REMARK                            x       y       z     vdW  Elec       q    Type
REMARK                         _______ _______ _______ _____ _____    ______ ____
ROOT
ATOM      1  N   UNL     1     -12.975  15.698  71.149  0.00  0.00    -0.127 N 
ATOM      2  C   UNL     1     -12.320  15.354  69.926  0.00  0.00    +0.345 C 
ATOM      3  N   UNL     1     -11.755  16.303  69.045  0.00  0.00    -0.189 NA
ATOM      4  O   UNL     1     -12.060  14.136  69.733  0.00  0.00    -0.249 OA
ENDROOT
BRANCH   3   5
ATOM      5  C   UNL     1     -10.503  16.050  68.394  0.00  0.00    +0.097 C 
ATOM      6  C   UNL     1     -10.582  15.903  66.916  0.00  0.00    +0.022 C 
ATOM      7  C   UNL     1     -10.400  17.172  66.143  0.00  0.00    +0.002 C 
ATOM      8  C   UNL     1     -10.024  18.308  67.056  0.00  0.00    +0.000 C 
ATOM      9  C   UNL     1      -8.874  17.913  67.942  0.00  0.00    +0.002 C 
ATOM     10  C   UNL     1      -9.363  16.870  68.900  0.00  0.00    +0.022 C 
ENDBRANCH   3   5
BRANCH   1  12
ATOM     11  O   UNL     1     -15.218  15.591  71.428  0.00  0.00    -0.126 OA
ATOM     12  N   UNL     1     -14.135  14.959  71.452  0.00  0.00    +0.053 NA
ENDBRANCH   1  12
BRANCH   1  13
ATOM     13  C   UNL     1     -12.118  16.002  72.293  0.00  0.00    +0.141 C 
BRANCH  13  14
ATOM     14  C   UNL     1     -12.436  15.019  73.414  0.00  0.00    +0.119 C 
ATOM     15 CL   UNL     1     -12.432  15.958  74.930  0.00  0.00    -0.112 Cl
ENDBRANCH  13  14
ENDBRANCH   1  13
TORSDOF 4
ENDMDL
MODEL 5
REMARK VINA RESULT:      -5.2      3.631      6.172
REMARK  Name = 
REMARK  4 active torsions:
REMARK  status: ('A' for Active; 'I' for Inactive)
REMARK    1  A    between atoms: N_2  and  N_3
REMARK    2  A    between atoms: N_3  and  C_4
REMARK    3  A    between atoms: C_4  and  C_5
REMARK    4  A    between atoms: N_9  and  C_10
REMARK                            x       y       z     vdW  Elec       q    Type
REMARK                         _______ _______ _______ _____ _____    ______ ____
ROOT
ATOM      1  N   UNL     1     -11.832  14.145  64.627  0.00  0.00    -0.127 N 
ATOM      2  C   UNL     1     -11.619  12.969  63.842  0.00  0.00    +0.345 C 
ATOM      3  N   UNL     1     -10.394  12.266  63.798  0.00  0.00    -0.189 NA
ATOM      4  O   UNL     1     -12.633  12.426  63.328  0.00  0.00    -0.249 OA
ENDROOT
BRANCH   3   5
ATOM      5  C   UNL     1     -10.368  10.833  63.782  0.00  0.00    +0.097 C 
ATOM      6  C   UNL     1      -9.532  10.232  62.707  0.00  0.00    +0.022 C 
ATOM      7  C   UNL     1      -8.108   9.968  63.086  0.00  0.00    +0.002 C 
ATOM      8  C   UNL     1      -7.881  10.243  64.548  0.00  0.00    +0.000 C 
ATOM      9  C   UNL     1      -8.919   9.542  65.383  0.00  0.00    +0.002 C 
ATOM     10  C   UNL     1     -10.241  10.198  65.127  0.00  0.00    +0.022 C 
ENDBRANCH   3   5
BRANCH   1  12
ATOM     11  O   UNL     1     -12.019  16.256  63.833  0.00  0.00    -0.126 OA
ATOM     12  N   UNL     1     -12.597  15.158  64.018  0.00  0.00    +0.053 NA
ENDBRANCH   1  12
BRANCH   1  13
ATOM     13  C   UNL     1     -12.085  13.948  66.052  0.00  0.00    +0.141 C 
BRANCH  13  14
ATOM     14  C   UNL     1     -10.789  14.198  66.814  0.00  0.00    +0.119 C 
ATOM     15 CL   UNL     1     -10.763  15.934  67.219  0.00  0.00    -0.112 Cl
ENDBRANCH  13  14
ENDBRANCH   1  13
TORSDOF 4
ENDMDL
MODEL 6
REMARK VINA RESULT:      -5.1      3.180      3.868
REMARK  Name = 
REMARK  4 active torsions:
REMARK  status: ('A' for Active; 'I' for Inactive)
REMARK    1  A    between atoms: N_2  and  N_3
REMARK    2  A    between atoms: N_3  and  C_4
REMARK    3  A    between atoms: C_4  and  C_5
REMARK    4  A    between atoms: N_9  and  C_10
REMARK                            x       y       z     vdW  Elec       q    Type
REMARK                         _______ _______ _______ _____ _____    ______ ____
ROOT
ATOM      1  N   UNL     1     -12.017  12.568  65.242  0.00  0.00    -0.127 N 
ATOM      2  C   UNL     1     -12.011  12.722  66.663  0.00  0.00    +0.345 C 
ATOM      3  N   UNL     1     -11.866  11.647  67.568  0.00  0.00    -0.189 NA
ATOM      4  O   UNL     1     -11.928  13.894  67.116  0.00  0.00    -0.249 OA
ENDROOT
BRANCH   3   5
ATOM      5  C   UNL     1     -11.064  11.781  68.749  0.00  0.00    +0.097 C 
ATOM      6  C   UNL     1     -11.788  11.554  70.028  0.00  0.00    +0.022 C 
ATOM      7  C   UNL     1     -11.769  10.141  70.524  0.00  0.00    +0.002 C 
ATOM      8  C   UNL     1     -10.877   9.283  69.668  0.00  0.00    +0.000 C 
ATOM      9  C   UNL     1      -9.530   9.932  69.496  0.00  0.00    +0.002 C 
ATOM     10  C   UNL     1      -9.710  11.159  68.655  0.00  0.00    +0.022 C 
ENDBRANCH   3   5
BRANCH   1  12
ATOM     11  O   UNL     1     -12.525  13.923  63.503  0.00  0.00    -0.126 OA
ATOM     12  N   UNL     1     -12.945  13.363  64.543  0.00  0.00    +0.053 NA
ENDBRANCH   1  12
BRANCH   1  13
ATOM     13  C   UNL     1     -10.718  12.413  64.591  0.00  0.00    +0.141 C 
BRANCH  13  14
ATOM     14  C   UNL     1     -10.663  11.036  63.938  0.00  0.00    +0.119 C 
ATOM     15 CL   UNL     1     -10.008   9.918  65.165  0.00  0.00    -0.112 Cl
ENDBRANCH  13  14
ENDBRANCH   1  13
TORSDOF 4
ENDMDL
MODEL 7
REMARK VINA RESULT:      -5.0      3.147      4.793
REMARK  Name = 
REMARK  4 active torsions:
REMARK  status: ('A' for Active; 'I' for Inactive)
REMARK    1  A    between atoms: N_2  and  N_3
REMARK    2  A    between atoms: N_3  and  C_4
REMARK    3  A    between atoms: C_4  and  C_5
REMARK    4  A    between atoms: N_9  and  C_10
REMARK                            x       y       z     vdW  Elec       q    Type
REMARK                         _______ _______ _______ _____ _____    ______ ____
ROOT
ATOM      1  N   UNL     1      -9.925  17.445  66.391  0.00  0.00    -0.127 N 
ATOM      2  C   UNL     1     -10.353  16.518  65.391  0.00  0.00    +0.345 C 
ATOM      3  N   UNL     1     -10.046  15.138  65.416  0.00  0.00    -0.189 NA
ATOM      4  O   UNL     1     -11.212  16.919  64.562  0.00  0.00    -0.249 OA
ENDROOT
BRANCH   3   5
ATOM      5  C   UNL     1     -11.023  14.159  65.040  0.00  0.00    +0.097 C 
ATOM      6  C   UNL     1     -10.489  13.003  64.272  0.00  0.00    +0.022 C 
ATOM      7  C   UNL     1     -10.059  11.835  65.105  0.00  0.00    +0.002 C 
ATOM      8  C   UNL     1     -10.410  12.048  66.552  0.00  0.00    +0.000 C 
ATOM      9  C   UNL     1     -11.853  12.451  66.690  0.00  0.00    +0.002 C 
ATOM     10  C   UNL     1     -12.010  13.823  66.108  0.00  0.00    +0.022 C 
ENDBRANCH   3   5
BRANCH   1  12
ATOM     11  O   UNL     1     -10.263  19.673  66.183  0.00  0.00    -0.126 OA
ATOM     12  N   UNL     1      -9.509  18.706  65.920  0.00  0.00    +0.053 NA
ENDBRANCH   1  12
BRANCH   1  13
ATOM     13  C   UNL     1     -10.687  17.469  67.637  0.00  0.00    +0.141 C 
BRANCH  13  14
ATOM     14  C   UNL     1      -9.803  16.931  68.757  0.00  0.00    +0.119 C 
ATOM     15 CL   UNL     1     -10.237  15.214  68.968  0.00  0.00    -0.112 Cl
ENDBRANCH  13  14
ENDBRANCH   1  13
TORSDOF 4
ENDMDL
MODEL 8
REMARK VINA RESULT:      -4.9      3.606      5.248
REMARK  Name = 
REMARK  4 active torsions:
REMARK  status: ('A' for Active; 'I' for Inactive)
REMARK    1  A    between atoms: N_2  and  N_3
REMARK    2  A    between atoms: N_3  and  C_4
REMARK    3  A    between atoms: C_4  and  C_5
REMARK    4  A    between atoms: N_9  and  C_10
REMARK                            x       y       z     vdW  Elec       q    Type
REMARK                         _______ _______ _______ _____ _____    ______ ____
ROOT
ATOM      1  N   UNL     1      -8.715  17.361  66.538  0.00  0.00    -0.127 N 
ATOM      2  C   UNL     1      -9.771  16.721  65.817  0.00  0.00    +0.345 C 
ATOM      3  N   UNL     1      -9.993  15.326  65.825  0.00  0.00    -0.189 NA
ATOM      4  O   UNL     1     -10.659  17.461  65.317  0.00  0.00    -0.249 OA
ENDROOT
BRANCH   3   5
ATOM      5  C   UNL     1     -11.323  14.793  65.882  0.00  0.00    +0.097 C 
ATOM      6  C   UNL     1     -11.849  14.280  64.589  0.00  0.00    +0.022 C 
ATOM      7  C   UNL     1     -11.587  12.828  64.330  0.00  0.00    +0.002 C 
ATOM      8  C   UNL     1     -10.964  12.172  65.532  0.00  0.00    +0.000 C 
ATOM      9  C   UNL     1     -11.759  12.481  66.772  0.00  0.00    +0.002 C 
ATOM     10  C   UNL     1     -11.600  13.939  67.075  0.00  0.00    +0.022 C 
ENDBRANCH   3   5
BRANCH   1  12
ATOM     11  O   UNL     1      -6.990  18.131  65.293  0.00  0.00    -0.126 OA
ATOM     12  N   UNL     1      -8.066  18.416  65.868  0.00  0.00    +0.053 NA
ENDBRANCH   1  12
BRANCH   1  13
ATOM     13  C   UNL     1      -8.928  17.572  67.968  0.00  0.00    +0.141 C 
BRANCH  13  14
ATOM     14  C   UNL     1      -8.715  19.049  68.278  0.00  0.00    +0.119 C 
ATOM     15 CL   UNL     1     -10.294  19.847  68.058  0.00  0.00    -0.112 Cl
ENDBRANCH  13  14
ENDBRANCH   1  13
TORSDOF 4
ENDMDL
MODEL 9
REMARK VINA RESULT:      -4.9      3.649      4.318
REMARK  Name = 
REMARK  4 active torsions:
REMARK  status: ('A' for Active; 'I' for Inactive)
REMARK    1  A    between atoms: N_2  and  N_3
REMARK    2  A    between atoms: N_3  and  C_4
REMARK    3  A    between atoms: C_4  and  C_5
REMARK    4  A    between atoms: N_9  and  C_10
REMARK                            x       y       z     vdW  Elec       q    Type
REMARK                         _______ _______ _______ _____ _____    ______ ____
ROOT
ATOM      1  N   UNL     1     -11.542  11.939  66.321  0.00  0.00    -0.127 N 
ATOM      2  C   UNL     1     -11.813  12.129  67.712  0.00  0.00    +0.345 C 
ATOM      3  N   UNL     1     -12.079  11.071  68.611  0.00  0.00    -0.189 NA
ATOM      4  O   UNL     1     -11.604  13.276  68.189  0.00  0.00    -0.249 OA
ENDROOT
BRANCH   3   5
ATOM      5  C   UNL     1     -11.539  11.082  69.939  0.00  0.00    +0.097 C 
ATOM      6  C   UNL     1     -12.539  11.298  71.020  0.00  0.00    +0.022 C 
ATOM      7  C   UNL     1     -13.142  10.049  71.584  0.00  0.00    +0.002 C 
ATOM      8  C   UNL     1     -12.475   8.826  71.014  0.00  0.00    +0.000 C 
ATOM      9  C   UNL     1     -10.979   8.939  71.131  0.00  0.00    +0.002 C 
ATOM     10  C   UNL     1     -10.521  10.024  70.206  0.00  0.00    +0.022 C 
ENDBRANCH   3   5
BRANCH   1  12
ATOM     11  O   UNL     1     -13.131  12.492  64.808  0.00  0.00    -0.126 OA
ATOM     12  N   UNL     1     -12.125  12.878  65.448  0.00  0.00    +0.053 NA
ENDBRANCH   1  12
BRANCH   1  13
ATOM     13  C   UNL     1     -10.188  11.518  65.965  0.00  0.00    +0.141 C 
BRANCH  13  14
ATOM     14  C   UNL     1     -10.283  10.335  65.009  0.00  0.00    +0.119 C 
ATOM     15 CL   UNL     1     -10.006   8.868  65.985  0.00  0.00    -0.112 Cl
ENDBRANCH  13  14
ENDBRANCH   1  13
TORSDOF 4
ENDMDL
