MODEL 1
REMARK VINA RESULT:      -7.7      0.000      0.000
REMARK  Name = 
REMARK  8 active torsions:
REMARK  status: ('A' for Active; 'I' for Inactive)
REMARK    1  A    between atoms: O_2  and  C_3
REMARK    2  A    between atoms: C_7  and  O_8
REMARK    3  A    between atoms: O_8  and  C_9
REMARK    4  A    between atoms: C_15  and  C_16
REMARK    5  A    between atoms: N_18  and  S_19
REMARK    6  A    between atoms: S_19  and  C_22
REMARK    7  A    between atoms: C_40  and  C_41
REMARK    8  A    between atoms: C_43  and  C_44
REMARK                            x       y       z     vdW  Elec       q    Type
REMARK                         _______ _______ _______ _____ _____    ______ ____
ROOT
ATOM      1  C   UNL     1      -7.535  13.011  67.269  0.00  0.00    +0.167 C 
ATOM      2  C   UNL     1      -6.354  14.051  67.813  0.00  0.00    +0.053 C 
ATOM      3  C   UNL     1      -7.133  14.649  69.114  0.00  0.00    +0.089 C 
ATOM      4  C   UNL     1      -8.215  15.287  67.923  0.00  0.00    +0.090 C 
ATOM      5  C   UNL     1      -9.242  15.875  69.016  0.00  0.00    +0.242 C 
ATOM      6  N   UNL     1     -10.000  16.911  68.425  0.00  0.00    -0.200 NA
ATOM      7  C   UNL     1     -10.101  17.182  67.102  0.00  0.00    +0.154 C 
ATOM      8  C   UNL     1      -9.688  18.788  66.815  0.00  0.00    +0.051 C 
ATOM      9  C   UNL     1      -8.867  18.968  68.285  0.00  0.00    -0.029 C 
ATOM     10  C   UNL     1      -7.647  19.460  68.004  0.00  0.00    -0.031 C 
ATOM     11  C   UNL     1      -6.817  18.844  66.916  0.00  0.00    +0.026 C 
ATOM     12  C   UNL     1      -5.522  18.283  67.445  0.00  0.00    +0.006 C 
ATOM     13  C   UNL     1      -4.929  17.199  66.599  0.00  0.00    +0.022 C 
ATOM     14  C   UNL     1      -5.170  15.814  67.194  0.00  0.00    +0.093 C 
ATOM     15  N   UNL     1      -5.009  16.054  68.635  0.00  0.00    -0.278 N 
ATOM     16  C   UNL     1      -3.910  16.864  69.155  0.00  0.00    +0.115 C 
ATOM     17  C   UNL     1      -8.646  17.549  66.327  0.00  0.00    +0.036 C 
ATOM     18  O   UNL     1      -9.515  15.214  70.002  0.00  0.00    -0.273 OA
ATOM     19  C   UNL     1      -6.299  16.025  69.198  0.00  0.00    +0.226 C 
ATOM     20  O   UNL     1      -6.406  16.453  70.392  0.00  0.00    -0.275 OA
ATOM     21  C   UNL     1      -8.834  13.776  67.988  0.00  0.00    +0.053 C 
ENDROOT
BRANCH   7  22
ATOM     22  C   UNL     1     -10.888  16.571  66.060  0.00  0.00    +0.280 C 
ATOM     23  N   UNL     1     -11.439  15.256  66.260  0.00  0.00    -0.062 NA
ATOM     24  O   UNL     1     -10.520  16.686  64.842  0.00  0.00    -0.270 OA
BRANCH  23  25
ATOM     25  S   UNL     1     -12.029  14.387  64.873  0.00  0.00    +0.074 S 
ATOM     26  O   UNL     1     -12.545  15.277  63.819  0.00  0.00    -0.153 OA
ATOM     27  O   UNL     1     -13.182  13.535  65.362  0.00  0.00    -0.153 OA
BRANCH  25  28
ATOM     28  C   UNL     1     -10.800  13.235  64.270  0.00  0.00    +0.151 C 
ATOM     29  C   UNL     1     -10.576  12.028  65.208  0.00  0.00    +0.027 C 
ATOM     30  C   UNL     1     -11.268  11.883  63.837  0.00  0.00    +0.027 C 
ENDBRANCH  25  28
ENDBRANCH  23  25
ENDBRANCH   7  22
BRANCH   1  31
ATOM     31  O   UNL     1      -7.299  12.057  68.505  0.00  0.00    -0.479 OA
BRANCH  31  37
ATOM     32  C   UNL     1     -10.177   8.586  70.372  0.00  0.00    +0.136 A 
ATOM     33  C   UNL     1      -9.008   7.998  69.900  0.00  0.00    +0.030 A 
ATOM     34  C   UNL     1      -8.917   6.523  69.895  0.00  0.00    +0.036 C 
ATOM     35  C   UNL     1      -8.241   8.689  68.969  0.00  0.00    +0.083 A 
ATOM     36  C   UNL     1      -8.434  10.070  68.986  0.00  0.00    +0.052 A 
ATOM     37  C   UNL     1      -7.591  10.752  68.113  0.00  0.00    +0.141 A 
ATOM     38  C   UNL     1      -6.987  10.096  67.045  0.00  0.00    +0.058 A 
ATOM     39  C   UNL     1      -7.244   8.744  66.801  0.00  0.00    +0.108 A 
ATOM     40  C   UNL     1      -9.705  10.612  69.163  0.00  0.00    +0.008 A 
ATOM     41  N   UNL     1      -7.620   8.080  67.928  0.00  0.00    -0.243 NA
ATOM     42  C   UNL     1     -10.506   9.901  70.057  0.00  0.00    +0.037 A 
BRANCH  39  43
ATOM     43  C   UNL     1      -7.694   8.278  65.475  0.00  0.00    +0.128 A 
ATOM     44  S   UNL     1      -7.309   6.835  64.621  0.00  0.00    -0.065 S 
ATOM     45  C   UNL     1      -7.997   7.270  63.112  0.00  0.00    +0.052 A 
ATOM     46  C   UNL     1      -8.356   8.591  63.368  0.00  0.00    +0.066 A 
ATOM     47  N   UNL     1      -8.622   8.792  64.655  0.00  0.00    -0.241 NA
BRANCH  46  48
ATOM     48  C   UNL     1      -9.031   9.348  62.263  0.00  0.00    +0.041 C 
ATOM     49  C   UNL     1      -8.363  10.657  61.971  0.00  0.00    +0.006 C 
ATOM     50  C   UNL     1      -9.189   8.460  61.056  0.00  0.00    +0.006 C 
ENDBRANCH  46  48
ENDBRANCH  39  43
BRANCH  32  52
ATOM     51  C   UNL     1     -11.874   8.212  71.932  0.00  0.00    +0.252 C 
ATOM     52  O   UNL     1     -11.258   7.801  70.790  0.00  0.00    -0.472 OA
ENDBRANCH  32  52
ENDBRANCH  31  37
ENDBRANCH   1  31
TORSDOF 8
ENDMDL
MODEL 2
REMARK VINA RESULT:      -7.5      2.804      4.817
REMARK  Name = 
REMARK  8 active torsions:
REMARK  status: ('A' for Active; 'I' for Inactive)
REMARK    1  A    between atoms: O_2  and  C_3
REMARK    2  A    between atoms: C_7  and  O_8
REMARK    3  A    between atoms: O_8  and  C_9
REMARK    4  A    between atoms: C_15  and  C_16
REMARK    5  A    between atoms: N_18  and  S_19
REMARK    6  A    between atoms: S_19  and  C_22
REMARK    7  A    between atoms: C_40  and  C_41
REMARK    8  A    between atoms: C_43  and  C_44
REMARK                            x       y       z     vdW  Elec       q    Type
REMARK                         _______ _______ _______ _____ _____    ______ ____
ROOT
ATOM      1  C   UNL     1      -7.949  11.657  67.965  0.00  0.00    +0.167 C 
ATOM      2  C   UNL     1      -8.494  13.204  68.252  0.00  0.00    +0.053 C 
ATOM      3  C   UNL     1     -10.064  12.864  68.529  0.00  0.00    +0.089 C 
ATOM      4  C   UNL     1     -10.041  12.365  66.871  0.00  0.00    +0.090 C 
ATOM      5  C   UNL     1     -11.557  11.821  66.903  0.00  0.00    +0.242 C 
ATOM      6  N   UNL     1     -12.066  11.796  65.585  0.00  0.00    -0.200 NA
ATOM      7  C   UNL     1     -11.347  11.903  64.441  0.00  0.00    +0.154 C 
ATOM      8  C   UNL     1     -11.953  13.159  63.500  0.00  0.00    +0.051 C 
ATOM      9  C   UNL     1     -12.765  13.897  64.788  0.00  0.00    -0.029 C 
ATOM     10  C   UNL     1     -12.390  15.189  64.810  0.00  0.00    -0.031 C 
ATOM     11  C   UNL     1     -10.938  15.554  64.717  0.00  0.00    +0.026 C 
ATOM     12  C   UNL     1     -10.463  16.291  65.944  0.00  0.00    +0.006 C 
ATOM     13  C   UNL     1      -8.989  16.191  66.191  0.00  0.00    +0.022 C 
ATOM     14  C   UNL     1      -8.664  15.193  67.299  0.00  0.00    +0.093 C 
ATOM     15  N   UNL     1      -9.749  15.423  68.263  0.00  0.00    -0.278 N 
ATOM     16  C   UNL     1     -10.170  16.773  68.630  0.00  0.00    +0.115 C 
ATOM     17  C   UNL     1     -10.460  13.331  64.275  0.00  0.00    +0.036 C 
ATOM     18  O   UNL     1     -11.952  11.195  67.870  0.00  0.00    -0.273 OA
ATOM     19  C   UNL     1     -10.627  14.328  68.155  0.00  0.00    +0.226 C 
ATOM     20  O   UNL     1     -11.758  14.448  68.726  0.00  0.00    -0.275 OA
ATOM     21  C   UNL     1      -9.417  10.999  67.516  0.00  0.00    +0.053 C 
ENDROOT
BRANCH   7  22
ATOM     22  C   UNL     1     -10.559  10.936  63.716  0.00  0.00    +0.280 C 
ATOM     23  N   UNL     1      -9.812   9.939  64.437  0.00  0.00    -0.062 NA
ATOM     24  O   UNL     1      -9.881  11.311  62.701  0.00  0.00    -0.270 OA
BRANCH  23  25
ATOM     25  S   UNL     1      -8.576   9.058  63.587  0.00  0.00    +0.074 S 
ATOM     26  O   UNL     1      -8.975   8.693  62.217  0.00  0.00    -0.153 OA
ATOM     27  O   UNL     1      -8.359   7.774  64.361  0.00  0.00    -0.153 OA
BRANCH  25  28
ATOM     28  C   UNL     1      -7.014   9.928  63.649  0.00  0.00    +0.151 C 
ATOM     29  C   UNL     1      -6.444  10.067  65.078  0.00  0.00    +0.027 C 
ATOM     30  C   UNL     1      -5.797   9.144  64.024  0.00  0.00    +0.027 C 
ENDBRANCH  25  28
ENDBRANCH  23  25
ENDBRANCH   7  22
BRANCH   1  31
ATOM     31  O   UNL     1      -8.143  11.280  69.485  0.00  0.00    -0.479 OA
BRANCH  31  37
ATOM     32  C   UNL     1     -10.394   8.000  72.312  0.00  0.00    +0.136 A 
ATOM     33  C   UNL     1      -9.049   7.657  72.206  0.00  0.00    +0.030 A 
ATOM     34  C   UNL     1      -8.605   6.372  72.784  0.00  0.00    +0.036 C 
ATOM     35  C   UNL     1      -8.311   8.172  71.147  0.00  0.00    +0.083 A 
ATOM     36  C   UNL     1      -8.833   9.347  70.607  0.00  0.00    +0.052 A 
ATOM     37  C   UNL     1      -8.031   9.896  69.610  0.00  0.00    +0.141 A 
ATOM     38  C   UNL     1      -7.095   9.117  68.938  0.00  0.00    +0.058 A 
ATOM     39  C   UNL     1      -6.965   7.755  69.220  0.00  0.00    +0.108 A 
ATOM     40  C   UNL     1     -10.207   9.515  70.452  0.00  0.00    +0.008 A 
ATOM     41  N   UNL     1      -7.375   7.449  70.481  0.00  0.00    -0.243 NA
ATOM     42  C   UNL     1     -10.966   8.959  71.483  0.00  0.00    +0.037 A 
BRANCH  39  43
ATOM     43  C   UNL     1      -7.029   6.742  68.148  0.00  0.00    +0.128 A 
ATOM     44  S   UNL     1      -5.948   6.442  66.844  0.00  0.00    -0.065 S 
ATOM     45  C   UNL     1      -6.937   5.346  65.972  0.00  0.00    +0.052 A 
ATOM     46  C   UNL     1      -8.110   5.414  66.719  0.00  0.00    +0.066 A 
ATOM     47  N   UNL     1      -7.870   5.710  67.993  0.00  0.00    -0.241 NA
BRANCH  46  48
ATOM     48  C   UNL     1      -9.257   4.553  66.279  0.00  0.00    +0.041 C 
ATOM     49  C   UNL     1      -9.216   3.185  66.888  0.00  0.00    +0.006 C 
ATOM     50  C   UNL     1     -10.558   5.280  66.501  0.00  0.00    +0.006 C 
ENDBRANCH  46  48
ENDBRANCH  39  43
BRANCH  32  52
ATOM     51  C   UNL     1     -12.232   6.579  72.073  0.00  0.00    +0.252 C 
ATOM     52  O   UNL     1     -11.311   7.129  72.911  0.00  0.00    -0.472 OA
ENDBRANCH  32  52
ENDBRANCH  31  37
ENDBRANCH   1  31
TORSDOF 8
ENDMDL
MODEL 3
REMARK VINA RESULT:      -7.3      3.763      8.447
REMARK  Name = 
REMARK  8 active torsions:
REMARK  status: ('A' for Active; 'I' for Inactive)
REMARK    1  A    between atoms: O_2  and  C_3
REMARK    2  A    between atoms: C_7  and  O_8
REMARK    3  A    between atoms: O_8  and  C_9
REMARK    4  A    between atoms: C_15  and  C_16
REMARK    5  A    between atoms: N_18  and  S_19
REMARK    6  A    between atoms: S_19  and  C_22
REMARK    7  A    between atoms: C_40  and  C_41
REMARK    8  A    between atoms: C_43  and  C_44
REMARK                            x       y       z     vdW  Elec       q    Type
REMARK                         _______ _______ _______ _____ _____    ______ ____
ROOT
ATOM      1  C   UNL     1      -8.853  10.740  66.272  0.00  0.00    +0.167 C 
ATOM      2  C   UNL     1      -9.164  10.193  64.730  0.00  0.00    +0.053 C 
ATOM      3  C   UNL     1      -8.479   8.718  64.850  0.00  0.00    +0.089 C 
ATOM      4  C   UNL     1      -7.022   9.632  65.050  0.00  0.00    +0.090 C 
ATOM      5  C   UNL     1      -6.118   8.329  65.334  0.00  0.00    +0.242 C 
ATOM      6  N   UNL     1      -4.768   8.633  65.044  0.00  0.00    -0.200 NA
ATOM      7  C   UNL     1      -4.242   9.868  64.860  0.00  0.00    +0.154 C 
ATOM      8  C   UNL     1      -3.449   9.935  63.377  0.00  0.00    +0.051 C 
ATOM      9  C   UNL     1      -4.245   8.579  62.751  0.00  0.00    -0.029 C 
ATOM     10  C   UNL     1      -4.765   8.934  61.562  0.00  0.00    -0.031 C 
ATOM     11  C   UNL     1      -5.544  10.210  61.431  0.00  0.00    +0.026 C 
ATOM     12  C   UNL     1      -6.969   9.959  61.007  0.00  0.00    +0.006 C 
ATOM     13  C   UNL     1      -7.926  11.045  61.390  0.00  0.00    +0.022 C 
ATOM     14  C   UNL     1      -8.767  10.662  62.605  0.00  0.00    +0.093 C 
ATOM     15  N   UNL     1      -9.033   9.236  62.371  0.00  0.00    -0.278 N 
ATOM     16  C   UNL     1      -9.428   8.739  61.056  0.00  0.00    +0.115 C 
ATOM     17  C   UNL     1      -4.911  10.758  63.591  0.00  0.00    +0.036 C 
ATOM     18  O   UNL     1      -6.550   7.440  66.045  0.00  0.00    -0.273 OA
ATOM     19  C   UNL     1      -8.222   8.519  63.271  0.00  0.00    +0.226 C 
ATOM     20  O   UNL     1      -8.118   7.266  63.068  0.00  0.00    -0.275 OA
ATOM     21  C   UNL     1      -7.556   9.738  66.591  0.00  0.00    +0.053 C 
ENDROOT
BRANCH   7  22
ATOM     22  C   UNL     1      -3.839  10.883  65.802  0.00  0.00    +0.280 C 
ATOM     23  N   UNL     1      -4.545  11.020  67.049  0.00  0.00    -0.062 NA
ATOM     24  O   UNL     1      -3.516  12.044  65.377  0.00  0.00    -0.270 OA
BRANCH  23  25
ATOM     25  S   UNL     1      -4.315  12.477  67.973  0.00  0.00    +0.074 S 
ATOM     26  O   UNL     1      -4.503  13.697  67.171  0.00  0.00    -0.153 OA
ATOM     27  O   UNL     1      -2.877  12.456  68.449  0.00  0.00    -0.153 OA
BRANCH  25  28
ATOM     28  C   UNL     1      -5.315  12.457  69.456  0.00  0.00    +0.151 C 
ATOM     29  C   UNL     1      -6.834  12.457  69.174  0.00  0.00    +0.027 C 
ATOM     30  C   UNL     1      -6.106  11.222  69.744  0.00  0.00    +0.027 C 
ENDBRANCH  25  28
ENDBRANCH  23  25
ENDBRANCH   7  22
BRANCH   1  31
ATOM     31  O   UNL     1      -9.901   9.723  66.871  0.00  0.00    -0.479 OA
BRANCH  31  37
ATOM     32  C   UNL     1     -10.455   8.502  71.564  0.00  0.00    +0.136 A 
ATOM     33  C   UNL     1     -11.640   9.065  71.100  0.00  0.00    +0.030 A 
ATOM     34  C   UNL     1     -12.720   9.327  72.074  0.00  0.00    +0.036 C 
ATOM     35  C   UNL     1     -11.602   9.858  69.959  0.00  0.00    +0.083 A 
ATOM     36  C   UNL     1     -10.514   9.601  69.124  0.00  0.00    +0.052 A 
ATOM     37  C   UNL     1     -10.544  10.339  67.944  0.00  0.00    +0.141 A 
ATOM     38  C   UNL     1     -11.300  11.502  67.847  0.00  0.00    +0.058 A 
ATOM     39  C   UNL     1     -12.018  11.979  68.947  0.00  0.00    +0.108 A 
ATOM     40  C   UNL     1      -9.253   9.337  69.654  0.00  0.00    +0.008 A 
ATOM     41  N   UNL     1     -12.341  10.987  69.821  0.00  0.00    -0.243 NA
ATOM     42  C   UNL     1      -9.277   8.585  70.828  0.00  0.00    +0.037 A 
BRANCH  39  43
ATOM     43  C   UNL     1     -11.859  13.368  69.420  0.00  0.00    +0.128 A 
ATOM     44  S   UNL     1     -10.621  14.515  69.086  0.00  0.00    -0.065 S 
ATOM     45  C   UNL     1     -11.070  15.686  70.256  0.00  0.00    +0.052 A 
ATOM     46  C   UNL     1     -12.089  15.005  70.917  0.00  0.00    +0.066 A 
ATOM     47  N   UNL     1     -12.704  14.138  70.120  0.00  0.00    -0.241 NA
BRANCH  46  48
ATOM     48  C   UNL     1     -12.781  15.723  72.038  0.00  0.00    +0.041 C 
ATOM     49  C   UNL     1     -14.249  15.429  72.090  0.00  0.00    +0.006 C 
ATOM     50  C   UNL     1     -12.061  15.461  73.335  0.00  0.00    +0.006 C 
ENDBRANCH  46  48
ENDBRANCH  39  43
BRANCH  32  52
ATOM     51  C   UNL     1      -9.034   7.787  73.274  0.00  0.00    +0.252 C 
ATOM     52  O   UNL     1     -10.272   8.232  72.925  0.00  0.00    -0.472 OA
ENDBRANCH  32  52
ENDBRANCH  31  37
ENDBRANCH   1  31
TORSDOF 8
ENDMDL
MODEL 4
REMARK VINA RESULT:      -7.3      1.859      4.317
REMARK  Name = 
REMARK  8 active torsions:
REMARK  status: ('A' for Active; 'I' for Inactive)
REMARK    1  A    between atoms: O_2  and  C_3
REMARK    2  A    between atoms: C_7  and  O_8
REMARK    3  A    between atoms: O_8  and  C_9
REMARK    4  A    between atoms: C_15  and  C_16
REMARK    5  A    between atoms: N_18  and  S_19
REMARK    6  A    between atoms: S_19  and  C_22
REMARK    7  A    between atoms: C_40  and  C_41
REMARK    8  A    between atoms: C_43  and  C_44
REMARK                            x       y       z     vdW  Elec       q    Type
REMARK                         _______ _______ _______ _____ _____    ______ ____
ROOT
ATOM      1  C   UNL     1      -7.193  13.189  67.250  0.00  0.00    +0.167 C 
ATOM      2  C   UNL     1      -6.143  14.386  67.737  0.00  0.00    +0.053 C 
ATOM      3  C   UNL     1      -6.983  14.943  69.019  0.00  0.00    +0.089 C 
ATOM      4  C   UNL     1      -8.139  15.395  67.812  0.00  0.00    +0.090 C 
ATOM      5  C   UNL     1      -9.223  15.902  68.890  0.00  0.00    +0.242 C 
ATOM      6  N   UNL     1     -10.104  16.813  68.262  0.00  0.00    -0.200 NA
ATOM      7  C   UNL     1     -10.242  17.012  66.929  0.00  0.00    +0.154 C 
ATOM      8  C   UNL     1     -10.026  18.642  66.570  0.00  0.00    +0.051 C 
ATOM      9  C   UNL     1      -9.227  18.983  68.022  0.00  0.00    -0.029 C 
ATOM     10  C   UNL     1      -8.075  19.605  67.709  0.00  0.00    -0.031 C 
ATOM     11  C   UNL     1      -7.183  19.045  66.640  0.00  0.00    +0.026 C 
ATOM     12  C   UNL     1      -5.827  18.667  67.180  0.00  0.00    +0.006 C 
ATOM     13  C   UNL     1      -5.112  17.626  66.375  0.00  0.00    +0.022 C 
ATOM     14  C   UNL     1      -5.183  16.250  67.032  0.00  0.00    +0.093 C 
ATOM     15  N   UNL     1      -5.044  16.570  68.459  0.00  0.00    -0.278 N 
ATOM     16  C   UNL     1      -4.048  17.528  68.933  0.00  0.00    +0.115 C 
ATOM     17  C   UNL     1      -8.846  17.516  66.125  0.00  0.00    +0.036 C 
ATOM     18  O   UNL     1      -9.411  15.258  69.905  0.00  0.00    -0.273 OA
ATOM     19  C   UNL     1      -6.319  16.412  69.036  0.00  0.00    +0.226 C 
ATOM     20  O   UNL     1      -6.471  16.875  70.212  0.00  0.00    -0.275 OA
ATOM     21  C   UNL     1      -8.571  13.824  67.948  0.00  0.00    +0.053 C 
ENDROOT
BRANCH   7  22
ATOM     22  C   UNL     1     -10.955  16.266  65.922  0.00  0.00    +0.280 C 
ATOM     23  N   UNL     1     -11.417  14.934  66.215  0.00  0.00    -0.062 NA
ATOM     24  O   UNL     1     -10.562  16.312  64.708  0.00  0.00    -0.270 OA
BRANCH  23  25
ATOM     25  S   UNL     1     -11.906  13.919  64.888  0.00  0.00    +0.074 S 
ATOM     26  O   UNL     1     -12.630  14.658  63.841  0.00  0.00    -0.153 OA
ATOM     27  O   UNL     1     -12.855  12.890  65.466  0.00  0.00    -0.153 OA
BRANCH  25  28
ATOM     28  C   UNL     1     -10.517  12.989  64.251  0.00  0.00    +0.151 C 
ATOM     29  C   UNL     1     -10.087  11.820  65.165  0.00  0.00    +0.027 C 
ATOM     30  C   UNL     1     -10.768  11.586  63.801  0.00  0.00    +0.027 C 
ENDBRANCH  25  28
ENDBRANCH  23  25
ENDBRANCH   7  22
BRANCH   1  31
ATOM     31  O   UNL     1      -6.839  12.326  68.524  0.00  0.00    -0.479 OA
BRANCH  31  37
ATOM     32  C   UNL     1      -6.276   8.072  66.199  0.00  0.00    +0.136 A 
ATOM     33  C   UNL     1      -7.623   8.422  66.180  0.00  0.00    +0.030 A 
ATOM     34  C   UNL     1      -8.595   7.445  65.648  0.00  0.00    +0.036 C 
ATOM     35  C   UNL     1      -8.087   9.342  67.113  0.00  0.00    +0.083 A 
ATOM     36  C   UNL     1      -7.097  10.183  67.623  0.00  0.00    +0.052 A 
ATOM     37  C   UNL     1      -7.596  11.157  68.484  0.00  0.00    +0.141 A 
ATOM     38  C   UNL     1      -8.832  10.997  69.103  0.00  0.00    +0.058 A 
ATOM     39  C   UNL     1      -9.584   9.837  68.904  0.00  0.00    +0.108 A 
ATOM     40  C   UNL     1      -5.825   9.696  67.915  0.00  0.00    +0.008 A 
ATOM     41  N   UNL     1      -9.294   9.231  67.721  0.00  0.00    -0.243 NA
ATOM     42  C   UNL     1      -5.366   8.734  67.017  0.00  0.00    +0.037 A 
BRANCH  39  43
ATOM     43  C   UNL     1     -10.084   9.044  70.046  0.00  0.00    +0.128 A 
ATOM     44  S   UNL     1      -9.499   7.568  70.707  0.00  0.00    -0.065 S 
ATOM     45  C   UNL     1     -10.818   7.245  71.753  0.00  0.00    +0.052 A 
ATOM     46  C   UNL     1     -11.688   8.269  71.387  0.00  0.00    +0.066 A 
ATOM     47  N   UNL     1     -11.035   9.338  70.942  0.00  0.00    -0.241 NA
BRANCH  46  48
ATOM     48  C   UNL     1     -12.998   8.351  72.112  0.00  0.00    +0.041 C 
ATOM     49  C   UNL     1     -13.563   9.739  72.125  0.00  0.00    +0.006 C 
ATOM     50  C   UNL     1     -13.948   7.312  71.574  0.00  0.00    +0.006 C 
ENDBRANCH  46  48
ENDBRANCH  39  43
BRANCH  32  52
ATOM     51  C   UNL     1      -4.688   6.785  65.069  0.00  0.00    +0.252 C 
ATOM     52  O   UNL     1      -5.857   6.808  65.767  0.00  0.00    -0.472 OA
ENDBRANCH  32  52
ENDBRANCH  31  37
ENDBRANCH   1  31
TORSDOF 8
ENDMDL
MODEL 5
REMARK VINA RESULT:      -7.2      3.437      5.305
REMARK  Name = 
REMARK  8 active torsions:
REMARK  status: ('A' for Active; 'I' for Inactive)
REMARK    1  A    between atoms: O_2  and  C_3
REMARK    2  A    between atoms: C_7  and  O_8
REMARK    3  A    between atoms: O_8  and  C_9
REMARK    4  A    between atoms: C_15  and  C_16
REMARK    5  A    between atoms: N_18  and  S_19
REMARK    6  A    between atoms: S_19  and  C_22
REMARK    7  A    between atoms: C_40  and  C_41
REMARK    8  A    between atoms: C_43  and  C_44
REMARK                            x       y       z     vdW  Elec       q    Type
REMARK                         _______ _______ _______ _____ _____    ______ ____
ROOT
ATOM      1  C   UNL     1      -5.579  14.960  68.482  0.00  0.00    +0.167 C 
ATOM      2  C   UNL     1      -4.418  15.892  67.736  0.00  0.00    +0.053 C 
ATOM      3  C   UNL     1      -4.259  17.046  68.877  0.00  0.00    +0.089 C 
ATOM      4  C   UNL     1      -5.900  17.404  68.458  0.00  0.00    +0.090 C 
ATOM      5  C   UNL     1      -6.062  18.520  69.609  0.00  0.00    +0.242 C 
ATOM      6  N   UNL     1      -7.113  19.396  69.256  0.00  0.00    -0.200 NA
ATOM      7  C   UNL     1      -8.045  19.192  68.294  0.00  0.00    +0.154 C 
ATOM      8  C   UNL     1      -8.049  20.486  67.218  0.00  0.00    +0.051 C 
ATOM      9  C   UNL     1      -6.509  21.025  67.668  0.00  0.00    -0.029 C 
ATOM     10  C   UNL     1      -5.785  21.153  66.541  0.00  0.00    -0.031 C 
ATOM     11  C   UNL     1      -5.769  20.049  65.525  0.00  0.00    +0.026 C 
ATOM     12  C   UNL     1      -4.385  19.487  65.325  0.00  0.00    +0.006 C 
ATOM     13  C   UNL     1      -4.359  18.084  64.802  0.00  0.00    +0.022 C 
ATOM     14  C   UNL     1      -4.048  17.071  65.901  0.00  0.00    +0.093 C 
ATOM     15  N   UNL     1      -3.042  17.775  66.708  0.00  0.00    -0.278 N 
ATOM     16  C   UNL     1      -1.938  18.502  66.085  0.00  0.00    +0.115 C 
ATOM     17  C   UNL     1      -7.438  18.986  66.731  0.00  0.00    +0.036 C 
ATOM     18  O   UNL     1      -5.597  18.315  70.715  0.00  0.00    -0.273 OA
ATOM     19  C   UNL     1      -3.684  18.185  67.891  0.00  0.00    +0.226 C 
ATOM     20  O   UNL     1      -3.057  19.022  68.617  0.00  0.00    -0.275 OA
ATOM     21  C   UNL     1      -6.203  16.155  69.469  0.00  0.00    +0.053 C 
ENDROOT
BRANCH   7  22
ATOM     22  C   UNL     1      -9.252  18.404  68.288  0.00  0.00    +0.280 C 
ATOM     23  N   UNL     1      -9.228  17.057  68.798  0.00  0.00    -0.062 NA
ATOM     24  O   UNL     1     -10.031  18.451  67.277  0.00  0.00    -0.270 OA
BRANCH  23  25
ATOM     25  S   UNL     1     -10.562  16.006  68.418  0.00  0.00    +0.074 S 
ATOM     26  O   UNL     1     -11.859  16.548  68.859  0.00  0.00    -0.153 OA
ATOM     27  O   UNL     1     -10.319  14.718  69.177  0.00  0.00    -0.153 OA
BRANCH  25  28
ATOM     28  C   UNL     1     -10.548  15.556  66.687  0.00  0.00    +0.151 C 
ATOM     29  C   UNL     1      -9.136  15.244  66.144  0.00  0.00    +0.027 C 
ATOM     30  C   UNL     1     -10.199  14.144  66.339  0.00  0.00    +0.027 C 
ENDBRANCH  25  28
ENDBRANCH  23  25
ENDBRANCH   7  22
BRANCH   1  31
ATOM     31  O   UNL     1      -4.536  14.484  69.566  0.00  0.00    -0.479 OA
BRANCH  31  37
ATOM     32  C   UNL     1      -4.520  12.682  74.102  0.00  0.00    +0.136 A 
ATOM     33  C   UNL     1      -4.239  11.654  73.206  0.00  0.00    +0.030 A 
ATOM     34  C   UNL     1      -4.154  10.274  73.727  0.00  0.00    +0.036 C 
ATOM     35  C   UNL     1      -4.595  11.814  71.872  0.00  0.00    +0.083 A 
ATOM     36  C   UNL     1      -4.725  13.145  71.474  0.00  0.00    +0.052 A 
ATOM     37  C   UNL     1      -4.991  13.286  70.115  0.00  0.00    +0.141 A 
ATOM     38  C   UNL     1      -5.517  12.231  69.377  0.00  0.00    +0.058 A 
ATOM     39  C   UNL     1      -5.828  11.016  69.992  0.00  0.00    +0.108 A 
ATOM     40  C   UNL     1      -5.307  14.090  72.316  0.00  0.00    +0.008 A 
ATOM     41  N   UNL     1      -5.091  10.804  71.116  0.00  0.00    -0.243 NA
ATOM     42  C   UNL     1      -4.999  13.913  73.665  0.00  0.00    +0.037 A 
BRANCH  39  43
ATOM     43  C   UNL     1      -7.166  10.408  69.851  0.00  0.00    +0.128 A 
ATOM     44  S   UNL     1      -8.452  10.800  68.777  0.00  0.00    -0.065 S 
ATOM     45  C   UNL     1      -9.665   9.832  69.506  0.00  0.00    +0.052 A 
ATOM     46  C   UNL     1      -8.984   9.381  70.635  0.00  0.00    +0.066 A 
ATOM     47  N   UNL     1      -7.673   9.309  70.427  0.00  0.00    -0.241 NA
BRANCH  46  48
ATOM     48  C   UNL     1      -9.721   8.457  71.558  0.00  0.00    +0.041 C 
ATOM     49  C   UNL     1      -8.975   8.204  72.833  0.00  0.00    +0.006 C 
ATOM     50  C   UNL     1     -11.129   8.952  71.764  0.00  0.00    +0.006 C 
ENDBRANCH  46  48
ENDBRANCH  39  43
BRANCH  32  52
ATOM     51  C   UNL     1      -6.038  12.626  75.876  0.00  0.00    +0.252 C 
ATOM     52  O   UNL     1      -4.762  12.410  75.453  0.00  0.00    -0.472 OA
ENDBRANCH  32  52
ENDBRANCH  31  37
ENDBRANCH   1  31
TORSDOF 8
ENDMDL
MODEL 6
REMARK VINA RESULT:      -7.1      3.871      8.128
REMARK  Name = 
REMARK  8 active torsions:
REMARK  status: ('A' for Active; 'I' for Inactive)
REMARK    1  A    between atoms: O_2  and  C_3
REMARK    2  A    between atoms: C_7  and  O_8
REMARK    3  A    between atoms: O_8  and  C_9
REMARK    4  A    between atoms: C_15  and  C_16
REMARK    5  A    between atoms: N_18  and  S_19
REMARK    6  A    between atoms: S_19  and  C_22
REMARK    7  A    between atoms: C_40  and  C_41
REMARK    8  A    between atoms: C_43  and  C_44
REMARK                            x       y       z     vdW  Elec       q    Type
REMARK                         _______ _______ _______ _____ _____    ______ ____
ROOT
ATOM      1  C   UNL     1      -9.862   6.500  66.825  0.00  0.00    +0.167 C 
ATOM      2  C   UNL     1      -8.886   5.693  65.744  0.00  0.00    +0.053 C 
ATOM      3  C   UNL     1      -7.503   6.518  65.998  0.00  0.00    +0.089 C 
ATOM      4  C   UNL     1      -8.411   7.844  65.354  0.00  0.00    +0.090 C 
ATOM      5  C   UNL     1      -7.238   8.915  65.620  0.00  0.00    +0.242 C 
ATOM      6  N   UNL     1      -7.420  10.021  64.759  0.00  0.00    -0.200 NA
ATOM      7  C   UNL     1      -8.536  10.314  64.048  0.00  0.00    +0.154 C 
ATOM      8  C   UNL     1      -8.146  10.484  62.419  0.00  0.00    +0.051 C 
ATOM      9  C   UNL     1      -6.678   9.654  62.557  0.00  0.00    -0.029 C 
ATOM     10  C   UNL     1      -6.671   8.694  61.614  0.00  0.00    -0.031 C 
ATOM     11  C   UNL     1      -7.863   7.798  61.441  0.00  0.00    +0.026 C 
ATOM     12  C   UNL     1      -7.519   6.351  61.689  0.00  0.00    +0.006 C 
ATOM     13  C   UNL     1      -8.685   5.502  62.091  0.00  0.00    +0.022 C 
ATOM     14  C   UNL     1      -8.694   5.219  63.592  0.00  0.00    +0.093 C 
ATOM     15  N   UNL     1      -7.268   5.030  63.889  0.00  0.00    -0.278 N 
ATOM     16  C   UNL     1      -6.408   4.225  63.024  0.00  0.00    +0.115 C 
ATOM     17  C   UNL     1      -9.018   9.133  62.941  0.00  0.00    +0.036 C 
ATOM     18  O   UNL     1      -6.607   8.872  66.661  0.00  0.00    -0.273 OA
ATOM     19  C   UNL     1      -6.838   6.186  64.567  0.00  0.00    +0.226 C 
ATOM     20  O   UNL     1      -5.581   6.332  64.699  0.00  0.00    -0.275 OA
ATOM     21  C   UNL     1      -8.979   7.917  66.886  0.00  0.00    +0.053 C 
ENDROOT
BRANCH   7  22
ATOM     22  C   UNL     1      -9.779  10.935  64.435  0.00  0.00    +0.280 C 
ATOM     23  N   UNL     1     -10.303  12.027  63.657  0.00  0.00    -0.062 NA
ATOM     24  O   UNL     1     -10.016  11.153  65.671  0.00  0.00    -0.270 OA
BRANCH  23  25
ATOM     25  S   UNL     1     -11.562  13.007  64.352  0.00  0.00    +0.074 S 
ATOM     26  O   UNL     1     -12.371  12.277  65.343  0.00  0.00    -0.153 OA
ATOM     27  O   UNL     1     -12.475  13.401  63.211  0.00  0.00    -0.153 OA
BRANCH  25  28
ATOM     28  C   UNL     1     -10.898  14.541  64.991  0.00  0.00    +0.151 C 
ATOM     29  C   UNL     1     -11.308  14.828  66.452  0.00  0.00    +0.027 C 
ATOM     30  C   UNL     1      -9.861  14.455  66.065  0.00  0.00    +0.027 C 
ENDBRANCH  25  28
ENDBRANCH  23  25
ENDBRANCH   7  22
BRANCH   1  31
ATOM     31  O   UNL     1      -9.086   5.860  68.041  0.00  0.00    -0.479 OA
BRANCH  31  37
ATOM     32  C   UNL     1      -8.437   4.616  72.715  0.00  0.00    +0.136 A 
ATOM     33  C   UNL     1      -9.800   4.624  72.435  0.00  0.00    +0.030 A 
ATOM     34  C   UNL     1     -10.748   4.432  73.553  0.00  0.00    +0.036 C 
ATOM     35  C   UNL     1     -10.251   5.337  71.330  0.00  0.00    +0.083 A 
ATOM     36  C   UNL     1      -9.280   5.539  70.349  0.00  0.00    +0.052 A 
ATOM     37  C   UNL     1      -9.773   6.173  69.212  0.00  0.00    +0.141 A 
ATOM     38  C   UNL     1     -10.950   6.913  69.261  0.00  0.00    +0.058 A 
ATOM     39  C   UNL     1     -11.644   7.069  70.464  0.00  0.00    +0.108 A 
ATOM     40  C   UNL     1      -7.964   5.836  70.697  0.00  0.00    +0.008 A 
ATOM     41  N   UNL     1     -11.403   6.052  71.335  0.00  0.00    -0.243 NA
ATOM     42  C   UNL     1      -7.512   5.166  71.834  0.00  0.00    +0.037 A 
BRANCH  39  43
ATOM     43  C   UNL     1     -12.014   8.408  70.965  0.00  0.00    +0.128 A 
ATOM     44  S   UNL     1     -13.261   8.875  72.055  0.00  0.00    -0.065 S 
ATOM     45  C   UNL     1     -13.152  10.570  71.817  0.00  0.00    +0.052 A 
ATOM     46  C   UNL     1     -12.223  10.621  70.780  0.00  0.00    +0.066 A 
ATOM     47  N   UNL     1     -11.391   9.584  70.808  0.00  0.00    -0.241 NA
BRANCH  46  48
ATOM     48  C   UNL     1     -11.827  11.977  70.277  0.00  0.00    +0.041 C 
ATOM     49  C   UNL     1     -11.798  12.050  68.781  0.00  0.00    +0.006 C 
ATOM     50  C   UNL     1     -12.685  13.034  70.923  0.00  0.00    +0.006 C 
ENDBRANCH  46  48
ENDBRANCH  39  43
BRANCH  32  52
ATOM     51  C   UNL     1      -7.309   5.548  74.535  0.00  0.00    +0.252 C 
ATOM     52  O   UNL     1      -7.975   4.474  74.029  0.00  0.00    -0.472 OA
ENDBRANCH  32  52
ENDBRANCH  31  37
ENDBRANCH   1  31
TORSDOF 8
ENDMDL
MODEL 7
REMARK VINA RESULT:      -6.9      4.202      8.054
REMARK  Name = 
REMARK  8 active torsions:
REMARK  status: ('A' for Active; 'I' for Inactive)
REMARK    1  A    between atoms: O_2  and  C_3
REMARK    2  A    between atoms: C_7  and  O_8
REMARK    3  A    between atoms: O_8  and  C_9
REMARK    4  A    between atoms: C_15  and  C_16
REMARK    5  A    between atoms: N_18  and  S_19
REMARK    6  A    between atoms: S_19  and  C_22
REMARK    7  A    between atoms: C_40  and  C_41
REMARK    8  A    between atoms: C_43  and  C_44
REMARK                            x       y       z     vdW  Elec       q    Type
REMARK                         _______ _______ _______ _____ _____    ______ ____
ROOT
ATOM      1  C   UNL     1      -9.353   6.641  66.369  0.00  0.00    +0.167 C 
ATOM      2  C   UNL     1      -8.286   5.999  65.263  0.00  0.00    +0.053 C 
ATOM      3  C   UNL     1      -7.083   7.088  65.423  0.00  0.00    +0.089 C 
ATOM      4  C   UNL     1      -8.262   8.185  64.788  0.00  0.00    +0.090 C 
ATOM      5  C   UNL     1      -7.311   9.474  64.964  0.00  0.00    +0.242 C 
ATOM      6  N   UNL     1      -7.745  10.490  64.082  0.00  0.00    -0.200 NA
ATOM      7  C   UNL     1      -8.927  10.532  63.420  0.00  0.00    +0.154 C 
ATOM      8  C   UNL     1      -8.651  10.713  61.770  0.00  0.00    +0.051 C 
ATOM      9  C   UNL     1      -7.043  10.191  61.856  0.00  0.00    -0.029 C 
ATOM     10  C   UNL     1      -6.889   9.216  60.942  0.00  0.00    -0.031 C 
ATOM     11  C   UNL     1      -7.887   8.098  60.856  0.00  0.00    +0.026 C 
ATOM     12  C   UNL     1      -7.255   6.757  61.128  0.00  0.00    +0.006 C 
ATOM     13  C   UNL     1      -8.213   5.712  61.612  0.00  0.00    +0.022 C 
ATOM     14  C   UNL     1      -8.100   5.490  63.119  0.00  0.00    +0.093 C 
ATOM     15  N   UNL     1      -6.652   5.595  63.348  0.00  0.00    -0.278 N 
ATOM     16  C   UNL     1      -5.690   4.941  62.465  0.00  0.00    +0.115 C 
ATOM     17  C   UNL     1      -9.216   9.238  62.374  0.00  0.00    +0.036 C 
ATOM     18  O   UNL     1      -6.640   9.595  65.972  0.00  0.00    -0.273 OA
ATOM     19  C   UNL     1      -6.429   6.838  63.971  0.00  0.00    +0.226 C 
ATOM     20  O   UNL     1      -5.220   7.231  64.035  0.00  0.00    -0.275 OA
ATOM     21  C   UNL     1      -8.765   8.204  66.344  0.00  0.00    +0.053 C 
ENDROOT
BRANCH   7  22
ATOM     22  C   UNL     1     -10.249  10.912  63.851  0.00  0.00    +0.280 C 
ATOM     23  N   UNL     1     -10.764  12.213  63.510  0.00  0.00    -0.062 NA
ATOM     24  O   UNL     1     -10.641  10.605  65.027  0.00  0.00    -0.270 OA
BRANCH  23  25
ATOM     25  S   UNL     1     -12.164  12.797  64.363  0.00  0.00    +0.074 S 
ATOM     26  O   UNL     1     -13.371  11.996  64.094  0.00  0.00    -0.153 OA
ATOM     27  O   UNL     1     -12.419  14.200  63.853  0.00  0.00    -0.153 OA
BRANCH  25  28
ATOM     28  C   UNL     1     -11.821  12.973  66.110  0.00  0.00    +0.151 C 
ATOM     29  C   UNL     1     -10.620  13.896  66.411  0.00  0.00    +0.027 C 
ATOM     30  C   UNL     1     -12.071  14.307  66.736  0.00  0.00    +0.027 C 
ENDBRANCH  25  28
ENDBRANCH  23  25
ENDBRANCH   7  22
BRANCH   1  31
ATOM     31  O   UNL     1      -8.414   6.211  67.562  0.00  0.00    -0.479 OA
BRANCH  31  37
ATOM     32  C   UNL     1      -7.606   4.257  71.961  0.00  0.00    +0.136 A 
ATOM     33  C   UNL     1      -8.921   3.998  71.586  0.00  0.00    +0.030 A 
ATOM     34  C   UNL     1      -9.822   3.371  72.575  0.00  0.00    +0.036 C 
ATOM     35  C   UNL     1      -9.503   4.788  70.601  0.00  0.00    +0.083 A 
ATOM     36  C   UNL     1      -8.585   5.404  69.750  0.00  0.00    +0.052 A 
ATOM     37  C   UNL     1      -9.189   6.115  68.716  0.00  0.00    +0.141 A 
ATOM     38  C   UNL     1     -10.513   6.531  68.813  0.00  0.00    +0.058 A 
ATOM     39  C   UNL     1     -11.257   6.278  69.969  0.00  0.00    +0.108 A 
ATOM     40  C   UNL     1      -7.393   5.929  70.244  0.00  0.00    +0.008 A 
ATOM     41  N   UNL     1     -10.796   5.195  70.652  0.00  0.00    -0.243 NA
ATOM     42  C   UNL     1      -6.822   5.174  71.268  0.00  0.00    +0.037 A 
BRANCH  39  43
ATOM     43  C   UNL     1     -11.958   7.366  70.680  0.00  0.00    +0.128 A 
ATOM     44  S   UNL     1     -13.255   7.292  71.808  0.00  0.00    -0.065 S 
ATOM     45  C   UNL     1     -13.611   8.969  71.860  0.00  0.00    +0.052 A 
ATOM     46  C   UNL     1     -12.758   9.439  70.865  0.00  0.00    +0.066 A 
ATOM     47  N   UNL     1     -11.678   8.675  70.735  0.00  0.00    -0.241 NA
BRANCH  46  48
ATOM     48  C   UNL     1     -12.753  10.916  70.604  0.00  0.00    +0.041 C 
ATOM     49  C   UNL     1     -13.029  11.719  71.839  0.00  0.00    +0.006 C 
ATOM     50  C   UNL     1     -11.484  11.308  69.893  0.00  0.00    +0.006 C 
ENDBRANCH  46  48
ENDBRANCH  39  43
BRANCH  32  52
ATOM     51  C   UNL     1      -6.677   5.035  73.957  0.00  0.00    +0.252 C 
ATOM     52  O   UNL     1      -7.160   3.973  73.256  0.00  0.00    -0.472 OA
ENDBRANCH  32  52
ENDBRANCH  31  37
ENDBRANCH   1  31
TORSDOF 8
ENDMDL
MODEL 8
REMARK VINA RESULT:      -6.8      2.966      6.609
REMARK  Name = 
REMARK  8 active torsions:
REMARK  status: ('A' for Active; 'I' for Inactive)
REMARK    1  A    between atoms: O_2  and  C_3
REMARK    2  A    between atoms: C_7  and  O_8
REMARK    3  A    between atoms: O_8  and  C_9
REMARK    4  A    between atoms: C_15  and  C_16
REMARK    5  A    between atoms: N_18  and  S_19
REMARK    6  A    between atoms: S_19  and  C_22
REMARK    7  A    between atoms: C_40  and  C_41
REMARK    8  A    between atoms: C_43  and  C_44
REMARK                            x       y       z     vdW  Elec       q    Type
REMARK                         _______ _______ _______ _____ _____    ______ ____
ROOT
ATOM      1  C   UNL     1      -8.121  14.474  68.316  0.00  0.00    +0.167 C 
ATOM      2  C   UNL     1      -8.822  15.827  67.644  0.00  0.00    +0.053 C 
ATOM      3  C   UNL     1      -7.638  16.222  66.595  0.00  0.00    +0.089 C 
ATOM      4  C   UNL     1      -6.721  16.483  68.041  0.00  0.00    +0.090 C 
ATOM      5  C   UNL     1      -5.354  16.791  67.244  0.00  0.00    +0.242 C 
ATOM      6  N   UNL     1      -4.496  17.545  68.077  0.00  0.00    -0.200 NA
ATOM      7  C   UNL     1      -4.627  17.731  69.413  0.00  0.00    +0.154 C 
ATOM      8  C   UNL     1      -4.643  19.376  69.762  0.00  0.00    +0.051 C 
ATOM      9  C   UNL     1      -5.031  19.834  68.180  0.00  0.00    -0.029 C 
ATOM     10  C   UNL     1      -6.103  20.645  68.249  0.00  0.00    -0.031 C 
ATOM     11  C   UNL     1      -7.292  20.253  69.078  0.00  0.00    +0.026 C 
ATOM     12  C   UNL     1      -8.537  20.105  68.241  0.00  0.00    +0.006 C 
ATOM     13  C   UNL     1      -9.576  19.207  68.838  0.00  0.00    +0.022 C 
ATOM     14  C   UNL     1      -9.591  17.832  68.173  0.00  0.00    +0.093 C 
ATOM     15  N   UNL     1      -9.353  18.159  66.760  0.00  0.00    -0.278 N 
ATOM     16  C   UNL     1     -10.045  19.266  66.106  0.00  0.00    +0.115 C 
ATOM     17  C   UNL     1      -6.064  18.470  69.903  0.00  0.00    +0.036 C 
ATOM     18  O   UNL     1      -5.055  16.114  66.277  0.00  0.00    -0.273 OA
ATOM     19  C   UNL     1      -8.027  17.782  66.475  0.00  0.00    +0.226 C 
ATOM     20  O   UNL     1      -7.542  18.202  65.376  0.00  0.00    -0.275 OA
ATOM     21  C   UNL     1      -6.536  14.861  67.958  0.00  0.00    +0.053 C 
ENDROOT
BRANCH   7  22
ATOM     22  C   UNL     1      -4.290  16.884  70.530  0.00  0.00    +0.280 C 
ATOM     23  N   UNL     1      -4.012  15.488  70.310  0.00  0.00    -0.062 NA
ATOM     24  O   UNL     1      -4.925  17.012  71.631  0.00  0.00    -0.270 OA
BRANCH  23  25
ATOM     25  S   UNL     1      -4.008  14.419  71.683  0.00  0.00    +0.074 S 
ATOM     26  O   UNL     1      -5.002  14.796  72.702  0.00  0.00    -0.153 OA
ATOM     27  O   UNL     1      -2.635  14.540  72.312  0.00  0.00    -0.153 OA
BRANCH  25  28
ATOM     28  C   UNL     1      -4.154  12.714  71.165  0.00  0.00    +0.151 C 
ATOM     29  C   UNL     1      -5.529  12.373  70.550  0.00  0.00    +0.027 C 
ATOM     30  C   UNL     1      -4.244  12.438  69.699  0.00  0.00    +0.027 C 
ENDBRANCH  25  28
ENDBRANCH  23  25
ENDBRANCH   7  22
BRANCH   1  31
ATOM     31  O   UNL     1      -8.322  13.672  66.971  0.00  0.00    -0.479 OA
BRANCH  31  37
ATOM     32  C   UNL     1      -6.503   9.435  65.374  0.00  0.00    +0.136 A 
ATOM     33  C   UNL     1      -7.874   9.295  65.561  0.00  0.00    +0.030 A 
ATOM     34  C   UNL     1      -8.469   7.950  65.414  0.00  0.00    +0.036 C 
ATOM     35  C   UNL     1      -8.531  10.198  66.389  0.00  0.00    +0.083 A 
ATOM     36  C   UNL     1      -7.872  11.419  66.535  0.00  0.00    +0.052 A 
ATOM     37  C   UNL     1      -8.589  12.342  67.291  0.00  0.00    +0.141 A 
ATOM     38  C   UNL     1      -9.592  11.926  68.161  0.00  0.00    +0.058 A 
ATOM     39  C   UNL     1      -9.876  10.568  68.325  0.00  0.00    +0.108 A 
ATOM     40  C   UNL     1      -6.485  11.473  66.651  0.00  0.00    +0.008 A 
ATOM     41  N   UNL     1      -9.527   9.833  67.234  0.00  0.00    -0.243 NA
ATOM     42  C   UNL     1      -5.812  10.539  65.864  0.00  0.00    +0.037 A 
BRANCH  39  43
ATOM     43  C   UNL     1      -9.903   9.948  69.665  0.00  0.00    +0.128 A 
ATOM     44  S   UNL     1      -8.641   9.198  70.562  0.00  0.00    -0.065 S 
ATOM     45  C   UNL     1      -9.611   8.522  71.804  0.00  0.00    +0.052 A 
ATOM     46  C   UNL     1     -10.883   8.831  71.327  0.00  0.00    +0.066 A 
ATOM     47  N   UNL     1     -10.880   9.931  70.582  0.00  0.00    -0.241 NA
BRANCH  46  48
ATOM     48  C   UNL     1     -12.052   8.412  72.168  0.00  0.00    +0.041 C 
ATOM     49  C   UNL     1     -13.240   9.307  71.987  0.00  0.00    +0.006 C 
ATOM     50  C   UNL     1     -12.349   6.952  71.944  0.00  0.00    +0.006 C 
ENDBRANCH  46  48
ENDBRANCH  39  43
BRANCH  32  52
ATOM     51  C   UNL     1      -5.142   8.294  63.856  0.00  0.00    +0.252 C 
ATOM     52  O   UNL     1      -5.699   8.322  65.098  0.00  0.00    -0.472 OA
ENDBRANCH  32  52
ENDBRANCH  31  37
ENDBRANCH   1  31
TORSDOF 8
ENDMDL
MODEL 9
REMARK VINA RESULT:      -6.7      4.340      9.438
REMARK  Name = 
REMARK  8 active torsions:
REMARK  status: ('A' for Active; 'I' for Inactive)
REMARK    1  A    between atoms: O_2  and  C_3
REMARK    2  A    between atoms: C_7  and  O_8
REMARK    3  A    between atoms: O_8  and  C_9
REMARK    4  A    between atoms: C_15  and  C_16
REMARK    5  A    between atoms: N_18  and  S_19
REMARK    6  A    between atoms: S_19  and  C_22
REMARK    7  A    between atoms: C_40  and  C_41
REMARK    8  A    between atoms: C_43  and  C_44
REMARK                            x       y       z     vdW  Elec       q    Type
REMARK                         _______ _______ _______ _____ _____    ______ ____
ROOT
ATOM      1  C   UNL     1      -8.844   9.492  66.480  0.00  0.00    +0.167 C 
ATOM      2  C   UNL     1      -9.198   8.042  67.217  0.00  0.00    +0.053 C 
ATOM      3  C   UNL     1      -7.675   7.533  67.502  0.00  0.00    +0.089 C 
ATOM      4  C   UNL     1      -7.578   7.500  65.773  0.00  0.00    +0.090 C 
ATOM      5  C   UNL     1      -6.013   7.117  65.763  0.00  0.00    +0.242 C 
ATOM      6  N   UNL     1      -5.696   6.508  64.528  0.00  0.00    -0.200 NA
ATOM      7  C   UNL     1      -6.460   6.509  63.409  0.00  0.00    +0.154 C 
ATOM      8  C   UNL     1      -6.718   4.928  62.892  0.00  0.00    +0.051 C 
ATOM      9  C   UNL     1      -6.319   4.244  64.388  0.00  0.00    -0.029 C 
ATOM     10  C   UNL     1      -7.329   3.425  64.735  0.00  0.00    -0.031 C 
ATOM     11  C   UNL     1      -8.750   3.899  64.643  0.00  0.00    +0.026 C 
ATOM     12  C   UNL     1      -9.432   3.898  65.987  0.00  0.00    +0.006 C 
ATOM     13  C   UNL     1     -10.588   4.845  66.092  0.00  0.00    +0.022 C 
ATOM     14  C   UNL     1     -10.219   6.112  66.859  0.00  0.00    +0.093 C 
ATOM     15  N   UNL     1      -9.347   5.597  67.924  0.00  0.00    -0.278 N 
ATOM     16  C   UNL     1      -9.690   4.392  68.675  0.00  0.00    +0.115 C 
ATOM     17  C   UNL     1      -7.988   5.810  63.576  0.00  0.00    +0.036 C 
ATOM     18  O   UNL     1      -5.255   7.659  66.548  0.00  0.00    -0.273 OA
ATOM     19  C   UNL     1      -8.031   5.963  67.583  0.00  0.00    +0.226 C 
ATOM     20  O   UNL     1      -7.098   5.404  68.245  0.00  0.00    -0.275 OA
ATOM     21  C   UNL     1      -7.302   9.099  65.974  0.00  0.00    +0.053 C 
ENDROOT
BRANCH   7  22
ATOM     22  C   UNL     1      -6.663   7.512  62.393  0.00  0.00    +0.280 C 
ATOM     23  N   UNL     1      -7.938   8.172  62.286  0.00  0.00    -0.062 NA
ATOM     24  O   UNL     1      -6.192   7.325  61.220  0.00  0.00    -0.270 OA
BRANCH  23  25
ATOM     25  S   UNL     1      -8.288   9.064  60.833  0.00  0.00    +0.074 S 
ATOM     26  O   UNL     1      -7.072   9.510  60.132  0.00  0.00    -0.153 OA
ATOM     27  O   UNL     1      -9.050  10.299  61.265  0.00  0.00    -0.153 OA
BRANCH  25  28
ATOM     28  C   UNL     1      -9.406   8.151  59.777  0.00  0.00    +0.151 C 
ATOM     29  C   UNL     1      -8.857   6.773  59.345  0.00  0.00    +0.027 C 
ATOM     30  C   UNL     1     -10.032   6.913  60.335  0.00  0.00    +0.027 C 
ENDBRANCH  25  28
ENDBRANCH  23  25
ENDBRANCH   7  22
BRANCH   1  31
ATOM     31  O   UNL     1      -8.338  10.093  67.849  0.00  0.00    -0.479 OA
BRANCH  31  37
ATOM     32  C   UNL     1     -10.851   8.498  71.717  0.00  0.00    +0.136 A 
ATOM     33  C   UNL     1     -11.739   9.039  70.792  0.00  0.00    +0.030 A 
ATOM     34  C   UNL     1     -13.158   9.176  71.181  0.00  0.00    +0.036 C 
ATOM     35  C   UNL     1     -11.252   9.916  69.831  0.00  0.00    +0.083 A 
ATOM     36  C   UNL     1      -9.889   9.773  69.570  0.00  0.00    +0.052 A 
ATOM     37  C   UNL     1      -9.439  10.596  68.540  0.00  0.00    +0.141 A 
ATOM     38  C   UNL     1     -10.156  11.727  68.164  0.00  0.00    +0.058 A 
ATOM     39  C   UNL     1     -11.326  12.086  68.839  0.00  0.00    +0.108 A 
ATOM     40  C   UNL     1      -8.985   9.529  70.601  0.00  0.00    +0.008 A 
ATOM     41  N   UNL     1     -11.932  11.017  69.425  0.00  0.00    -0.243 NA
ATOM     42  C   UNL     1      -9.478   8.690  71.600  0.00  0.00    +0.037 A 
BRANCH  39  43
ATOM     43  C   UNL     1     -11.502  13.441  69.397  0.00  0.00    +0.128 A 
ATOM     44  S   UNL     1     -10.485  14.824  69.284  0.00  0.00    -0.065 S 
ATOM     45  C   UNL     1     -11.292  15.799  70.441  0.00  0.00    +0.052 A 
ATOM     46  C   UNL     1     -12.227  14.890  70.929  0.00  0.00    +0.066 A 
ATOM     47  N   UNL     1     -12.560  13.982  70.017  0.00  0.00    -0.241 NA
BRANCH  46  48
ATOM     48  C   UNL     1     -13.175  15.378  71.984  0.00  0.00    +0.041 C 
ATOM     49  C   UNL     1     -14.601  15.034  71.680  0.00  0.00    +0.006 C 
ATOM     50  C   UNL     1     -12.713  14.917  73.342  0.00  0.00    +0.006 C 
ENDBRANCH  46  48
ENDBRANCH  39  43
BRANCH  32  52
ATOM     51  C   UNL     1     -10.602   7.105  73.575  0.00  0.00    +0.252 C 
ATOM     52  O   UNL     1     -11.281   8.135  72.998  0.00  0.00    -0.472 OA
ENDBRANCH  32  52
ENDBRANCH  31  37
ENDBRANCH   1  31
TORSDOF 8
ENDMDL
