MODEL 1
REMARK VINA RESULT:      -7.3      0.000      0.000
REMARK  Name = 
REMARK  7 active torsions:
REMARK  status: ('A' for Active; 'I' for Inactive)
REMARK    1  A    between atoms: C_5  and  S_6
REMARK    2  A    between atoms: S_6  and  C_7
REMARK    3  A    between atoms: C_7  and  C_8
REMARK    4  A    between atoms: CA_9  and  C_10
REMARK    5  A    between atoms: CA_16  and  N_17
REMARK    6  A    between atoms: C_18  and  C_20
REMARK    7  A    between atoms: C_20  and  N_21
REMARK                            x       y       z     vdW  Elec       q    Type
REMARK                         _______ _______ _______ _____ _____    ______ ____
ROOT
ATOM      1  C   UNL     1      -8.885  17.397  67.703  0.00  0.00    -0.002 C 
ATOM      2  C   UNL     1      -7.882  16.917  68.709  0.00  0.00    +0.083 C 
ATOM      3  S   UNL     1      -6.401  17.945  68.451  0.00  0.00    -0.114 S 
ATOM      4  C   UNL     1      -6.519  18.298  66.578  0.00  0.00    +0.157 C 
ATOM      5  N   UNL     1      -7.649  19.295  66.791  0.00  0.00    -0.242 N 
ATOM      6  C   UNL     1      -6.808  20.356  67.312  0.00  0.00    +0.253 C 
ATOM      7  O   UNL     1      -7.037  21.593  67.115  0.00  0.00    -0.273 OA
ATOM      8  CA  UNL     1      -5.605  19.726  66.398  0.00  0.00    +0.200 C 
ATOM      9  CA  UNL     1      -8.850  18.632  67.202  0.00  0.00    +0.129 C 
ENDROOT
BRANCH   8  10
ATOM     10  N   UNL     1      -4.619  19.451  67.635  0.00  0.00    -0.193 NA
ATOM     11  C   UNL     1      -3.802  20.546  67.987  0.00  0.00    +0.267 C 
ATOM     12  O   UNL     1      -3.362  21.304  67.081  0.00  0.00    -0.271 OA
BRANCH  11  13
ATOM     13  C   UNL     1      -2.943  20.287  69.186  0.00  0.00    +0.217 C 
BRANCH  13  14
ATOM     14  N   UNL     1      -3.648  20.543  70.421  0.00  0.00    -0.201 N 
ATOM     15  N   UNL     1      -4.696  21.343  70.620  0.00  0.00    -0.042 NA
ATOM     16  N   UNL     1      -4.520  22.038  71.742  0.00  0.00    -0.023 NA
ATOM     17  N   UNL     1      -3.397  21.649  72.330  0.00  0.00    -0.105 NA
ATOM     18  C   UNL     1      -2.991  20.578  71.605  0.00  0.00    +0.222 A 
ENDBRANCH  13  14
ENDBRANCH  11  13
ENDBRANCH   8  10
BRANCH   9  19
ATOM     19  C   UNL     1     -10.064  19.455  67.110  0.00  0.00    +0.401 C 
ATOM     20  OXT UNL     1     -10.581  19.702  65.834  0.00  0.00    -0.239 OA
ATOM     21  O   UNL     1     -10.322  20.358  67.963  0.00  0.00    -0.239 OA
ENDBRANCH   9  19
BRANCH   1  22
ATOM     22  C   UNL     1     -10.247  16.798  67.886  0.00  0.00    +0.088 C 
BRANCH  22  23
ATOM     23  S   UNL     1     -10.230  15.008  67.773  0.00  0.00    -0.082 S 
BRANCH  23  27
ATOM     24  C   UNL     1     -12.482  12.010  63.368  0.00  0.00    +0.061 C 
ATOM     25  C   UNL     1     -12.114  12.798  64.561  0.00  0.00    +0.112 A 
ATOM     26  S   UNL     1     -10.582  13.317  65.146  0.00  0.00    -0.044 S 
ATOM     27  C   UNL     1     -11.150  14.405  66.353  0.00  0.00    +0.159 A 
ATOM     28  N   UNL     1     -12.450  14.012  66.376  0.00  0.00    -0.135 NA
ATOM     29  N   UNL     1     -12.893  13.720  65.181  0.00  0.00    -0.145 NA
ENDBRANCH  23  27
ENDBRANCH  22  23
ENDBRANCH   1  22
TORSDOF 7
ENDMDL
MODEL 2
REMARK VINA RESULT:      -7.2      2.089      2.854
REMARK  Name = 
REMARK  7 active torsions:
REMARK  status: ('A' for Active; 'I' for Inactive)
REMARK    1  A    between atoms: C_5  and  S_6
REMARK    2  A    between atoms: S_6  and  C_7
REMARK    3  A    between atoms: C_7  and  C_8
REMARK    4  A    between atoms: CA_9  and  C_10
REMARK    5  A    between atoms: CA_16  and  N_17
REMARK    6  A    between atoms: C_18  and  C_20
REMARK    7  A    between atoms: C_20  and  N_21
REMARK                            x       y       z     vdW  Elec       q    Type
REMARK                         _______ _______ _______ _____ _____    ______ ____
ROOT
ATOM      1  C   UNL     1      -9.040  16.951  66.700  0.00  0.00    -0.002 C 
ATOM      2  C   UNL     1      -8.039  16.325  67.624  0.00  0.00    +0.083 C 
ATOM      3  S   UNL     1      -6.667  17.517  67.738  0.00  0.00    -0.114 S 
ATOM      4  C   UNL     1      -6.736  18.324  66.009  0.00  0.00    +0.157 C 
ATOM      5  N   UNL     1      -7.975  19.125  66.382  0.00  0.00    -0.242 N 
ATOM      6  C   UNL     1      -7.278  20.091  67.210  0.00  0.00    +0.253 C 
ATOM      7  O   UNL     1      -7.630  21.311  67.311  0.00  0.00    -0.273 OA
ATOM      8  CA  UNL     1      -5.973  19.830  66.257  0.00  0.00    +0.200 C 
ATOM      9  CA  UNL     1      -9.116  18.271  66.526  0.00  0.00    +0.129 C 
ENDROOT
BRANCH   8  10
ATOM     10  N   UNL     1      -5.022  19.340  67.454  0.00  0.00    -0.193 NA
ATOM     11  C   UNL     1      -4.209  20.352  68.007  0.00  0.00    +0.267 C 
ATOM     12  O   UNL     1      -3.741  21.248  67.253  0.00  0.00    -0.271 OA
BRANCH  11  13
ATOM     13  C   UNL     1      -3.383  19.886  69.166  0.00  0.00    +0.217 C 
BRANCH  13  14
ATOM     14  N   UNL     1      -3.927  20.330  70.429  0.00  0.00    -0.201 N 
ATOM     15  N   UNL     1      -4.879  21.239  70.641  0.00  0.00    -0.042 NA
ATOM     16  N   UNL     1      -4.527  22.025  71.656  0.00  0.00    -0.023 NA
ATOM     17  N   UNL     1      -3.382  21.597  72.169  0.00  0.00    -0.105 NA
ATOM     18  C   UNL     1      -3.143  20.426  71.531  0.00  0.00    +0.222 A 
ENDBRANCH  13  14
ENDBRANCH  11  13
ENDBRANCH   8  10
BRANCH   9  19
ATOM     19  C   UNL     1     -10.406  18.974  66.555  0.00  0.00    +0.401 C 
ATOM     20  OXT UNL     1     -10.703  19.821  65.482  0.00  0.00    -0.239 OA
ATOM     21  O   UNL     1     -10.962  19.298  67.648  0.00  0.00    -0.239 OA
ENDBRANCH   9  19
BRANCH   1  22
ATOM     22  C   UNL     1     -10.337  16.202  66.629  0.00  0.00    +0.088 C 
BRANCH  22  23
ATOM     23  S   UNL     1     -10.374  14.789  67.733  0.00  0.00    -0.082 S 
BRANCH  23  27
ATOM     24  C   UNL     1     -13.690  14.494  72.465  0.00  0.00    +0.061 C 
ATOM     25  C   UNL     1     -12.850  14.787  71.286  0.00  0.00    +0.112 A 
ATOM     26  S   UNL     1     -12.112  13.743  70.136  0.00  0.00    -0.044 S 
ATOM     27  C   UNL     1     -11.640  14.946  68.999  0.00  0.00    +0.159 A 
ATOM     28  N   UNL     1     -11.830  16.040  69.780  0.00  0.00    -0.135 NA
ATOM     29  N   UNL     1     -12.886  15.920  70.541  0.00  0.00    -0.145 NA
ENDBRANCH  23  27
ENDBRANCH  22  23
ENDBRANCH   1  22
TORSDOF 7
ENDMDL
MODEL 3
REMARK VINA RESULT:      -7.1      2.400      9.305
REMARK  Name = 
REMARK  7 active torsions:
REMARK  status: ('A' for Active; 'I' for Inactive)
REMARK    1  A    between atoms: C_5  and  S_6
REMARK    2  A    between atoms: S_6  and  C_7
REMARK    3  A    between atoms: C_7  and  C_8
REMARK    4  A    between atoms: CA_9  and  C_10
REMARK    5  A    between atoms: CA_16  and  N_17
REMARK    6  A    between atoms: C_18  and  C_20
REMARK    7  A    between atoms: C_20  and  N_21
REMARK                            x       y       z     vdW  Elec       q    Type
REMARK                         _______ _______ _______ _____ _____    ______ ____
ROOT
ATOM      1  C   UNL     1      -8.097  17.964  67.143  0.00  0.00    -0.002 C 
ATOM      2  C   UNL     1      -7.942  16.914  66.084  0.00  0.00    +0.083 C 
ATOM      3  S   UNL     1      -8.916  15.488  66.664  0.00  0.00    -0.114 S 
ATOM      4  C   UNL     1      -8.748  15.673  68.557  0.00  0.00    +0.157 C 
ATOM      5  N   UNL     1      -9.724  16.840  68.575  0.00  0.00    -0.242 N 
ATOM      6  C   UNL     1     -10.916  16.034  68.390  0.00  0.00    +0.253 C 
ATOM      7  O   UNL     1     -12.045  16.324  68.901  0.00  0.00    -0.273 OA
ATOM      8  CA  UNL     1     -10.108  14.829  69.147  0.00  0.00    +0.200 C 
ATOM      9  CA  UNL     1      -9.152  17.999  67.957  0.00  0.00    +0.129 C 
ENDROOT
BRANCH   8  10
ATOM     10  N   UNL     1     -10.211  13.799  67.920  0.00  0.00    -0.193 NA
ATOM     11  C   UNL     1     -11.447  13.126  67.824  0.00  0.00    +0.267 C 
ATOM     12  O   UNL     1     -12.056  12.800  68.878  0.00  0.00    -0.271 OA
BRANCH  11  13
ATOM     13  C   UNL     1     -11.542  12.223  66.632  0.00  0.00    +0.217 C 
BRANCH  13  14
ATOM     14  N   UNL     1     -12.408  12.767  65.611  0.00  0.00    -0.201 N 
ATOM     15  N   UNL     1     -12.807  12.191  64.477  0.00  0.00    -0.042 NA
ATOM     16  N   UNL     1     -12.742  13.074  63.481  0.00  0.00    -0.023 NA
ATOM     17  N   UNL     1     -12.377  14.254  63.962  0.00  0.00    -0.105 NA
ATOM     18  C   UNL     1     -12.385  14.088  65.307  0.00  0.00    +0.222 A 
ENDBRANCH  13  14
ENDBRANCH  11  13
ENDBRANCH   8  10
BRANCH   9  19
ATOM     19  C   UNL     1      -9.876  19.251  68.220  0.00  0.00    +0.401 C 
ATOM     20  OXT UNL     1      -9.789  19.788  69.508  0.00  0.00    -0.239 OA
ATOM     21  O   UNL     1     -10.944  19.544  67.600  0.00  0.00    -0.239 OA
ENDBRANCH   9  19
BRANCH   1  22
ATOM     22  C   UNL     1      -7.521  19.293  66.755  0.00  0.00    +0.088 C 
BRANCH  22  23
ATOM     23  S   UNL     1      -5.740  19.355  66.967  0.00  0.00    -0.082 S 
BRANCH  23  27
ATOM     24  C   UNL     1      -3.032  20.725  71.892  0.00  0.00    +0.061 C 
ATOM     25  C   UNL     1      -3.809  20.577  70.645  0.00  0.00    +0.112 A 
ATOM     26  S   UNL     1      -3.948  19.259  69.548  0.00  0.00    -0.044 S 
ATOM     27  C   UNL     1      -5.267  19.864  68.624  0.00  0.00    +0.159 A 
ATOM     28  N   UNL     1      -5.248  21.147  69.070  0.00  0.00    -0.135 NA
ATOM     29  N   UNL     1      -4.966  21.217  70.344  0.00  0.00    -0.145 NA
ENDBRANCH  23  27
ENDBRANCH  22  23
ENDBRANCH   1  22
TORSDOF 7
ENDMDL
MODEL 4
REMARK VINA RESULT:      -7.1      4.052      8.700
REMARK  Name = 
REMARK  7 active torsions:
REMARK  status: ('A' for Active; 'I' for Inactive)
REMARK    1  A    between atoms: C_5  and  S_6
REMARK    2  A    between atoms: S_6  and  C_7
REMARK    3  A    between atoms: C_7  and  C_8
REMARK    4  A    between atoms: CA_9  and  C_10
REMARK    5  A    between atoms: CA_16  and  N_17
REMARK    6  A    between atoms: C_18  and  C_20
REMARK    7  A    between atoms: C_20  and  N_21
REMARK                            x       y       z     vdW  Elec       q    Type
REMARK                         _______ _______ _______ _____ _____    ______ ____
ROOT
ATOM      1  C   UNL     1      -8.040  17.920  67.201  0.00  0.00    -0.002 C 
ATOM      2  C   UNL     1      -7.865  16.904  66.113  0.00  0.00    +0.083 C 
ATOM      3  S   UNL     1      -8.880  15.476  66.610  0.00  0.00    -0.114 S 
ATOM      4  C   UNL     1      -8.774  15.593  68.513  0.00  0.00    +0.157 C 
ATOM      5  N   UNL     1      -9.732  16.776  68.539  0.00  0.00    -0.242 N 
ATOM      6  C   UNL     1     -10.929  15.997  68.285  0.00  0.00    +0.253 C 
ATOM      7  O   UNL     1     -12.071  16.289  68.768  0.00  0.00    -0.273 OA
ATOM      8  CA  UNL     1     -10.167  14.753  69.027  0.00  0.00    +0.200 C 
ATOM      9  CA  UNL     1      -9.121  17.945  67.980  0.00  0.00    +0.129 C 
ENDROOT
BRANCH   8  10
ATOM     10  N   UNL     1     -10.244  13.767  67.762  0.00  0.00    -0.193 NA
ATOM     11  C   UNL     1     -11.464  13.070  67.638  0.00  0.00    +0.267 C 
ATOM     12  O   UNL     1     -12.068  12.692  68.677  0.00  0.00    -0.271 OA
BRANCH  11  13
ATOM     13  C   UNL     1     -11.537  12.211  66.413  0.00  0.00    +0.217 C 
BRANCH  13  14
ATOM     14  N   UNL     1     -12.407  12.777  65.407  0.00  0.00    -0.201 N 
ATOM     15  N   UNL     1     -12.525  12.423  64.128  0.00  0.00    -0.042 NA
ATOM     16  N   UNL     1     -12.591  13.514  63.367  0.00  0.00    -0.023 NA
ATOM     17  N   UNL     1     -12.594  14.591  64.140  0.00  0.00    -0.105 NA
ATOM     18  C   UNL     1     -12.695  14.102  65.400  0.00  0.00    +0.222 A 
ENDBRANCH  13  14
ENDBRANCH  11  13
ENDBRANCH   8  10
BRANCH   9  19
ATOM     19  C   UNL     1      -9.834  19.199  68.262  0.00  0.00    +0.401 C 
ATOM     20  OXT UNL     1      -9.747  19.713  69.559  0.00  0.00    -0.239 OA
ATOM     21  O   UNL     1     -10.895  19.514  67.643  0.00  0.00    -0.239 OA
ENDBRANCH   9  19
BRANCH   1  22
ATOM     22  C   UNL     1      -7.429  19.251  66.879  0.00  0.00    +0.088 C 
BRANCH  22  23
ATOM     23  S   UNL     1      -5.665  19.140  66.573  0.00  0.00    -0.082 S 
BRANCH  23  27
ATOM     24  C   UNL     1      -4.091  18.502  61.043  0.00  0.00    +0.061 C 
ATOM     25  C   UNL     1      -4.680  18.747  62.375  0.00  0.00    +0.112 A 
ATOM     26  S   UNL     1      -4.062  18.464  63.954  0.00  0.00    -0.044 S 
ATOM     27  C   UNL     1      -5.261  19.331  64.833  0.00  0.00    +0.159 A 
ATOM     28  N   UNL     1      -6.169  19.478  63.834  0.00  0.00    -0.135 NA
ATOM     29  N   UNL     1      -5.594  19.701  62.681  0.00  0.00    -0.145 NA
ENDBRANCH  23  27
ENDBRANCH  22  23
ENDBRANCH   1  22
TORSDOF 7
ENDMDL
MODEL 5
REMARK VINA RESULT:      -6.9      3.055      8.815
REMARK  Name = 
REMARK  7 active torsions:
REMARK  status: ('A' for Active; 'I' for Inactive)
REMARK    1  A    between atoms: C_5  and  S_6
REMARK    2  A    between atoms: S_6  and  C_7
REMARK    3  A    between atoms: C_7  and  C_8
REMARK    4  A    between atoms: CA_9  and  C_10
REMARK    5  A    between atoms: CA_16  and  N_17
REMARK    6  A    between atoms: C_18  and  C_20
REMARK    7  A    between atoms: C_20  and  N_21
REMARK                            x       y       z     vdW  Elec       q    Type
REMARK                         _______ _______ _______ _____ _____    ______ ____
ROOT
ATOM      1  C   UNL     1      -9.153  16.467  67.876  0.00  0.00    -0.002 C 
ATOM      2  C   UNL     1      -8.374  15.234  67.528  0.00  0.00    +0.083 C 
ATOM      3  S   UNL     1      -9.377  14.358  66.284  0.00  0.00    -0.114 S 
ATOM      4  C   UNL     1     -11.142  14.855  66.817  0.00  0.00    +0.157 C 
ATOM      5  N   UNL     1     -10.966  16.257  66.254  0.00  0.00    -0.242 N 
ATOM      6  C   UNL     1     -11.098  15.871  64.862  0.00  0.00    +0.253 C 
ATOM      7  O   UNL     1     -11.629  16.615  63.975  0.00  0.00    -0.273 OA
ATOM      8  CA  UNL     1     -12.048  14.645  65.388  0.00  0.00    +0.200 C 
ATOM      9  CA  UNL     1     -10.031  17.012  67.033  0.00  0.00    +0.129 C 
ENDROOT
BRANCH   8  10
ATOM     10  N   UNL     1     -11.126  13.482  64.774  0.00  0.00    -0.193 NA
ATOM     11  C   UNL     1     -11.830  12.503  64.042  0.00  0.00    +0.267 C 
ATOM     12  O   UNL     1     -12.983  12.161  64.419  0.00  0.00    -0.271 OA
BRANCH  11  13
ATOM     13  C   UNL     1     -10.941  11.469  63.423  0.00  0.00    +0.217 C 
BRANCH  13  14
ATOM     14  N   UNL     1     -10.250  10.685  64.421  0.00  0.00    -0.201 N 
ATOM     15  N   UNL     1     -10.563  10.530  65.708  0.00  0.00    -0.042 NA
ATOM     16  N   UNL     1      -9.458  10.608  66.448  0.00  0.00    -0.023 NA
ATOM     17  N   UNL     1      -8.404  10.737  65.655  0.00  0.00    -0.105 NA
ATOM     18  C   UNL     1      -8.900  10.567  64.405  0.00  0.00    +0.222 A 
ENDBRANCH  13  14
ENDBRANCH  11  13
ENDBRANCH   8  10
BRANCH   9  19
ATOM     19  C   UNL     1     -10.046  18.458  66.774  0.00  0.00    +0.401 C 
ATOM     20  OXT UNL     1     -11.066  19.209  67.366  0.00  0.00    -0.239 OA
ATOM     21  O   UNL     1      -9.599  18.944  65.690  0.00  0.00    -0.239 OA
ENDBRANCH   9  19
BRANCH   1  22
ATOM     22  C   UNL     1      -8.398  17.423  68.750  0.00  0.00    +0.088 C 
BRANCH  22  23
ATOM     23  S   UNL     1      -6.644  17.456  68.374  0.00  0.00    -0.082 S 
BRANCH  23  27
ATOM     24  C   UNL     1      -6.099  20.790  63.677  0.00  0.00    +0.061 C 
ATOM     25  C   UNL     1      -6.296  20.123  64.980  0.00  0.00    +0.112 A 
ATOM     26  S   UNL     1      -6.119  18.478  65.447  0.00  0.00    -0.044 S 
ATOM     27  C   UNL     1      -6.233  18.705  67.149  0.00  0.00    +0.159 A 
ATOM     28  N   UNL     1      -6.702  19.979  67.147  0.00  0.00    -0.135 NA
ATOM     29  N   UNL     1      -6.157  20.698  66.201  0.00  0.00    -0.145 NA
ENDBRANCH  23  27
ENDBRANCH  22  23
ENDBRANCH   1  22
TORSDOF 7
ENDMDL
MODEL 6
REMARK VINA RESULT:      -6.9      1.618      1.995
REMARK  Name = 
REMARK  7 active torsions:
REMARK  status: ('A' for Active; 'I' for Inactive)
REMARK    1  A    between atoms: C_5  and  S_6
REMARK    2  A    between atoms: S_6  and  C_7
REMARK    3  A    between atoms: C_7  and  C_8
REMARK    4  A    between atoms: CA_9  and  C_10
REMARK    5  A    between atoms: CA_16  and  N_17
REMARK    6  A    between atoms: C_18  and  C_20
REMARK    7  A    between atoms: C_20  and  N_21
REMARK                            x       y       z     vdW  Elec       q    Type
REMARK                         _______ _______ _______ _____ _____    ______ ____
ROOT
ATOM      1  C   UNL     1      -9.138  16.867  66.700  0.00  0.00    -0.002 C 
ATOM      2  C   UNL     1      -8.200  16.142  67.618  0.00  0.00    +0.083 C 
ATOM      3  S   UNL     1      -6.753  17.233  67.800  0.00  0.00    -0.114 S 
ATOM      4  C   UNL     1      -6.732  18.104  66.100  0.00  0.00    +0.157 C 
ATOM      5  N   UNL     1      -7.922  18.974  66.481  0.00  0.00    -0.242 N 
ATOM      6  C   UNL     1      -7.178  19.860  67.356  0.00  0.00    +0.253 C 
ATOM      7  O   UNL     1      -7.449  21.096  67.496  0.00  0.00    -0.273 OA
ATOM      8  CA  UNL     1      -5.875  19.544  66.417  0.00  0.00    +0.200 C 
ATOM      9  CA  UNL     1      -9.120  18.195  66.573  0.00  0.00    +0.129 C 
ENDROOT
BRANCH   8  10
ATOM     10  N   UNL     1      -4.983  18.948  67.612  0.00  0.00    -0.193 NA
ATOM     11  C   UNL     1      -4.211  19.907  68.300  0.00  0.00    +0.267 C 
ATOM     12  O   UNL     1      -3.713  20.872  67.660  0.00  0.00    -0.271 OA
BRANCH  11  13
ATOM     13  C   UNL     1      -3.442  19.337  69.452  0.00  0.00    +0.217 C 
BRANCH  13  14
ATOM     14  N   UNL     1      -4.000  19.737  70.723  0.00  0.00    -0.201 N 
ATOM     15  N   UNL     1      -5.286  19.827  71.066  0.00  0.00    -0.042 NA
ATOM     16  N   UNL     1      -5.486  20.946  71.759  0.00  0.00    -0.023 NA
ATOM     17  N   UNL     1      -4.328  21.563  71.944  0.00  0.00    -0.105 NA
ATOM     18  C   UNL     1      -3.402  20.689  71.481  0.00  0.00    +0.222 A 
ENDBRANCH  13  14
ENDBRANCH  11  13
ENDBRANCH   8  10
BRANCH   9  19
ATOM     19  C   UNL     1     -10.360  18.983  66.605  0.00  0.00    +0.401 C 
ATOM     20  OXT UNL     1     -10.638  19.793  65.500  0.00  0.00    -0.239 OA
ATOM     21  O   UNL     1     -10.856  19.398  67.697  0.00  0.00    -0.239 OA
ENDBRANCH   9  19
BRANCH   1  22
ATOM     22  C   UNL     1     -10.481  16.212  66.578  0.00  0.00    +0.088 C 
BRANCH  22  23
ATOM     23  S   UNL     1     -10.403  14.647  65.706  0.00  0.00    -0.082 S 
BRANCH  23  27
ATOM     24  C   UNL     1     -12.006  11.073  69.964  0.00  0.00    +0.061 C 
ATOM     25  C   UNL     1     -11.738  11.874  68.752  0.00  0.00    +0.112 A 
ATOM     26  S   UNL     1     -10.678  13.201  68.484  0.00  0.00    -0.044 S 
ATOM     27  C   UNL     1     -10.798  13.253  66.769  0.00  0.00    +0.159 A 
ATOM     28  N   UNL     1     -11.878  12.442  66.622  0.00  0.00    -0.135 NA
ATOM     29  N   UNL     1     -11.860  11.447  67.470  0.00  0.00    -0.145 NA
ENDBRANCH  23  27
ENDBRANCH  22  23
ENDBRANCH   1  22
TORSDOF 7
ENDMDL
MODEL 7
REMARK VINA RESULT:      -6.8      4.263      5.973
REMARK  Name = 
REMARK  7 active torsions:
REMARK  status: ('A' for Active; 'I' for Inactive)
REMARK    1  A    between atoms: C_5  and  S_6
REMARK    2  A    between atoms: S_6  and  C_7
REMARK    3  A    between atoms: C_7  and  C_8
REMARK    4  A    between atoms: CA_9  and  C_10
REMARK    5  A    between atoms: CA_16  and  N_17
REMARK    6  A    between atoms: C_18  and  C_20
REMARK    7  A    between atoms: C_20  and  N_21
REMARK                            x       y       z     vdW  Elec       q    Type
REMARK                         _______ _______ _______ _____ _____    ______ ____
ROOT
ATOM      1  C   UNL     1     -11.049  13.362  67.840  0.00  0.00    -0.002 C 
ATOM      2  C   UNL     1     -10.904  14.303  68.998  0.00  0.00    +0.083 C 
ATOM      3  S   UNL     1     -10.109  15.795  68.319  0.00  0.00    -0.114 S 
ATOM      4  C   UNL     1      -9.046  15.042  66.922  0.00  0.00    +0.157 C 
ATOM      5  N   UNL     1     -10.272  14.825  66.046  0.00  0.00    -0.242 N 
ATOM      6  C   UNL     1     -10.432  16.218  65.675  0.00  0.00    +0.253 C 
ATOM      7  O   UNL     1     -10.871  16.596  64.541  0.00  0.00    -0.273 OA
ATOM      8  CA  UNL     1      -8.812  16.360  65.866  0.00  0.00    +0.200 C 
ATOM      9  CA  UNL     1     -11.110  13.794  66.580  0.00  0.00    +0.129 C 
ENDROOT
BRANCH   8  10
ATOM     10  N   UNL     1      -8.903  17.498  66.995  0.00  0.00    -0.193 NA
ATOM     11  C   UNL     1      -8.733  18.813  66.515  0.00  0.00    +0.267 C 
ATOM     12  O   UNL     1      -7.924  19.027  65.572  0.00  0.00    -0.271 OA
BRANCH  11  13
ATOM     13  C   UNL     1      -8.892  19.859  67.575  0.00  0.00    +0.217 C 
BRANCH  13  14
ATOM     14  N   UNL     1      -7.620  20.406  67.987  0.00  0.00    -0.201 N 
ATOM     15  N   UNL     1      -6.837  21.259  67.326  0.00  0.00    -0.042 NA
ATOM     16  N   UNL     1      -5.568  20.868  67.423  0.00  0.00    -0.023 NA
ATOM     17  N   UNL     1      -5.494  19.802  68.208  0.00  0.00    -0.105 NA
ATOM     18  C   UNL     1      -6.745  19.668  68.713  0.00  0.00    +0.222 A 
ENDBRANCH  13  14
ENDBRANCH  11  13
ENDBRANCH   8  10
BRANCH   9  19
ATOM     19  C   UNL     1     -12.126  13.288  65.646  0.00  0.00    +0.401 C 
ATOM     20  OXT UNL     1     -11.713  12.360  64.684  0.00  0.00    -0.239 OA
ATOM     21  O   UNL     1     -13.121  13.995  65.299  0.00  0.00    -0.239 OA
ENDBRANCH   9  19
BRANCH   1  22
ATOM     22  C   UNL     1     -11.863  12.144  68.159  0.00  0.00    +0.088 C 
BRANCH  22  23
ATOM     23  S   UNL     1     -10.860  10.661  68.270  0.00  0.00    -0.082 S 
BRANCH  23  27
ATOM     24  C   UNL     1     -10.729   7.496  73.111  0.00  0.00    +0.061 C 
ATOM     25  C   UNL     1     -10.885   8.445  71.990  0.00  0.00    +0.112 A 
ATOM     26  S   UNL     1     -10.290   8.398  70.378  0.00  0.00    -0.044 S 
ATOM     27  C   UNL     1     -11.216   9.705  69.749  0.00  0.00    +0.159 A 
ATOM     28  N   UNL     1     -11.648  10.225  70.927  0.00  0.00    -0.135 NA
ATOM     29  N   UNL     1     -11.928   9.292  71.799  0.00  0.00    -0.145 NA
ENDBRANCH  23  27
ENDBRANCH  22  23
ENDBRANCH   1  22
TORSDOF 7
ENDMDL
MODEL 8
REMARK VINA RESULT:      -6.8      1.970      2.459
REMARK  Name = 
REMARK  7 active torsions:
REMARK  status: ('A' for Active; 'I' for Inactive)
REMARK    1  A    between atoms: C_5  and  S_6
REMARK    2  A    between atoms: S_6  and  C_7
REMARK    3  A    between atoms: C_7  and  C_8
REMARK    4  A    between atoms: CA_9  and  C_10
REMARK    5  A    between atoms: CA_16  and  N_17
REMARK    6  A    between atoms: C_18  and  C_20
REMARK    7  A    between atoms: C_20  and  N_21
REMARK                            x       y       z     vdW  Elec       q    Type
REMARK                         _______ _______ _______ _____ _____    ______ ____
ROOT
ATOM      1  C   UNL     1      -8.490  15.145  68.432  0.00  0.00    -0.002 C 
ATOM      2  C   UNL     1      -7.043  15.232  68.814  0.00  0.00    +0.083 C 
ATOM      3  S   UNL     1      -6.570  16.970  68.548  0.00  0.00    -0.114 S 
ATOM      4  C   UNL     1      -7.717  17.446  67.096  0.00  0.00    +0.157 C 
ATOM      5  N   UNL     1      -8.928  17.511  68.015  0.00  0.00    -0.242 N 
ATOM      6  C   UNL     1      -8.573  18.776  68.632  0.00  0.00    +0.253 C 
ATOM      7  O   UNL     1      -9.432  19.634  69.017  0.00  0.00    -0.273 OA
ATOM      8  CA  UNL     1      -7.817  19.143  67.226  0.00  0.00    +0.200 C 
ATOM      9  CA  UNL     1      -9.298  16.206  68.473  0.00  0.00    +0.129 C 
ENDROOT
BRANCH   8  10
ATOM     10  N   UNL     1      -6.371  19.346  67.895  0.00  0.00    -0.193 NA
ATOM     11  C   UNL     1      -6.069  20.679  68.243  0.00  0.00    +0.267 C 
ATOM     12  O   UNL     1      -6.480  21.617  67.508  0.00  0.00    -0.271 OA
BRANCH  11  13
ATOM     13  C   UNL     1      -4.745  20.831  68.926  0.00  0.00    +0.217 C 
BRANCH  13  14
ATOM     14  N   UNL     1      -4.891  20.991  70.355  0.00  0.00    -0.201 N 
ATOM     15  N   UNL     1      -4.444  21.986  71.121  0.00  0.00    -0.042 NA
ATOM     16  N   UNL     1      -3.919  21.488  72.239  0.00  0.00    -0.023 NA
ATOM     17  N   UNL     1      -4.082  20.173  72.254  0.00  0.00    -0.105 NA
ATOM     18  C   UNL     1      -4.872  19.918  71.183  0.00  0.00    +0.222 A 
ENDBRANCH  13  14
ENDBRANCH  11  13
ENDBRANCH   8  10
BRANCH   9  19
ATOM     19  C   UNL     1     -10.633  16.128  69.084  0.00  0.00    +0.401 C 
ATOM     20  OXT UNL     1     -11.681  16.784  68.430  0.00  0.00    -0.239 OA
ATOM     21  O   UNL     1     -10.784  16.020  70.339  0.00  0.00    -0.239 OA
ENDBRANCH   9  19
BRANCH   1  22
ATOM     22  C   UNL     1      -9.119  13.826  68.766  0.00  0.00    +0.088 C 
BRANCH  22  23
ATOM     23  S   UNL     1      -8.757  12.565  67.543  0.00  0.00    -0.082 S 
BRANCH  23  27
ATOM     24  C   UNL     1     -12.598  11.920  63.264  0.00  0.00    +0.061 C 
ATOM     25  C   UNL     1     -11.710  12.281  64.388  0.00  0.00    +0.112 A 
ATOM     26  S   UNL     1     -10.423  11.419  65.135  0.00  0.00    -0.044 S 
ATOM     27  C   UNL     1      -9.798  12.710  66.085  0.00  0.00    +0.159 A 
ATOM     28  N   UNL     1     -10.838  13.573  65.953  0.00  0.00    -0.135 NA
ATOM     29  N   UNL     1     -11.352  13.538  64.752  0.00  0.00    -0.145 NA
ENDBRANCH  23  27
ENDBRANCH  22  23
ENDBRANCH   1  22
TORSDOF 7
ENDMDL
MODEL 9
REMARK VINA RESULT:      -6.8      3.090      9.538
REMARK  Name = 
REMARK  7 active torsions:
REMARK  status: ('A' for Active; 'I' for Inactive)
REMARK    1  A    between atoms: C_5  and  S_6
REMARK    2  A    between atoms: S_6  and  C_7
REMARK    3  A    between atoms: C_7  and  C_8
REMARK    4  A    between atoms: CA_9  and  C_10
REMARK    5  A    between atoms: CA_16  and  N_17
REMARK    6  A    between atoms: C_18  and  C_20
REMARK    7  A    between atoms: C_20  and  N_21
REMARK                            x       y       z     vdW  Elec       q    Type
REMARK                         _______ _______ _______ _____ _____    ______ ____
ROOT
ATOM      1  C   UNL     1      -9.026  16.288  67.861  0.00  0.00    -0.002 C 
ATOM      2  C   UNL     1      -8.289  15.040  67.479  0.00  0.00    +0.083 C 
ATOM      3  S   UNL     1      -9.333  14.218  66.233  0.00  0.00    -0.114 S 
ATOM      4  C   UNL     1     -11.075  14.756  66.799  0.00  0.00    +0.157 C 
ATOM      5  N   UNL     1     -10.866  16.164  66.260  0.00  0.00    -0.242 N 
ATOM      6  C   UNL     1     -11.028  15.809  64.863  0.00  0.00    +0.253 C 
ATOM      7  O   UNL     1     -11.547  16.586  63.998  0.00  0.00    -0.273 OA
ATOM      8  CA  UNL     1     -12.006  14.602  65.379  0.00  0.00    +0.200 C 
ATOM      9  CA  UNL     1      -9.898  16.875  67.041  0.00  0.00    +0.129 C 
ENDROOT
BRANCH   8  10
ATOM     10  N   UNL     1     -11.128  13.424  64.731  0.00  0.00    -0.193 NA
ATOM     11  C   UNL     1     -11.849  12.552  63.888  0.00  0.00    +0.267 C 
ATOM     12  O   UNL     1     -13.043  12.265  64.174  0.00  0.00    -0.271 OA
BRANCH  11  13
ATOM     13  C   UNL     1     -10.994  11.505  63.243  0.00  0.00    +0.217 C 
BRANCH  13  14
ATOM     14  N   UNL     1      -9.965  11.023  64.136  0.00  0.00    -0.201 N 
ATOM     15  N   UNL     1      -8.719  10.658  63.834  0.00  0.00    -0.042 NA
ATOM     16  N   UNL     1      -8.411   9.540  64.490  0.00  0.00    -0.023 NA
ATOM     17  N   UNL     1      -9.417   9.203  65.284  0.00  0.00    -0.105 NA
ATOM     18  C   UNL     1     -10.274  10.251  65.205  0.00  0.00    +0.222 A 
ENDBRANCH  13  14
ENDBRANCH  11  13
ENDBRANCH   8  10
BRANCH   9  19
ATOM     19  C   UNL     1      -9.874  18.327  66.809  0.00  0.00    +0.401 C 
ATOM     20  OXT UNL     1     -10.966  19.071  67.266  0.00  0.00    -0.239 OA
ATOM     21  O   UNL     1      -9.277  18.830  65.809  0.00  0.00    -0.239 OA
ENDBRANCH   9  19
BRANCH   1  22
ATOM     22  C   UNL     1      -8.231  17.204  68.742  0.00  0.00    +0.088 C 
BRANCH  22  23
ATOM     23  S   UNL     1      -6.486  17.210  68.330  0.00  0.00    -0.082 S 
BRANCH  23  27
ATOM     24  C   UNL     1      -4.334  21.277  71.836  0.00  0.00    +0.061 C 
ATOM     25  C   UNL     1      -4.861  20.103  71.112  0.00  0.00    +0.112 A 
ATOM     26  S   UNL     1      -5.429  19.931  69.498  0.00  0.00    -0.044 S 
ATOM     27  C   UNL     1      -5.519  18.213  69.465  0.00  0.00    +0.159 A 
ATOM     28  N   UNL     1      -5.397  17.983  70.798  0.00  0.00    -0.135 NA
ATOM     29  N   UNL     1      -4.550  18.806  71.359  0.00  0.00    -0.145 NA
ENDBRANCH  23  27
ENDBRANCH  22  23
ENDBRANCH   1  22
TORSDOF 7
ENDMDL
