MODEL 1
REMARK VINA RESULT:      -7.4      0.000      0.000
REMARK  Name = 
REMARK  8 active torsions:
REMARK  status: ('A' for Active; 'I' for Inactive)
REMARK    1  A    between atoms: C_2  and  C_3
REMARK    2  A    between atoms: C_3  and  C_4
REMARK    3  A    between atoms: C_4  and  C_5
REMARK    4  A    between atoms: C_9  and  C_10
REMARK    5  A    between atoms: N_12  and  C_13
REMARK    6  A    between atoms: C_13  and  C_14
REMARK    7  A    between atoms: C_17  and  C_18
REMARK    8  A    between atoms: C_23  and  C_24
REMARK                            x       y       z     vdW  Elec       q    Type
REMARK                         _______ _______ _______ _____ _____    ______ ____
ROOT
ATOM      1  C   UNL     1      -9.595  17.646  68.443  0.00  0.00    +0.000 A 
ATOM      2  C   UNL     1      -8.408  16.962  68.661  0.00  0.00    -0.002 A 
ATOM      3  C   UNL     1      -7.213  17.669  68.711  0.00  0.00    -0.000 A 
ATOM      4  C   UNL     1      -7.178  19.054  68.646  0.00  0.00    -0.001 A 
ATOM      5  C   UNL     1      -8.391  19.701  68.714  0.00  0.00    -0.000 A 
ATOM      6  C   UNL     1      -9.584  18.999  68.753  0.00  0.00    -0.002 A 
ENDROOT
BRANCH   4   7
ATOM      7  C   UNL     1      -6.030  19.728  68.033  0.00  0.00    -0.006 A 
ATOM      8  C   UNL     1      -4.862  19.843  68.776  0.00  0.00    -0.015 A 
ATOM      9  C   UNL     1      -3.703  20.048  68.067  0.00  0.00    -0.007 A 
ATOM     10  C   UNL     1      -3.654  20.127  66.695  0.00  0.00    -0.001 A 
ATOM     11  C   UNL     1      -4.854  20.279  66.017  0.00  0.00    -0.000 A 
ATOM     12  C   UNL     1      -6.041  20.122  66.701  0.00  0.00    -0.001 A 
BRANCH   8  13
ATOM     13  C   UNL     1      -4.947  20.009  70.233  0.00  0.00    +0.044 A 
ATOM     14  N   UNL     1      -5.177  21.210  70.814  0.00  0.00    -0.289 NA
ATOM     15  N   UNL     1      -4.624  21.243  72.022  0.00  0.00    -0.218 NA
ATOM     16  N   UNL     1      -4.119  20.041  72.233  0.00  0.00    -0.218 NA
ATOM     17  N   UNL     1      -4.084  19.392  71.077  0.00  0.00    -0.289 NA
ENDBRANCH   8  13
ENDBRANCH   4   7
BRANCH   1  18
ATOM     18  C   UNL     1     -10.767  17.050  67.771  0.00  0.00    +0.134 C 
BRANCH  18  20
ATOM     19  C   UNL     1     -11.536  14.959  68.858  0.00  0.00    +0.121 A 
ATOM     20  N   UNL     1     -10.821  15.607  67.906  0.00  0.00    -0.311 N 
ATOM     21  C   UNL     1     -10.816  14.795  66.823  0.00  0.00    +0.100 A 
ATOM     22  C   UNL     1     -11.433  13.590  67.137  0.00  0.00    +0.154 A 
ATOM     23 CL   UNL     1     -11.883  12.323  66.001  0.00  0.00    -0.060 Cl
ATOM     24  N   UNL     1     -11.776  13.690  68.444  0.00  0.00    -0.220 NA
BRANCH  21  25
ATOM     25  C   UNL     1     -10.370  15.174  65.447  0.00  0.00    +0.228 C 
ATOM     26  O   UNL     1     -11.486  15.446  64.665  0.00  0.00    -0.213 OA
ENDBRANCH  21  25
BRANCH  19  27
ATOM     27  C   UNL     1     -12.322  15.608  69.947  0.00  0.00    +0.064 C 
BRANCH  27  28
ATOM     28  C   UNL     1     -11.493  15.873  71.174  0.00  0.00    +0.008 C 
BRANCH  28  30
ATOM     29  C   UNL     1     -13.825  15.363  71.934  0.00  0.00    +0.000 C 
ATOM     30  C   UNL     1     -12.458  15.886  72.352  0.00  0.00    +0.000 C 
ENDBRANCH  28  30
ENDBRANCH  27  28
ENDBRANCH  19  27
ENDBRANCH  18  20
ENDBRANCH   1  18
TORSDOF 8
ENDMDL
MODEL 2
REMARK VINA RESULT:      -7.4      3.519      8.057
REMARK  Name = 
REMARK  8 active torsions:
REMARK  status: ('A' for Active; 'I' for Inactive)
REMARK    1  A    between atoms: C_2  and  C_3
REMARK    2  A    between atoms: C_3  and  C_4
REMARK    3  A    between atoms: C_4  and  C_5
REMARK    4  A    between atoms: C_9  and  C_10
REMARK    5  A    between atoms: N_12  and  C_13
REMARK    6  A    between atoms: C_13  and  C_14
REMARK    7  A    between atoms: C_17  and  C_18
REMARK    8  A    between atoms: C_23  and  C_24
REMARK                            x       y       z     vdW  Elec       q    Type
REMARK                         _______ _______ _______ _____ _____    ______ ____
ROOT
ATOM      1  C   UNL     1     -10.795  15.793  66.983  0.00  0.00    +0.000 A 
ATOM      2  C   UNL     1     -11.425  14.638  66.538  0.00  0.00    -0.002 A 
ATOM      3  C   UNL     1     -11.986  13.768  67.465  0.00  0.00    -0.000 A 
ATOM      4  C   UNL     1     -12.021  14.063  68.820  0.00  0.00    -0.001 A 
ATOM      5  C   UNL     1     -11.641  15.337  69.179  0.00  0.00    -0.000 A 
ATOM      6  C   UNL     1     -11.164  16.240  68.245  0.00  0.00    -0.002 A 
ENDROOT
BRANCH   4   7
ATOM      7  C   UNL     1     -11.954  12.981  69.805  0.00  0.00    -0.006 A 
ATOM      8  C   UNL     1     -12.743  13.078  70.944  0.00  0.00    -0.015 A 
ATOM      9  C   UNL     1     -13.015  11.903  71.603  0.00  0.00    -0.007 A 
ATOM     10  C   UNL     1     -12.562  10.674  71.186  0.00  0.00    -0.001 A 
ATOM     11  C   UNL     1     -11.568  10.650  70.219  0.00  0.00    -0.000 A 
ATOM     12  C   UNL     1     -11.237  11.816  69.562  0.00  0.00    -0.001 A 
BRANCH   8  13
ATOM     13  C   UNL     1     -13.013  14.400  71.523  0.00  0.00    +0.044 A 
ATOM     14  N   UNL     1     -12.440  14.817  72.677  0.00  0.00    -0.289 NA
ATOM     15  N   UNL     1     -13.238  15.684  73.293  0.00  0.00    -0.218 NA
ATOM     16  N   UNL     1     -14.270  15.875  72.491  0.00  0.00    -0.218 NA
ATOM     17  N   UNL     1     -14.262  14.924  71.566  0.00  0.00    -0.289 NA
ENDBRANCH   8  13
ENDBRANCH   4   7
BRANCH   1  18
ATOM     18  C   UNL     1      -9.680  16.441  66.264  0.00  0.00    +0.134 C 
BRANCH  18  20
ATOM     19  C   UNL     1      -7.630  16.986  67.550  0.00  0.00    +0.121 A 
ATOM     20  N   UNL     1      -8.879  17.294  67.122  0.00  0.00    -0.311 N 
ATOM     21  C   UNL     1      -8.914  18.643  67.008  0.00  0.00    +0.100 A 
ATOM     22  C   UNL     1      -7.721  19.184  67.471  0.00  0.00    +0.154 A 
ATOM     23 CL   UNL     1      -7.200  20.857  67.301  0.00  0.00    -0.060 Cl
ATOM     24  N   UNL     1      -6.987  18.127  67.897  0.00  0.00    -0.220 NA
BRANCH  21  25
ATOM     25  C   UNL     1      -9.989  19.437  66.338  0.00  0.00    +0.228 C 
ATOM     26  O   UNL     1     -11.063  19.577  67.208  0.00  0.00    -0.213 OA
ENDBRANCH  21  25
BRANCH  19  27
ATOM     27  C   UNL     1      -6.906  15.712  67.269  0.00  0.00    +0.064 C 
BRANCH  27  28
ATOM     28  C   UNL     1      -6.754  14.856  68.497  0.00  0.00    +0.008 C 
BRANCH  28  30
ATOM     29  C   UNL     1      -8.239  13.057  67.584  0.00  0.00    +0.000 C 
ATOM     30  C   UNL     1      -8.072  14.112  68.668  0.00  0.00    +0.000 C 
ENDBRANCH  28  30
ENDBRANCH  27  28
ENDBRANCH  19  27
ENDBRANCH  18  20
ENDBRANCH   1  18
TORSDOF 8
ENDMDL
MODEL 3
REMARK VINA RESULT:      -6.9      5.395      9.228
REMARK  Name = 
REMARK  8 active torsions:
REMARK  status: ('A' for Active; 'I' for Inactive)
REMARK    1  A    between atoms: C_2  and  C_3
REMARK    2  A    between atoms: C_3  and  C_4
REMARK    3  A    between atoms: C_4  and  C_5
REMARK    4  A    between atoms: C_9  and  C_10
REMARK    5  A    between atoms: N_12  and  C_13
REMARK    6  A    between atoms: C_13  and  C_14
REMARK    7  A    between atoms: C_17  and  C_18
REMARK    8  A    between atoms: C_23  and  C_24
REMARK                            x       y       z     vdW  Elec       q    Type
REMARK                         _______ _______ _______ _____ _____    ______ ____
ROOT
ATOM      1  C   UNL     1     -11.266  13.206  68.466  0.00  0.00    +0.000 A 
ATOM      2  C   UNL     1     -11.871  12.453  69.463  0.00  0.00    -0.002 A 
ATOM      3  C   UNL     1     -11.396  11.177  69.736  0.00  0.00    -0.000 A 
ATOM      4  C   UNL     1     -10.271  10.663  69.108  0.00  0.00    -0.001 A 
ATOM      5  C   UNL     1      -9.543  11.544  68.340  0.00  0.00    -0.000 A 
ATOM      6  C   UNL     1      -9.966  12.846  68.136  0.00  0.00    -0.002 A 
ENDROOT
BRANCH   4   7
ATOM      7  C   UNL     1     -10.169   9.223  68.855  0.00  0.00    -0.006 A 
ATOM      8  C   UNL     1     -10.036   8.372  69.943  0.00  0.00    -0.015 A 
ATOM      9  C   UNL     1     -10.392   7.060  69.742  0.00  0.00    -0.007 A 
ATOM     10  C   UNL     1     -10.872   6.576  68.548  0.00  0.00    -0.001 A 
ATOM     11  C   UNL     1     -10.734   7.381  67.427  0.00  0.00    -0.000 A 
ATOM     12  C   UNL     1     -10.338   8.693  67.582  0.00  0.00    -0.001 A 
BRANCH   8  13
ATOM     13  C   UNL     1      -9.296   8.826  71.128  0.00  0.00    +0.044 A 
ATOM     14  N   UNL     1      -7.956   9.021  71.116  0.00  0.00    -0.289 NA
ATOM     15  N   UNL     1      -7.457   8.821  72.331  0.00  0.00    -0.218 NA
ATOM     16  N   UNL     1      -8.487   8.581  73.122  0.00  0.00    -0.218 NA
ATOM     17  N   UNL     1      -9.547   8.331  72.364  0.00  0.00    -0.289 NA
ENDBRANCH   8  13
ENDBRANCH   4   7
BRANCH   1  18
ATOM     18  C   UNL     1     -11.977  14.224  67.667  0.00  0.00    +0.134 C 
BRANCH  18  20
ATOM     19  C   UNL     1     -11.134  15.068  65.493  0.00  0.00    +0.121 A 
ATOM     20  N   UNL     1     -11.085  15.021  66.847  0.00  0.00    -0.311 N 
ATOM     21  C   UNL     1     -10.656  16.240  67.250  0.00  0.00    +0.100 A 
ATOM     22  C   UNL     1     -10.330  17.013  66.141  0.00  0.00    +0.154 A 
ATOM     23 CL   UNL     1      -9.964  18.735  66.143  0.00  0.00    -0.060 Cl
ATOM     24  N   UNL     1     -10.543  16.212  65.069  0.00  0.00    -0.220 NA
BRANCH  21  25
ATOM     25  C   UNL     1     -10.677  16.756  68.653  0.00  0.00    +0.228 C 
ATOM     26  O   UNL     1      -9.532  16.329  69.314  0.00  0.00    -0.213 OA
ENDBRANCH  21  25
BRANCH  19  27
ATOM     27  C   UNL     1     -12.055  14.274  64.629  0.00  0.00    +0.064 C 
BRANCH  27  28
ATOM     28  C   UNL     1     -11.362  13.118  63.962  0.00  0.00    +0.008 C 
BRANCH  28  30
ATOM     29  C   UNL     1     -10.362  10.954  64.734  0.00  0.00    +0.000 C 
ATOM     30  C   UNL     1     -11.525  11.923  64.892  0.00  0.00    +0.000 C 
ENDBRANCH  28  30
ENDBRANCH  27  28
ENDBRANCH  19  27
ENDBRANCH  18  20
ENDBRANCH   1  18
TORSDOF 8
ENDMDL
MODEL 4
REMARK VINA RESULT:      -6.9      3.419      8.256
REMARK  Name = 
REMARK  8 active torsions:
REMARK  status: ('A' for Active; 'I' for Inactive)
REMARK    1  A    between atoms: C_2  and  C_3
REMARK    2  A    between atoms: C_3  and  C_4
REMARK    3  A    between atoms: C_4  and  C_5
REMARK    4  A    between atoms: C_9  and  C_10
REMARK    5  A    between atoms: N_12  and  C_13
REMARK    6  A    between atoms: C_13  and  C_14
REMARK    7  A    between atoms: C_17  and  C_18
REMARK    8  A    between atoms: C_23  and  C_24
REMARK                            x       y       z     vdW  Elec       q    Type
REMARK                         _______ _______ _______ _____ _____    ______ ____
ROOT
ATOM      1  C   UNL     1      -8.062  17.581  66.542  0.00  0.00    +0.000 A 
ATOM      2  C   UNL     1      -8.238  16.285  66.078  0.00  0.00    -0.002 A 
ATOM      3  C   UNL     1      -9.398  15.595  66.406  0.00  0.00    -0.000 A 
ATOM      4  C   UNL     1     -10.435  16.194  67.106  0.00  0.00    -0.001 A 
ATOM      5  C   UNL     1     -10.337  17.554  67.299  0.00  0.00    -0.000 A 
ATOM      6  C   UNL     1      -9.220  18.264  66.894  0.00  0.00    -0.002 A 
ENDROOT
BRANCH   4   7
ATOM      7  C   UNL     1     -11.270  15.392  68.003  0.00  0.00    -0.006 A 
ATOM      8  C   UNL     1     -11.572  14.088  67.631  0.00  0.00    -0.015 A 
ATOM      9  C   UNL     1     -11.944  13.233  68.640  0.00  0.00    -0.007 A 
ATOM     10  C   UNL     1     -12.015  13.603  69.962  0.00  0.00    -0.001 A 
ATOM     11  C   UNL     1     -11.974  14.958  70.254  0.00  0.00    -0.000 A 
ATOM     12  C   UNL     1     -11.644  15.853  69.259  0.00  0.00    -0.001 A 
BRANCH   8  13
ATOM     13  C   UNL     1     -11.737  13.764  66.208  0.00  0.00    +0.044 A 
ATOM     14  N   UNL     1     -12.906  13.956  65.552  0.00  0.00    -0.289 NA
ATOM     15  N   UNL     1     -13.016  13.083  64.556  0.00  0.00    -0.218 NA
ATOM     16  N   UNL     1     -11.887  12.399  64.533  0.00  0.00    -0.218 NA
ATOM     17  N   UNL     1     -11.237  12.626  65.668  0.00  0.00    -0.289 NA
ENDBRANCH   8  13
ENDBRANCH   4   7
BRANCH   1  18
ATOM     18  C   UNL     1      -6.739  18.176  66.819  0.00  0.00    +0.134 C 
BRANCH  18  20
ATOM     19  C   UNL     1      -6.303  17.879  69.242  0.00  0.00    +0.121 A 
ATOM     20  N   UNL     1      -6.614  18.662  68.180  0.00  0.00    -0.311 N 
ATOM     21  C   UNL     1      -6.094  19.882  68.449  0.00  0.00    +0.100 A 
ATOM     22  C   UNL     1      -5.554  19.890  69.730  0.00  0.00    +0.154 A 
ATOM     23 CL   UNL     1      -4.558  21.160  70.433  0.00  0.00    -0.060 Cl
ATOM     24  N   UNL     1      -5.797  18.654  70.231  0.00  0.00    -0.220 NA
BRANCH  21  25
ATOM     25  C   UNL     1      -5.959  21.011  67.477  0.00  0.00    +0.228 C 
ATOM     26  O   UNL     1      -7.220  21.523  67.195  0.00  0.00    -0.213 OA
ENDBRANCH  21  25
BRANCH  19  27
ATOM     27  C   UNL     1      -6.105  16.400  69.202  0.00  0.00    +0.064 C 
BRANCH  27  28
ATOM     28  C   UNL     1      -7.359  15.644  69.544  0.00  0.00    +0.008 C 
BRANCH  28  30
ATOM     29  C   UNL     1      -6.015  14.172  68.026  0.00  0.00    +0.000 C 
ATOM     30  C   UNL     1      -7.161  14.225  69.026  0.00  0.00    +0.000 C 
ENDBRANCH  28  30
ENDBRANCH  27  28
ENDBRANCH  19  27
ENDBRANCH  18  20
ENDBRANCH   1  18
TORSDOF 8
ENDMDL
MODEL 5
REMARK VINA RESULT:      -6.8      1.959      2.362
REMARK  Name = 
REMARK  8 active torsions:
REMARK  status: ('A' for Active; 'I' for Inactive)
REMARK    1  A    between atoms: C_2  and  C_3
REMARK    2  A    between atoms: C_3  and  C_4
REMARK    3  A    between atoms: C_4  and  C_5
REMARK    4  A    between atoms: C_9  and  C_10
REMARK    5  A    between atoms: N_12  and  C_13
REMARK    6  A    between atoms: C_13  and  C_14
REMARK    7  A    between atoms: C_17  and  C_18
REMARK    8  A    between atoms: C_23  and  C_24
REMARK                            x       y       z     vdW  Elec       q    Type
REMARK                         _______ _______ _______ _____ _____    ______ ____
ROOT
ATOM      1  C   UNL     1     -10.068  16.018  67.969  0.00  0.00    +0.000 A 
ATOM      2  C   UNL     1      -8.802  15.666  67.525  0.00  0.00    -0.002 A 
ATOM      3  C   UNL     1      -7.776  16.602  67.579  0.00  0.00    -0.000 A 
ATOM      4  C   UNL     1      -7.953  17.852  68.152  0.00  0.00    -0.001 A 
ATOM      5  C   UNL     1      -9.136  18.053  68.828  0.00  0.00    -0.000 A 
ATOM      6  C   UNL     1     -10.128  17.088  68.852  0.00  0.00    -0.002 A 
ENDROOT
BRANCH   4   7
ATOM      7  C   UNL     1      -7.205  19.003  67.641  0.00  0.00    -0.006 A 
ATOM      8  C   UNL     1      -6.106  19.447  68.364  0.00  0.00    -0.015 A 
ATOM      9  C   UNL     1      -5.179  20.191  67.675  0.00  0.00    -0.007 A 
ATOM     10  C   UNL     1      -5.287  20.492  66.338  0.00  0.00    -0.001 A 
ATOM     11  C   UNL     1      -6.511  20.270  65.726  0.00  0.00    -0.000 A 
ATOM     12  C   UNL     1      -7.484  19.562  66.400  0.00  0.00    -0.001 A 
BRANCH   8  13
ATOM     13  C   UNL     1      -6.116  19.341  69.829  0.00  0.00    +0.044 A 
ATOM     14  N   UNL     1      -6.299  20.416  70.632  0.00  0.00    -0.289 NA
ATOM     15  N   UNL     1      -5.686  20.222  71.796  0.00  0.00    -0.218 NA
ATOM     16  N   UNL     1      -5.188  18.999  71.756  0.00  0.00    -0.218 NA
ATOM     17  N   UNL     1      -5.221  18.575  70.499  0.00  0.00    -0.289 NA
ENDBRANCH   8  13
ENDBRANCH   4   7
BRANCH   1  18
ATOM     18  C   UNL     1     -11.313  15.430  67.434  0.00  0.00    +0.134 C 
BRANCH  18  20
ATOM     19  C   UNL     1     -11.378  12.951  67.450  0.00  0.00    +0.121 A 
ATOM     20  N   UNL     1     -11.105  14.126  66.832  0.00  0.00    -0.311 N 
ATOM     21  C   UNL     1     -11.321  13.915  65.512  0.00  0.00    +0.100 A 
ATOM     22  C   UNL     1     -11.621  12.575  65.294  0.00  0.00    +0.154 A 
ATOM     23 CL   UNL     1     -12.213  11.872  63.793  0.00  0.00    -0.060 Cl
ATOM     24  N   UNL     1     -11.545  11.986  66.512  0.00  0.00    -0.220 NA
BRANCH  21  25
ATOM     25  C   UNL     1     -11.395  14.972  64.457  0.00  0.00    +0.228 C 
ATOM     26  O   UNL     1     -12.707  15.086  64.016  0.00  0.00    -0.213 OA
ENDBRANCH  21  25
BRANCH  19  27
ATOM     27  C   UNL     1     -11.867  12.800  68.851  0.00  0.00    +0.064 C 
BRANCH  27  28
ATOM     28  C   UNL     1     -11.706  11.396  69.366  0.00  0.00    +0.008 C 
BRANCH  28  30
ATOM     29  C   UNL     1     -12.302   9.962  71.333  0.00  0.00    +0.000 C 
ATOM     30  C   UNL     1     -12.395  11.353  70.724  0.00  0.00    +0.000 C 
ENDBRANCH  28  30
ENDBRANCH  27  28
ENDBRANCH  19  27
ENDBRANCH  18  20
ENDBRANCH   1  18
TORSDOF 8
ENDMDL
MODEL 6
REMARK VINA RESULT:      -6.8      4.792      8.875
REMARK  Name = 
REMARK  8 active torsions:
REMARK  status: ('A' for Active; 'I' for Inactive)
REMARK    1  A    between atoms: C_2  and  C_3
REMARK    2  A    between atoms: C_3  and  C_4
REMARK    3  A    between atoms: C_4  and  C_5
REMARK    4  A    between atoms: C_9  and  C_10
REMARK    5  A    between atoms: N_12  and  C_13
REMARK    6  A    between atoms: C_13  and  C_14
REMARK    7  A    between atoms: C_17  and  C_18
REMARK    8  A    between atoms: C_23  and  C_24
REMARK                            x       y       z     vdW  Elec       q    Type
REMARK                         _______ _______ _______ _____ _____    ______ ____
ROOT
ATOM      1  C   UNL     1     -11.306  12.599  68.573  0.00  0.00    +0.000 A 
ATOM      2  C   UNL     1     -11.777  11.297  68.473  0.00  0.00    -0.002 A 
ATOM      3  C   UNL     1     -11.141  10.406  67.617  0.00  0.00    -0.000 A 
ATOM      4  C   UNL     1      -9.987  10.749  66.927  0.00  0.00    -0.001 A 
ATOM      5  C   UNL     1      -9.401  11.946  67.273  0.00  0.00    -0.000 A 
ATOM      6  C   UNL     1      -9.986  12.799  68.192  0.00  0.00    -0.002 A 
ENDROOT
BRANCH   4   7
ATOM      7  C   UNL     1      -9.722  10.163  65.611  0.00  0.00    -0.006 A 
ATOM      8  C   UNL     1     -10.010  10.921  64.484  0.00  0.00    -0.015 A 
ATOM      9  C   UNL     1      -9.358  10.570  63.326  0.00  0.00    -0.007 A 
ATOM     10  C   UNL     1      -8.452   9.539  63.246  0.00  0.00    -0.001 A 
ATOM     11  C   UNL     1      -8.397   8.648  64.307  0.00  0.00    -0.000 A 
ATOM     12  C   UNL     1      -9.071   8.943  65.473  0.00  0.00    -0.001 A 
BRANCH   8  13
ATOM     13  C   UNL     1     -11.150  11.847  64.509  0.00  0.00    +0.044 A 
ATOM     14  N   UNL     1     -12.257  11.654  63.754  0.00  0.00    -0.289 NA
ATOM     15  N   UNL     1     -12.822  12.824  63.470  0.00  0.00    -0.218 NA
ATOM     16  N   UNL     1     -12.120  13.741  64.109  0.00  0.00    -0.218 NA
ATOM     17  N   UNL     1     -10.982  13.192  64.514  0.00  0.00    -0.289 NA
ENDBRANCH   8  13
ENDBRANCH   4   7
BRANCH   1  18
ATOM     18  C   UNL     1     -12.166  13.754  68.900  0.00  0.00    +0.134 C 
BRANCH  18  20
ATOM     19  C   UNL     1     -11.194  15.773  69.963  0.00  0.00    +0.121 A 
ATOM     20  N   UNL     1     -11.682  14.511  70.039  0.00  0.00    -0.311 N 
ATOM     21  C   UNL     1     -12.269  14.409  71.255  0.00  0.00    +0.100 A 
ATOM     22  C   UNL     1     -12.049  15.573  71.982  0.00  0.00    +0.154 A 
ATOM     23 CL   UNL     1     -12.813  16.011  73.506  0.00  0.00    -0.060 Cl
ATOM     24  N   UNL     1     -11.287  16.358  71.182  0.00  0.00    -0.220 NA
BRANCH  21  25
ATOM     25  C   UNL     1     -13.161  13.297  71.707  0.00  0.00    +0.228 C 
ATOM     26  O   UNL     1     -14.416  13.811  72.006  0.00  0.00    -0.213 OA
ENDBRANCH  21  25
BRANCH  19  27
ATOM     27  C   UNL     1     -11.013  16.559  68.708  0.00  0.00    +0.064 C 
BRANCH  27  28
ATOM     28  C   UNL     1      -9.563  16.767  68.364  0.00  0.00    +0.008 C 
BRANCH  28  30
ATOM     29  C   UNL     1      -9.004  15.734  66.151  0.00  0.00    +0.000 C 
ATOM     30  C   UNL     1      -9.505  16.985  66.858  0.00  0.00    +0.000 C 
ENDBRANCH  28  30
ENDBRANCH  27  28
ENDBRANCH  19  27
ENDBRANCH  18  20
ENDBRANCH   1  18
TORSDOF 8
ENDMDL
MODEL 7
REMARK VINA RESULT:      -6.8      4.076      8.259
REMARK  Name = 
REMARK  8 active torsions:
REMARK  status: ('A' for Active; 'I' for Inactive)
REMARK    1  A    between atoms: C_2  and  C_3
REMARK    2  A    between atoms: C_3  and  C_4
REMARK    3  A    between atoms: C_4  and  C_5
REMARK    4  A    between atoms: C_9  and  C_10
REMARK    5  A    between atoms: N_12  and  C_13
REMARK    6  A    between atoms: C_13  and  C_14
REMARK    7  A    between atoms: C_17  and  C_18
REMARK    8  A    between atoms: C_23  and  C_24
REMARK                            x       y       z     vdW  Elec       q    Type
REMARK                         _______ _______ _______ _____ _____    ______ ____
ROOT
ATOM      1  C   UNL     1      -7.050  16.596  66.907  0.00  0.00    +0.000 A 
ATOM      2  C   UNL     1      -6.965  15.579  67.848  0.00  0.00    -0.002 A 
ATOM      3  C   UNL     1      -8.128  14.957  68.287  0.00  0.00    -0.000 A 
ATOM      4  C   UNL     1      -9.369  15.256  67.744  0.00  0.00    -0.001 A 
ATOM      5  C   UNL     1      -9.370  16.060  66.626  0.00  0.00    -0.000 A 
ATOM      6  C   UNL     1      -8.201  16.611  66.130  0.00  0.00    -0.002 A 
ENDROOT
BRANCH   4   7
ATOM      7  C   UNL     1     -10.571  15.169  68.577  0.00  0.00    -0.006 A 
ATOM      8  C   UNL     1     -11.452  14.120  68.353  0.00  0.00    -0.015 A 
ATOM      9  C   UNL     1     -12.293  13.793  69.390  0.00  0.00    -0.007 A 
ATOM     10  C   UNL     1     -12.286  14.436  70.606  0.00  0.00    -0.001 A 
ATOM     11  C   UNL     1     -11.596  15.635  70.695  0.00  0.00    -0.000 A 
ATOM     12  C   UNL     1     -10.772  16.019  69.658  0.00  0.00    -0.001 A 
BRANCH   8  13
ATOM     13  C   UNL     1     -11.630  13.606  66.989  0.00  0.00    +0.044 A 
ATOM     14  N   UNL     1     -12.388  14.245  66.067  0.00  0.00    -0.289 NA
ATOM     15  N   UNL     1     -12.888  13.368  65.203  0.00  0.00    -0.218 NA
ATOM     16  N   UNL     1     -12.382  12.193  65.530  0.00  0.00    -0.218 NA
ATOM     17  N   UNL     1     -11.843  12.291  66.739  0.00  0.00    -0.289 NA
ENDBRANCH   8  13
ENDBRANCH   4   7
BRANCH   1  18
ATOM     18  C   UNL     1      -6.082  17.707  66.818  0.00  0.00    +0.134 C 
BRANCH  18  20
ATOM     19  C   UNL     1      -7.084  19.664  65.671  0.00  0.00    +0.121 A 
ATOM     20  N   UNL     1      -6.305  18.556  65.663  0.00  0.00    -0.311 N 
ATOM     21  C   UNL     1      -5.322  18.795  64.763  0.00  0.00    +0.100 A 
ATOM     22  C   UNL     1      -5.552  20.010  64.128  0.00  0.00    +0.154 A 
ATOM     23 CL   UNL     1      -4.434  20.860  63.068  0.00  0.00    -0.060 Cl
ATOM     24  N   UNL     1      -6.716  20.473  64.647  0.00  0.00    -0.220 NA
BRANCH  21  25
ATOM     25  C   UNL     1      -4.084  17.977  64.579  0.00  0.00    +0.228 C 
ATOM     26  O   UNL     1      -3.031  18.585  65.252  0.00  0.00    -0.213 OA
ENDBRANCH  21  25
BRANCH  19  27
ATOM     27  C   UNL     1      -7.882  20.156  66.832  0.00  0.00    +0.064 C 
BRANCH  27  28
ATOM     28  C   UNL     1      -9.364  20.067  66.588  0.00  0.00    +0.008 C 
BRANCH  28  30
ATOM     29  C   UNL     1      -8.898  19.155  68.875  0.00  0.00    +0.000 C 
ATOM     30  C   UNL     1      -9.981  19.533  67.874  0.00  0.00    +0.000 C 
ENDBRANCH  28  30
ENDBRANCH  27  28
ENDBRANCH  19  27
ENDBRANCH  18  20
ENDBRANCH   1  18
TORSDOF 8
ENDMDL
MODEL 8
REMARK VINA RESULT:      -6.7      3.579      8.900
REMARK  Name = 
REMARK  8 active torsions:
REMARK  status: ('A' for Active; 'I' for Inactive)
REMARK    1  A    between atoms: C_2  and  C_3
REMARK    2  A    between atoms: C_3  and  C_4
REMARK    3  A    between atoms: C_4  and  C_5
REMARK    4  A    between atoms: C_9  and  C_10
REMARK    5  A    between atoms: N_12  and  C_13
REMARK    6  A    between atoms: C_13  and  C_14
REMARK    7  A    between atoms: C_17  and  C_18
REMARK    8  A    between atoms: C_23  and  C_24
REMARK                            x       y       z     vdW  Elec       q    Type
REMARK                         _______ _______ _______ _____ _____    ______ ____
ROOT
ATOM      1  C   UNL     1      -8.317  18.732  68.483  0.00  0.00    +0.000 A 
ATOM      2  C   UNL     1      -7.835  17.432  68.550  0.00  0.00    -0.002 A 
ATOM      3  C   UNL     1      -8.728  16.370  68.470  0.00  0.00    -0.000 A 
ATOM      4  C   UNL     1     -10.080  16.565  68.229  0.00  0.00    -0.001 A 
ATOM      5  C   UNL     1     -10.463  17.844  67.890  0.00  0.00    -0.000 A 
ATOM      6  C   UNL     1      -9.559  18.891  67.882  0.00  0.00    -0.002 A 
ENDROOT
BRANCH   4   7
ATOM      7  C   UNL     1     -11.063  15.638  68.794  0.00  0.00    -0.006 A 
ATOM      8  C   UNL     1     -11.330  14.462  68.105  0.00  0.00    -0.015 A 
ATOM      9  C   UNL     1     -11.876  13.434  68.836  0.00  0.00    -0.007 A 
ATOM     10  C   UNL     1     -12.147  13.517  70.181  0.00  0.00    -0.001 A 
ATOM     11  C   UNL     1     -12.124  14.775  70.764  0.00  0.00    -0.000 A 
ATOM     12  C   UNL     1     -11.621  15.842  70.049  0.00  0.00    -0.001 A 
BRANCH   8  13
ATOM     13  C   UNL     1     -11.276  14.458  66.637  0.00  0.00    +0.044 A 
ATOM     14  N   UNL     1     -12.359  14.181  65.872  0.00  0.00    -0.289 NA
ATOM     15  N   UNL     1     -11.974  13.647  64.717  0.00  0.00    -0.218 NA
ATOM     16  N   UNL     1     -10.654  13.663  64.721  0.00  0.00    -0.218 NA
ATOM     17  N   UNL     1     -10.241  13.905  65.959  0.00  0.00    -0.289 NA
ENDBRANCH   8  13
ENDBRANCH   4   7
BRANCH   1  18
ATOM     18  C   UNL     1      -7.662  19.879  69.143  0.00  0.00    +0.134 C 
BRANCH  18  20
ATOM     19  C   UNL     1      -5.627  20.403  67.826  0.00  0.00    +0.121 A 
ATOM     20  N   UNL     1      -6.226  19.904  68.935  0.00  0.00    -0.311 N 
ATOM     21  C   UNL     1      -5.367  20.126  69.957  0.00  0.00    +0.100 A 
ATOM     22  C   UNL     1      -4.183  20.665  69.467  0.00  0.00    +0.154 A 
ATOM     23 CL   UNL     1      -2.873  21.344  70.426  0.00  0.00    -0.060 Cl
ATOM     24  N   UNL     1      -4.344  20.725  68.123  0.00  0.00    -0.220 NA
BRANCH  21  25
ATOM     25  C   UNL     1      -5.681  19.980  71.412  0.00  0.00    +0.228 C 
ATOM     26  O   UNL     1      -4.923  18.943  71.940  0.00  0.00    -0.213 OA
ENDBRANCH  21  25
BRANCH  19  27
ATOM     27  C   UNL     1      -6.331  20.943  66.626  0.00  0.00    +0.064 C 
BRANCH  27  28
ATOM     28  C   UNL     1      -6.460  19.921  65.529  0.00  0.00    +0.008 C 
BRANCH  28  30
ATOM     29  C   UNL     1      -5.651  19.638  63.175  0.00  0.00    +0.000 C 
ATOM     30  C   UNL     1      -6.103  20.636  64.232  0.00  0.00    +0.000 C 
ENDBRANCH  28  30
ENDBRANCH  27  28
ENDBRANCH  19  27
ENDBRANCH  18  20
ENDBRANCH   1  18
TORSDOF 8
ENDMDL
MODEL 9
REMARK VINA RESULT:      -6.7      4.650      7.400
REMARK  Name = 
REMARK  8 active torsions:
REMARK  status: ('A' for Active; 'I' for Inactive)
REMARK    1  A    between atoms: C_2  and  C_3
REMARK    2  A    between atoms: C_3  and  C_4
REMARK    3  A    between atoms: C_4  and  C_5
REMARK    4  A    between atoms: C_9  and  C_10
REMARK    5  A    between atoms: N_12  and  C_13
REMARK    6  A    between atoms: C_13  and  C_14
REMARK    7  A    between atoms: C_17  and  C_18
REMARK    8  A    between atoms: C_23  and  C_24
REMARK                            x       y       z     vdW  Elec       q    Type
REMARK                         _______ _______ _______ _____ _____    ______ ____
ROOT
ATOM      1  C   UNL     1     -11.118  12.535  64.713  0.00  0.00    +0.000 A 
ATOM      2  C   UNL     1     -12.356  13.034  65.094  0.00  0.00    -0.002 A 
ATOM      3  C   UNL     1     -12.453  13.817  66.238  0.00  0.00    -0.000 A 
ATOM      4  C   UNL     1     -11.334  14.197  66.963  0.00  0.00    -0.001 A 
ATOM      5  C   UNL     1     -10.111  13.917  66.394  0.00  0.00    -0.000 A 
ATOM      6  C   UNL     1     -10.011  13.213  65.206  0.00  0.00    -0.002 A 
ENDROOT
BRANCH   4   7
ATOM      7  C   UNL     1     -11.433  14.388  68.412  0.00  0.00    -0.006 A 
ATOM      8  C   UNL     1     -11.374  15.683  68.910  0.00  0.00    -0.015 A 
ATOM      9  C   UNL     1     -11.909  15.884  70.160  0.00  0.00    -0.007 A 
ATOM     10  C   UNL     1     -12.492  14.888  70.907  0.00  0.00    -0.001 A 
ATOM     11  C   UNL     1     -12.289  13.577  70.501  0.00  0.00    -0.000 A 
ATOM     12  C   UNL     1     -11.717  13.333  69.270  0.00  0.00    -0.001 A 
BRANCH   8  13
ATOM     13  C   UNL     1     -10.539  16.681  68.229  0.00  0.00    +0.044 A 
ATOM     14  N   UNL     1      -9.215  16.810  68.480  0.00  0.00    -0.289 NA
ATOM     15  N   UNL     1      -8.832  18.064  68.264  0.00  0.00    -0.218 NA
ATOM     16  N   UNL     1      -9.891  18.702  67.801  0.00  0.00    -0.218 NA
ATOM     17  N   UNL     1     -10.963  17.951  68.023  0.00  0.00    -0.289 NA
ENDBRANCH   8  13
ENDBRANCH   4   7
BRANCH   1  18
ATOM     18  C   UNL     1     -10.942  11.270  63.971  0.00  0.00    +0.134 C 
BRANCH  18  20
ATOM     19  C   UNL     1      -9.532   9.721  65.299  0.00  0.00    +0.121 A 
ATOM     20  N   UNL     1      -9.691  10.605  64.283  0.00  0.00    -0.311 N 
ATOM     21  C   UNL     1      -8.837  10.214  63.309  0.00  0.00    +0.100 A 
ATOM     22  C   UNL     1      -8.064   9.151  63.761  0.00  0.00    +0.154 A 
ATOM     23 CL   UNL     1      -6.994   8.151  62.783  0.00  0.00    -0.060 Cl
ATOM     24  N   UNL     1      -8.455   8.940  65.041  0.00  0.00    -0.220 NA
BRANCH  21  25
ATOM     25  C   UNL     1      -8.822  10.721  61.902  0.00  0.00    +0.228 C 
ATOM     26  O   UNL     1      -7.674  11.478  61.702  0.00  0.00    -0.213 OA
ENDBRANCH  21  25
BRANCH  19  27
ATOM     27  C   UNL     1     -10.581   9.338  66.289  0.00  0.00    +0.064 C 
BRANCH  27  28
ATOM     28  C   UNL     1     -10.657  10.300  67.443  0.00  0.00    +0.008 C 
BRANCH  28  30
ATOM     29  C   UNL     1      -8.618  11.354  68.449  0.00  0.00    +0.000 C 
ATOM     30  C   UNL     1      -9.409  10.064  68.284  0.00  0.00    +0.000 C 
ENDBRANCH  28  30
ENDBRANCH  27  28
ENDBRANCH  19  27
ENDBRANCH  18  20
ENDBRANCH   1  18
TORSDOF 8
ENDMDL
