MODEL 1
REMARK VINA RESULT:      -6.2      0.000      0.000
REMARK  Name = 
REMARK  28 active torsions:
REMARK  status: ('A' for Active; 'I' for Inactive)
REMARK    1  A    between atoms: C_2  and  C_4
REMARK    2  A    between atoms: C_4  and  O_5
REMARK    3  A    between atoms: O_5  and  C_6
REMARK    4  A    between atoms: C_6  and  C_7
REMARK    5  A    between atoms: C_9  and  O_10
REMARK    6  A    between atoms: O_10  and  C_11
REMARK    7  A    between atoms: C_11  and  C_12
REMARK    8  A    between atoms: C_15  and  O_16
REMARK    9  A    between atoms: O_16  and  C_17
REMARK   10  A    between atoms: C_17  and  C_18
REMARK   11  A    between atoms: C_21  and  O_22
REMARK   12  A    between atoms: O_22  and  C_23
REMARK   13  A    between atoms: C_23  and  C_24
REMARK   14  A    between atoms: C_27  and  O_28
REMARK   15  A    between atoms: O_28  and  C_29
REMARK   16  A    between atoms: C_31  and  C_32
REMARK   17  A    between atoms: C_32  and  O_33
REMARK   18  A    between atoms: O_33  and  C_34
REMARK   19  A    between atoms: C_34  and  C_35
REMARK   20  A    between atoms: C_38  and  O_39
REMARK   21  A    between atoms: O_39  and  C_40
REMARK   22  A    between atoms: C_40  and  C_41
REMARK   23  A    between atoms: C_44  and  O_45
REMARK   24  A    between atoms: O_45  and  C_46
REMARK   25  A    between atoms: C_46  and  C_47
REMARK   26  A    between atoms: C_50  and  O_51
REMARK   27  A    between atoms: O_51  and  C_52
REMARK   28  A    between atoms: C_52  and  C_53
REMARK                            x       y       z     vdW  Elec       q    Type
REMARK                         _______ _______ _______ _____ _____    ______ ____
ROOT
ATOM      1  O   UNL     1      -9.825  13.412  68.058  0.00  0.00    -0.326 OA
ENDROOT
BRANCH   1   2
ATOM      2  C   UNL     1      -9.272  14.688  67.386  0.00  0.00    +0.266 C 
ATOM      3  C   UNL     1      -8.395  15.169  68.788  0.00  0.00    +0.201 C 
ATOM      4  C   UNL     1      -8.246  16.687  68.039  0.00  0.00    +0.177 C 
ATOM      5  C   UNL     1      -9.457  17.377  68.994  0.00  0.00    +0.174 C 
ATOM      6  C   UNL     1     -10.805  16.356  68.698  0.00  0.00    +0.177 C 
ATOM      7  O   UNL     1     -10.417  15.600  67.524  0.00  0.00    -0.326 OA
BRANCH   4   8
ATOM      8  O   UNL     1      -7.341  17.179  69.127  0.00  0.00    -0.348 OA
BRANCH   8   9
ATOM      9  C   UNL     1      -6.446  18.029  68.927  0.00  0.00    +0.175 C 
BRANCH   9  10
ATOM     10  C   UNL     1      -5.649  18.478  70.297  0.00  0.00    +0.181 C 
ATOM     11  O   UNL     1      -4.353  18.756  69.540  0.00  0.00    -0.220 OA
ATOM     12  C   UNL     1      -6.095  20.063  70.133  0.00  0.00    +0.038 C 
ENDBRANCH   9  10
ENDBRANCH   8   9
ENDBRANCH   4   8
BRANCH   5  13
ATOM     13  O   UNL     1      -9.905  18.337  67.933  0.00  0.00    -0.348 OA
BRANCH  13  14
ATOM     14  C   UNL     1      -9.812  19.637  68.505  0.00  0.00    +0.175 C 
BRANCH  14  15
ATOM     15  C   UNL     1      -9.682  20.634  67.194  0.00  0.00    +0.181 C 
ATOM     16  O   UNL     1      -8.308  20.100  66.826  0.00  0.00    -0.220 OA
ATOM     17  C   UNL     1     -10.465  19.554  66.212  0.00  0.00    +0.038 C 
ENDBRANCH  14  15
ENDBRANCH  13  14
ENDBRANCH   5  13
BRANCH   3  18
ATOM     18  O   UNL     1      -7.178  14.549  68.201  0.00  0.00    -0.346 OA
BRANCH  18  19
ATOM     19  C   UNL     1      -6.345  14.167  69.222  0.00  0.00    +0.175 C 
BRANCH  19  20
ATOM     20  C   UNL     1      -4.883  13.919  68.532  0.00  0.00    +0.181 C 
ATOM     21  O   UNL     1      -5.186  14.930  67.438  0.00  0.00    -0.220 OA
ATOM     22  C   UNL     1      -4.205  15.093  69.499  0.00  0.00    +0.038 C 
ENDBRANCH  19  20
ENDBRANCH  18  19
ENDBRANCH   3  18
BRANCH   6  23
ATOM     23  C   UNL     1     -10.410  15.310  69.924  0.00  0.00    +0.174 C 
BRANCH  23  24
ATOM     24  O   UNL     1     -11.724  15.128  70.404  0.00  0.00    -0.348 OA
BRANCH  24  25
ATOM     25  C   UNL     1     -11.946  15.950  71.452  0.00  0.00    +0.175 C 
BRANCH  25  26
ATOM     26  C   UNL     1     -12.760  15.167  72.648  0.00  0.00    +0.181 C 
ATOM     27  O   UNL     1     -14.035  15.959  72.365  0.00  0.00    -0.220 OA
ATOM     28  C   UNL     1     -13.313  13.900  71.736  0.00  0.00    +0.038 C 
ENDBRANCH  25  26
ENDBRANCH  24  25
ENDBRANCH  23  24
ENDBRANCH   6  23
ENDBRANCH   1   2
BRANCH   1  30
ATOM     29  C   UNL     1     -11.695  12.344  66.846  0.00  0.00    +0.177 C 
ATOM     30  C   UNL     1     -10.066  12.838  66.690  0.00  0.00    +0.177 C 
ATOM     31  C   UNL     1      -9.492  11.242  66.890  0.00  0.00    +0.177 C 
ATOM     32  C   UNL     1     -10.858  10.544  67.625  0.00  0.00    +0.201 C 
ATOM     33  C   UNL     1     -10.994  11.578  68.981  0.00  0.00    +0.266 C 
ATOM     34  O   UNL     1     -11.868  12.623  68.305  0.00  0.00    -0.326 OA
BRANCH  31  35
ATOM     35  O   UNL     1      -8.645  11.447  68.107  0.00  0.00    -0.348 OA
BRANCH  35  36
ATOM     36  C   UNL     1      -7.423  11.085  67.568  0.00  0.00    +0.175 C 
BRANCH  36  37
ATOM     37  C   UNL     1      -6.407  10.593  68.757  0.00  0.00    +0.181 C 
ATOM     38  O   UNL     1      -7.498  10.490  69.808  0.00  0.00    -0.220 OA
ATOM     39  C   UNL     1      -6.632   9.008  68.339  0.00  0.00    +0.038 C 
ENDBRANCH  36  37
ENDBRANCH  35  36
ENDBRANCH  31  35
BRANCH  32  40
ATOM     40  O   UNL     1     -10.022   9.521  68.330  0.00  0.00    -0.346 OA
BRANCH  40  41
ATOM     41  C   UNL     1     -10.344   8.281  67.954  0.00  0.00    +0.175 C 
BRANCH  41  42
ATOM     42  C   UNL     1      -9.868   7.158  69.042  0.00  0.00    +0.181 C 
ATOM     43  O   UNL     1     -11.162   6.370  68.893  0.00  0.00    -0.220 OA
ATOM     44  C   UNL     1      -9.117   6.247  67.890  0.00  0.00    +0.038 C 
ENDBRANCH  41  42
ENDBRANCH  40  41
ENDBRANCH  32  40
BRANCH  29  45
ATOM     45  C   UNL     1     -12.276  13.814  66.416  0.00  0.00    +0.174 C 
BRANCH  45  46
ATOM     46  O   UNL     1     -12.861  13.497  65.158  0.00  0.00    -0.348 OA
BRANCH  46  47
ATOM     47  C   UNL     1     -12.694  12.161  64.825  0.00  0.00    +0.175 C 
BRANCH  47  49
ATOM     48  C   UNL     1     -10.883  12.068  63.299  0.00  0.00    +0.038 C 
ATOM     49  C   UNL     1     -12.524  12.144  63.187  0.00  0.00    +0.181 C 
ATOM     50  O   UNL     1     -12.505  13.657  63.118  0.00  0.00    -0.220 OA
ENDBRANCH  47  49
ENDBRANCH  46  47
ENDBRANCH  45  46
ENDBRANCH  29  45
BRANCH  33  51
ATOM     51  O   UNL     1     -12.226  10.780  69.407  0.00  0.00    -0.326 OA
BRANCH  51  52
ATOM     52  C   UNL     1     -12.152  10.581  70.751  0.00  0.00    +0.178 C 
BRANCH  52  53
ATOM     53  C   UNL     1     -12.353   8.990  71.061  0.00  0.00    +0.182 C 
ATOM     54  O   UNL     1     -11.171   8.999  72.018  0.00  0.00    -0.220 OA
ATOM     55  C   UNL     1     -13.399   9.263  72.309  0.00  0.00    +0.038 C 
ENDBRANCH  52  53
ENDBRANCH  51  52
ENDBRANCH  33  51
ENDBRANCH   1  30
TORSDOF 28
ENDMDL
MODEL 2
REMARK VINA RESULT:      -6.1      0.908      1.100
REMARK  Name = 
REMARK  28 active torsions:
REMARK  status: ('A' for Active; 'I' for Inactive)
REMARK    1  A    between atoms: C_2  and  C_4
REMARK    2  A    between atoms: C_4  and  O_5
REMARK    3  A    between atoms: O_5  and  C_6
REMARK    4  A    between atoms: C_6  and  C_7
REMARK    5  A    between atoms: C_9  and  O_10
REMARK    6  A    between atoms: O_10  and  C_11
REMARK    7  A    between atoms: C_11  and  C_12
REMARK    8  A    between atoms: C_15  and  O_16
REMARK    9  A    between atoms: O_16  and  C_17
REMARK   10  A    between atoms: C_17  and  C_18
REMARK   11  A    between atoms: C_21  and  O_22
REMARK   12  A    between atoms: O_22  and  C_23
REMARK   13  A    between atoms: C_23  and  C_24
REMARK   14  A    between atoms: C_27  and  O_28
REMARK   15  A    between atoms: O_28  and  C_29
REMARK   16  A    between atoms: C_31  and  C_32
REMARK   17  A    between atoms: C_32  and  O_33
REMARK   18  A    between atoms: O_33  and  C_34
REMARK   19  A    between atoms: C_34  and  C_35
REMARK   20  A    between atoms: C_38  and  O_39
REMARK   21  A    between atoms: O_39  and  C_40
REMARK   22  A    between atoms: C_40  and  C_41
REMARK   23  A    between atoms: C_44  and  O_45
REMARK   24  A    between atoms: O_45  and  C_46
REMARK   25  A    between atoms: C_46  and  C_47
REMARK   26  A    between atoms: C_50  and  O_51
REMARK   27  A    between atoms: O_51  and  C_52
REMARK   28  A    between atoms: C_52  and  C_53
REMARK                            x       y       z     vdW  Elec       q    Type
REMARK                         _______ _______ _______ _____ _____    ______ ____
ROOT
ATOM      1  O   UNL     1      -9.789  13.297  68.100  0.00  0.00    -0.326 OA
ENDROOT
BRANCH   1   2
ATOM      2  C   UNL     1      -9.034  14.495  67.482  0.00  0.00    +0.266 C 
ATOM      3  C   UNL     1      -8.316  14.946  68.981  0.00  0.00    +0.201 C 
ATOM      4  C   UNL     1      -7.926  16.417  68.226  0.00  0.00    +0.177 C 
ATOM      5  C   UNL     1      -9.186  17.245  68.987  0.00  0.00    +0.174 C 
ATOM      6  C   UNL     1     -10.570  16.338  68.531  0.00  0.00    +0.177 C 
ATOM      7  O   UNL     1     -10.098  15.509  67.440  0.00  0.00    -0.326 OA
BRANCH   4   8
ATOM      8  O   UNL     1      -7.136  16.865  69.416  0.00  0.00    -0.348 OA
BRANCH   8   9
ATOM      9  C   UNL     1      -6.303  17.796  69.361  0.00  0.00    +0.175 C 
BRANCH   9  10
ATOM     10  C   UNL     1      -5.685  18.037  67.853  0.00  0.00    +0.181 C 
ATOM     11  O   UNL     1      -5.536  19.539  68.073  0.00  0.00    -0.220 OA
ATOM     12  C   UNL     1      -4.130  17.798  68.365  0.00  0.00    +0.038 C 
ENDBRANCH   9  10
ENDBRANCH   8   9
ENDBRANCH   4   8
BRANCH   5  13
ATOM     13  O   UNL     1      -9.395  18.203  67.852  0.00  0.00    -0.348 OA
BRANCH  13  14
ATOM     14  C   UNL     1      -9.548  19.491  68.439  0.00  0.00    +0.175 C 
BRANCH  14  15
ATOM     15  C   UNL     1      -9.686  20.500  67.138  0.00  0.00    +0.181 C 
ATOM     16  O   UNL     1      -8.377  20.026  66.532  0.00  0.00    -0.220 OA
ATOM     17  C   UNL     1     -10.583  19.394  66.292  0.00  0.00    +0.038 C 
ENDBRANCH  14  15
ENDBRANCH  13  14
ENDBRANCH   5  13
BRANCH   3  18
ATOM     18  O   UNL     1      -7.092  14.201  68.583  0.00  0.00    -0.346 OA
BRANCH  18  19
ATOM     19  C   UNL     1      -6.523  13.659  69.708  0.00  0.00    +0.175 C 
BRANCH  19  20
ATOM     20  C   UNL     1      -4.946  13.431  69.341  0.00  0.00    +0.181 C 
ATOM     21  O   UNL     1      -5.046  14.379  68.156  0.00  0.00    -0.220 OA
ATOM     22  C   UNL     1      -4.508  14.671  70.361  0.00  0.00    +0.038 C 
ENDBRANCH  19  20
ENDBRANCH  18  19
ENDBRANCH   3  18
BRANCH   6  23
ATOM     23  C   UNL     1     -10.445  15.305  69.824  0.00  0.00    +0.174 C 
BRANCH  23  24
ATOM     24  O   UNL     1     -11.798  15.377  70.214  0.00  0.00    -0.348 OA
BRANCH  24  25
ATOM     25  C   UNL     1     -11.999  14.609  71.306  0.00  0.00    +0.175 C 
BRANCH  25  26
ATOM     26  C   UNL     1     -13.268  15.170  72.190  0.00  0.00    +0.181 C 
ATOM     27  O   UNL     1     -13.605  13.765  72.688  0.00  0.00    -0.220 OA
ATOM     28  C   UNL     1     -12.433  15.492  73.583  0.00  0.00    +0.038 C 
ENDBRANCH  25  26
ENDBRANCH  24  25
ENDBRANCH  23  24
ENDBRANCH   6  23
ENDBRANCH   1   2
BRANCH   1  30
ATOM     29  C   UNL     1     -11.690  12.359  66.832  0.00  0.00    +0.177 C 
ATOM     30  C   UNL     1     -10.038  12.782  66.711  0.00  0.00    +0.177 C 
ATOM     31  C   UNL     1      -9.541  11.156  66.862  0.00  0.00    +0.177 C 
ATOM     32  C   UNL     1     -10.946  10.497  67.558  0.00  0.00    +0.201 C 
ATOM     33  C   UNL     1     -11.052  11.489  68.947  0.00  0.00    +0.266 C 
ATOM     34  O   UNL     1     -11.869  12.595  68.298  0.00  0.00    -0.326 OA
BRANCH  31  35
ATOM     35  O   UNL     1      -8.701  11.280  68.095  0.00  0.00    -0.348 OA
BRANCH  35  36
ATOM     36  C   UNL     1      -7.480  10.929  67.546  0.00  0.00    +0.175 C 
BRANCH  36  37
ATOM     37  C   UNL     1      -6.713   9.856  68.520  0.00  0.00    +0.181 C 
ATOM     38  O   UNL     1      -6.879   8.689  67.563  0.00  0.00    -0.220 OA
ATOM     39  C   UNL     1      -5.252  10.232  67.838  0.00  0.00    +0.038 C 
ENDBRANCH  36  37
ENDBRANCH  35  36
ENDBRANCH  31  35
BRANCH  32  40
ATOM     40  O   UNL     1     -10.167   9.413  68.236  0.00  0.00    -0.346 OA
BRANCH  40  41
ATOM     41  C   UNL     1     -10.543   8.202  67.817  0.00  0.00    +0.175 C 
BRANCH  41  42
ATOM     42  C   UNL     1      -9.626   7.010  68.457  0.00  0.00    +0.181 C 
ATOM     43  O   UNL     1      -9.385   7.795  69.740  0.00  0.00    -0.220 OA
ATOM     44  C   UNL     1     -10.935   6.246  69.108  0.00  0.00    +0.038 C 
ENDBRANCH  41  42
ENDBRANCH  40  41
ENDBRANCH  32  40
BRANCH  29  45
ATOM     45  C   UNL     1     -12.199  13.868  66.447  0.00  0.00    +0.174 C 
BRANCH  45  46
ATOM     46  O   UNL     1     -12.795  13.618  65.178  0.00  0.00    -0.348 OA
BRANCH  46  47
ATOM     47  C   UNL     1     -12.740  12.276  64.830  0.00  0.00    +0.175 C 
BRANCH  47  49
ATOM     48  C   UNL     1     -10.915  12.151  63.322  0.00  0.00    +0.038 C 
ATOM     49  C   UNL     1     -12.552  12.265  63.194  0.00  0.00    +0.181 C 
ATOM     50  O   UNL     1     -12.499  13.778  63.133  0.00  0.00    -0.220 OA
ENDBRANCH  47  49
ENDBRANCH  46  47
ENDBRANCH  45  46
ENDBRANCH  29  45
BRANCH  33  51
ATOM     51  O   UNL     1     -12.325  10.734  69.331  0.00  0.00    -0.326 OA
BRANCH  51  52
ATOM     52  C   UNL     1     -12.338  10.598  70.685  0.00  0.00    +0.178 C 
BRANCH  52  53
ATOM     53  C   UNL     1     -12.452   9.011  71.054  0.00  0.00    +0.182 C 
ATOM     54  O   UNL     1     -11.295   9.127  72.033  0.00  0.00    -0.220 OA
ATOM     55  C   UNL     1     -13.541   9.270  72.269  0.00  0.00    +0.038 C 
ENDBRANCH  52  53
ENDBRANCH  51  52
ENDBRANCH  33  51
ENDBRANCH   1  30
TORSDOF 28
ENDMDL
MODEL 3
REMARK VINA RESULT:      -5.9      1.513      1.930
REMARK  Name = 
REMARK  28 active torsions:
REMARK  status: ('A' for Active; 'I' for Inactive)
REMARK    1  A    between atoms: C_2  and  C_4
REMARK    2  A    between atoms: C_4  and  O_5
REMARK    3  A    between atoms: O_5  and  C_6
REMARK    4  A    between atoms: C_6  and  C_7
REMARK    5  A    between atoms: C_9  and  O_10
REMARK    6  A    between atoms: O_10  and  C_11
REMARK    7  A    between atoms: C_11  and  C_12
REMARK    8  A    between atoms: C_15  and  O_16
REMARK    9  A    between atoms: O_16  and  C_17
REMARK   10  A    between atoms: C_17  and  C_18
REMARK   11  A    between atoms: C_21  and  O_22
REMARK   12  A    between atoms: O_22  and  C_23
REMARK   13  A    between atoms: C_23  and  C_24
REMARK   14  A    between atoms: C_27  and  O_28
REMARK   15  A    between atoms: O_28  and  C_29
REMARK   16  A    between atoms: C_31  and  C_32
REMARK   17  A    between atoms: C_32  and  O_33
REMARK   18  A    between atoms: O_33  and  C_34
REMARK   19  A    between atoms: C_34  and  C_35
REMARK   20  A    between atoms: C_38  and  O_39
REMARK   21  A    between atoms: O_39  and  C_40
REMARK   22  A    between atoms: C_40  and  C_41
REMARK   23  A    between atoms: C_44  and  O_45
REMARK   24  A    between atoms: O_45  and  C_46
REMARK   25  A    between atoms: C_46  and  C_47
REMARK   26  A    between atoms: C_50  and  O_51
REMARK   27  A    between atoms: O_51  and  C_52
REMARK   28  A    between atoms: C_52  and  C_53
REMARK                            x       y       z     vdW  Elec       q    Type
REMARK                         _______ _______ _______ _____ _____    ______ ____
ROOT
ATOM      1  O   UNL     1      -8.838  12.110  68.019  0.00  0.00    -0.326 OA
ENDROOT
BRANCH   1   2
ATOM      2  C   UNL     1      -8.008  13.189  67.288  0.00  0.00    +0.266 C 
ATOM      3  C   UNL     1      -7.700  14.075  68.732  0.00  0.00    +0.201 C 
ATOM      4  C   UNL     1      -7.204  15.344  67.717  0.00  0.00    +0.177 C 
ATOM      5  C   UNL     1      -8.649  16.195  67.924  0.00  0.00    +0.174 C 
ATOM      6  C   UNL     1      -9.836  15.059  67.430  0.00  0.00    +0.177 C 
ATOM      7  O   UNL     1      -9.074  14.039  66.737  0.00  0.00    -0.326 OA
BRANCH   4   8
ATOM      8  O   UNL     1      -6.751  16.158  68.889  0.00  0.00    -0.348 OA
BRANCH   8   9
ATOM      9  C   UNL     1      -5.880  17.050  68.795  0.00  0.00    +0.175 C 
BRANCH   9  10
ATOM     10  C   UNL     1      -5.664  17.908  70.185  0.00  0.00    +0.181 C 
ATOM     11  O   UNL     1      -4.155  18.001  69.981  0.00  0.00    -0.220 OA
ATOM     12  C   UNL     1      -5.867  19.359  69.415  0.00  0.00    +0.038 C 
ENDBRANCH   9  10
ENDBRANCH   8   9
ENDBRANCH   4   8
BRANCH   5  13
ATOM     13  O   UNL     1      -8.616  16.811  66.557  0.00  0.00    -0.348 OA
BRANCH  13  14
ATOM     14  C   UNL     1      -8.851  18.203  66.740  0.00  0.00    +0.175 C 
BRANCH  14  15
ATOM     15  C   UNL     1     -10.408  18.408  66.227  0.00  0.00    +0.181 C 
ATOM     16  O   UNL     1     -10.935  18.572  67.642  0.00  0.00    -0.220 OA
ATOM     17  C   UNL     1     -10.194  20.038  66.021  0.00  0.00    +0.038 C 
ENDBRANCH  14  15
ENDBRANCH  13  14
ENDBRANCH   5  13
BRANCH   3  18
ATOM     18  O   UNL     1      -6.385  13.391  68.834  0.00  0.00    -0.346 OA
BRANCH  18  19
ATOM     19  C   UNL     1      -6.031  13.316  70.158  0.00  0.00    +0.175 C 
BRANCH  19  20
ATOM     20  C   UNL     1      -4.408  13.114  70.172  0.00  0.00    +0.181 C 
ATOM     21  O   UNL     1      -4.268  13.845  68.846  0.00  0.00    -0.220 OA
ATOM     22  C   UNL     1      -4.219  14.528  71.029  0.00  0.00    +0.038 C 
ENDBRANCH  19  20
ENDBRANCH  18  19
ENDBRANCH   3  18
BRANCH   6  23
ATOM     23  C   UNL     1      -9.985  14.401  68.947  0.00  0.00    +0.174 C 
BRANCH  23  24
ATOM     24  O   UNL     1     -11.376  14.174  68.883  0.00  0.00    -0.348 OA
BRANCH  24  25
ATOM     25  C   UNL     1     -11.905  14.232  70.124  0.00  0.00    +0.175 C 
BRANCH  25  26
ATOM     26  C   UNL     1     -12.013  15.791  70.640  0.00  0.00    +0.181 C 
ATOM     27  O   UNL     1     -13.499  15.633  70.956  0.00  0.00    -0.220 OA
ATOM     28  C   UNL     1     -11.620  15.518  72.225  0.00  0.00    +0.038 C 
ENDBRANCH  25  26
ENDBRANCH  24  25
ENDBRANCH  23  24
ENDBRANCH   6  23
ENDBRANCH   1   2
BRANCH   1  30
ATOM     29  C   UNL     1     -10.276  10.675  66.613  0.00  0.00    +0.177 C 
ATOM     30  C   UNL     1      -8.668  11.219  66.820  0.00  0.00    +0.177 C 
ATOM     31  C   UNL     1      -8.196   9.753  67.557  0.00  0.00    +0.177 C 
ATOM     32  C   UNL     1      -9.725   9.162  68.012  0.00  0.00    +0.201 C 
ATOM     33  C   UNL     1     -10.245  10.473  68.979  0.00  0.00    +0.266 C 
ATOM     34  O   UNL     1     -10.870  11.275  67.847  0.00  0.00    -0.326 OA
BRANCH  31  35
ATOM     35  O   UNL     1      -7.745  10.288  68.880  0.00  0.00    -0.348 OA
BRANCH  35  36
ATOM     36  C   UNL     1      -6.430   9.858  68.837  0.00  0.00    +0.175 C 
BRANCH  36  37
ATOM     37  C   UNL     1      -5.822   9.751  70.355  0.00  0.00    +0.181 C 
ATOM     38  O   UNL     1      -7.170   9.918  71.033  0.00  0.00    -0.220 OA
ATOM     39  C   UNL     1      -6.007   8.106  70.348  0.00  0.00    +0.038 C 
ENDBRANCH  36  37
ENDBRANCH  35  36
ENDBRANCH  31  35
BRANCH  32  40
ATOM     40  O   UNL     1      -9.145   8.386  69.153  0.00  0.00    -0.346 OA
BRANCH  40  41
ATOM     41  C   UNL     1      -9.364   7.076  69.017  0.00  0.00    +0.175 C 
BRANCH  41  42
ATOM     42  C   UNL     1      -9.671   6.346  70.447  0.00  0.00    +0.181 C 
ATOM     43  O   UNL     1      -9.756   7.676  71.183  0.00  0.00    -0.220 OA
ATOM     44  C   UNL     1     -11.298   6.329  70.178  0.00  0.00    +0.038 C 
ENDBRANCH  41  42
ENDBRANCH  40  41
ENDBRANCH  32  40
BRANCH  29  45
ATOM     45  C   UNL     1     -10.690  11.965  65.692  0.00  0.00    +0.174 C 
BRANCH  45  46
ATOM     46  O   UNL     1     -12.024  12.178  66.141  0.00  0.00    -0.348 OA
BRANCH  46  47
ATOM     47  C   UNL     1     -12.616  13.268  65.521  0.00  0.00    +0.175 C 
BRANCH  47  49
ATOM     48  C   UNL     1     -11.898  15.280  64.494  0.00  0.00    +0.038 C 
ATOM     49  C   UNL     1     -11.594  13.674  64.296  0.00  0.00    +0.181 C 
ATOM     50  O   UNL     1     -12.691  13.536  63.260  0.00  0.00    -0.220 OA
ENDBRANCH  47  49
ENDBRANCH  46  47
ENDBRANCH  45  46
ENDBRANCH  29  45
BRANCH  33  51
ATOM     51  O   UNL     1     -11.556   9.721  69.210  0.00  0.00    -0.326 OA
BRANCH  51  52
ATOM     52  C   UNL     1     -12.385  10.534  69.919  0.00  0.00    +0.178 C 
BRANCH  52  53
ATOM     53  C   UNL     1     -12.229  10.189  71.508  0.00  0.00    +0.182 C 
ATOM     54  O   UNL     1     -13.139  11.350  71.877  0.00  0.00    -0.220 OA
ATOM     55  C   UNL     1     -13.512   9.149  71.510  0.00  0.00    +0.038 C 
ENDBRANCH  52  53
ENDBRANCH  51  52
ENDBRANCH  33  51
ENDBRANCH   1  30
TORSDOF 28
ENDMDL
MODEL 4
REMARK VINA RESULT:      -5.6      1.823      3.319
REMARK  Name = 
REMARK  28 active torsions:
REMARK  status: ('A' for Active; 'I' for Inactive)
REMARK    1  A    between atoms: C_2  and  C_4
REMARK    2  A    between atoms: C_4  and  O_5
REMARK    3  A    between atoms: O_5  and  C_6
REMARK    4  A    between atoms: C_6  and  C_7
REMARK    5  A    between atoms: C_9  and  O_10
REMARK    6  A    between atoms: O_10  and  C_11
REMARK    7  A    between atoms: C_11  and  C_12
REMARK    8  A    between atoms: C_15  and  O_16
REMARK    9  A    between atoms: O_16  and  C_17
REMARK   10  A    between atoms: C_17  and  C_18
REMARK   11  A    between atoms: C_21  and  O_22
REMARK   12  A    between atoms: O_22  and  C_23
REMARK   13  A    between atoms: C_23  and  C_24
REMARK   14  A    between atoms: C_27  and  O_28
REMARK   15  A    between atoms: O_28  and  C_29
REMARK   16  A    between atoms: C_31  and  C_32
REMARK   17  A    between atoms: C_32  and  O_33
REMARK   18  A    between atoms: O_33  and  C_34
REMARK   19  A    between atoms: C_34  and  C_35
REMARK   20  A    between atoms: C_38  and  O_39
REMARK   21  A    between atoms: O_39  and  C_40
REMARK   22  A    between atoms: C_40  and  C_41
REMARK   23  A    between atoms: C_44  and  O_45
REMARK   24  A    between atoms: O_45  and  C_46
REMARK   25  A    between atoms: C_46  and  C_47
REMARK   26  A    between atoms: C_50  and  O_51
REMARK   27  A    between atoms: O_51  and  C_52
REMARK   28  A    between atoms: C_52  and  C_53
REMARK                            x       y       z     vdW  Elec       q    Type
REMARK                         _______ _______ _______ _____ _____    ______ ____
ROOT
ATOM      1  O   UNL     1      -8.843  13.984  68.111  0.00  0.00    -0.326 OA
ENDROOT
BRANCH   1   2
ATOM      2  C   UNL     1      -7.577  14.431  67.346  0.00  0.00    +0.266 C 
ATOM      3  C   UNL     1      -6.993  15.378  68.660  0.00  0.00    +0.201 C 
ATOM      4  C   UNL     1      -5.923  16.075  67.538  0.00  0.00    +0.177 C 
ATOM      5  C   UNL     1      -6.846  17.483  67.397  0.00  0.00    +0.174 C 
ATOM      6  C   UNL     1      -8.384  16.886  66.923  0.00  0.00    +0.177 C 
ATOM      7  O   UNL     1      -8.117  15.520  66.518  0.00  0.00    -0.326 OA
BRANCH   4   8
ATOM      8  O   UNL     1      -5.225  16.841  68.620  0.00  0.00    -0.348 OA
BRANCH   8   9
ATOM      9  C   UNL     1      -3.992  17.045  68.613  0.00  0.00    +0.175 C 
BRANCH   9  10
ATOM     10  C   UNL     1      -3.497  18.119  69.760  0.00  0.00    +0.181 C 
ATOM     11  O   UNL     1      -3.712  19.316  68.838  0.00  0.00    -0.220 OA
ATOM     12  C   UNL     1      -5.026  18.299  70.366  0.00  0.00    +0.038 C 
ENDBRANCH   9  10
ENDBRANCH   8   9
ENDBRANCH   4   8
BRANCH   5  13
ATOM     13  O   UNL     1      -6.460  17.729  65.969  0.00  0.00    -0.348 OA
BRANCH  13  14
ATOM     14  C   UNL     1      -5.655  18.902  65.968  0.00  0.00    +0.175 C 
BRANCH  14  15
ATOM     15  C   UNL     1      -6.752  20.131  65.846  0.00  0.00    +0.181 C 
ATOM     16  O   UNL     1      -5.810  21.140  66.480  0.00  0.00    -0.220 OA
ATOM     17  C   UNL     1      -6.262  20.504  64.308  0.00  0.00    +0.038 C 
ENDBRANCH  14  15
ENDBRANCH  13  14
ENDBRANCH   5  13
BRANCH   3  18
ATOM     18  O   UNL     1      -6.129  14.236  69.059  0.00  0.00    -0.346 OA
BRANCH  18  19
ATOM     19  C   UNL     1      -6.049  14.203  70.428  0.00  0.00    +0.175 C 
BRANCH  19  20
ATOM     20  C   UNL     1      -4.457  14.068  70.776  0.00  0.00    +0.181 C 
ATOM     21  O   UNL     1      -4.542  15.207  71.781  0.00  0.00    -0.220 OA
ATOM     22  C   UNL     1      -4.790  12.938  71.952  0.00  0.00    +0.038 C 
ENDBRANCH  19  20
ENDBRANCH  18  19
ENDBRANCH   3  18
BRANCH   6  23
ATOM     23  C   UNL     1      -8.900  16.684  68.487  0.00  0.00    +0.174 C 
BRANCH  23  24
ATOM     24  O   UNL     1     -10.114  17.388  68.344  0.00  0.00    -0.348 OA
BRANCH  24  25
ATOM     25  C   UNL     1     -10.174  17.950  67.119  0.00  0.00    +0.175 C 
BRANCH  25  26
ATOM     26  C   UNL     1     -10.902  19.424  67.186  0.00  0.00    +0.181 C 
ATOM     27  O   UNL     1      -9.666  20.058  67.822  0.00  0.00    -0.220 OA
ATOM     28  C   UNL     1     -10.438  19.960  65.689  0.00  0.00    +0.038 C 
ENDBRANCH  25  26
ENDBRANCH  24  25
ENDBRANCH  23  24
ENDBRANCH   6  23
ENDBRANCH   1   2
BRANCH   1  30
ATOM     29  C   UNL     1     -10.902  13.206  66.990  0.00  0.00    +0.177 C 
ATOM     30  C   UNL     1      -9.196  13.106  66.944  0.00  0.00    +0.177 C 
ATOM     31  C   UNL     1      -9.199  11.563  67.675  0.00  0.00    +0.177 C 
ATOM     32  C   UNL     1     -10.752  11.584  68.367  0.00  0.00    +0.201 C 
ATOM     33  C   UNL     1     -10.599  12.986  69.335  0.00  0.00    +0.266 C 
ATOM     34  O   UNL     1     -11.041  13.973  68.266  0.00  0.00    -0.326 OA
BRANCH  31  35
ATOM     35  O   UNL     1      -8.391  11.878  68.895  0.00  0.00    -0.348 OA
BRANCH  35  36
ATOM     36  C   UNL     1      -7.311  11.049  68.645  0.00  0.00    +0.175 C 
BRANCH  36  37
ATOM     37  C   UNL     1      -6.757  10.407  70.047  0.00  0.00    +0.181 C 
ATOM     38  O   UNL     1      -7.056   8.974  69.647  0.00  0.00    -0.220 OA
ATOM     39  C   UNL     1      -5.229  10.283  69.425  0.00  0.00    +0.038 C 
ENDBRANCH  36  37
ENDBRANCH  35  36
ENDBRANCH  31  35
BRANCH  32  40
ATOM     40  O   UNL     1     -10.341  10.636  69.451  0.00  0.00    -0.346 OA
BRANCH  40  41
ATOM     41  C   UNL     1     -10.927   9.445  69.310  0.00  0.00    +0.175 C 
BRANCH  41  42
ATOM     42  C   UNL     1     -11.037   8.635  70.726  0.00  0.00    +0.181 C 
ATOM     43  O   UNL     1      -9.855   9.387  71.323  0.00  0.00    -0.220 OA
ATOM     44  C   UNL     1     -12.111   9.720  71.353  0.00  0.00    +0.038 C 
ENDBRANCH  41  42
ENDBRANCH  40  41
ENDBRANCH  32  40
BRANCH  29  45
ATOM     45  C   UNL     1     -10.938  14.565  66.077  0.00  0.00    +0.174 C 
BRANCH  45  46
ATOM     46  O   UNL     1     -11.819  14.149  65.040  0.00  0.00    -0.348 OA
BRANCH  46  47
ATOM     47  C   UNL     1     -12.279  12.855  65.231  0.00  0.00    +0.175 C 
BRANCH  47  49
ATOM     48  C   UNL     1     -10.922  12.068  63.453  0.00  0.00    +0.038 C 
ATOM     49  C   UNL     1     -12.536  12.262  63.716  0.00  0.00    +0.181 C 
ATOM     50  O   UNL     1     -12.524  13.651  63.110  0.00  0.00    -0.220 OA
ENDBRANCH  47  49
ENDBRANCH  46  47
ENDBRANCH  45  46
ENDBRANCH  29  45
BRANCH  33  51
ATOM     51  O   UNL     1     -12.046  12.777  69.783  0.00  0.00    -0.326 OA
BRANCH  51  52
ATOM     52  C   UNL     1     -12.497  13.953  70.297  0.00  0.00    +0.178 C 
BRANCH  52  53
ATOM     53  C   UNL     1     -13.136  13.671  71.774  0.00  0.00    +0.182 C 
ATOM     54  O   UNL     1     -12.202  14.693  72.403  0.00  0.00    -0.220 OA
ATOM     55  C   UNL     1     -14.312  14.817  71.595  0.00  0.00    +0.038 C 
ENDBRANCH  52  53
ENDBRANCH  51  52
ENDBRANCH  33  51
ENDBRANCH   1  30
TORSDOF 28
ENDMDL
MODEL 5
REMARK VINA RESULT:      -5.6      1.758      2.084
REMARK  Name = 
REMARK  28 active torsions:
REMARK  status: ('A' for Active; 'I' for Inactive)
REMARK    1  A    between atoms: C_2  and  C_4
REMARK    2  A    between atoms: C_4  and  O_5
REMARK    3  A    between atoms: O_5  and  C_6
REMARK    4  A    between atoms: C_6  and  C_7
REMARK    5  A    between atoms: C_9  and  O_10
REMARK    6  A    between atoms: O_10  and  C_11
REMARK    7  A    between atoms: C_11  and  C_12
REMARK    8  A    between atoms: C_15  and  O_16
REMARK    9  A    between atoms: O_16  and  C_17
REMARK   10  A    between atoms: C_17  and  C_18
REMARK   11  A    between atoms: C_21  and  O_22
REMARK   12  A    between atoms: O_22  and  C_23
REMARK   13  A    between atoms: C_23  and  C_24
REMARK   14  A    between atoms: C_27  and  O_28
REMARK   15  A    between atoms: O_28  and  C_29
REMARK   16  A    between atoms: C_31  and  C_32
REMARK   17  A    between atoms: C_32  and  O_33
REMARK   18  A    between atoms: O_33  and  C_34
REMARK   19  A    between atoms: C_34  and  C_35
REMARK   20  A    between atoms: C_38  and  O_39
REMARK   21  A    between atoms: O_39  and  C_40
REMARK   22  A    between atoms: C_40  and  C_41
REMARK   23  A    between atoms: C_44  and  O_45
REMARK   24  A    between atoms: O_45  and  C_46
REMARK   25  A    between atoms: C_46  and  C_47
REMARK   26  A    between atoms: C_50  and  O_51
REMARK   27  A    between atoms: O_51  and  C_52
REMARK   28  A    between atoms: C_52  and  C_53
REMARK                            x       y       z     vdW  Elec       q    Type
REMARK                         _______ _______ _______ _____ _____    ______ ____
ROOT
ATOM      1  O   UNL     1      -8.308  13.337  68.317  0.00  0.00    -0.326 OA
ENDROOT
BRANCH   1   2
ATOM      2  C   UNL     1      -7.361  14.442  67.798  0.00  0.00    +0.266 C 
ATOM      3  C   UNL     1      -7.155  15.140  69.358  0.00  0.00    +0.201 C 
ATOM      4  C   UNL     1      -6.503  16.485  68.550  0.00  0.00    +0.177 C 
ATOM      5  C   UNL     1      -7.920  17.389  68.723  0.00  0.00    +0.174 C 
ATOM      6  C   UNL     1      -9.105  16.386  67.991  0.00  0.00    +0.177 C 
ATOM      7  O   UNL     1      -8.327  15.409  67.255  0.00  0.00    -0.326 OA
BRANCH   4   8
ATOM      8  O   UNL     1      -6.130  17.134  69.847  0.00  0.00    -0.348 OA
BRANCH   8   9
ATOM      9  C   UNL     1      -5.179  17.940  69.948  0.00  0.00    +0.175 C 
BRANCH   9  10
ATOM     10  C   UNL     1      -5.582  19.336  70.726  0.00  0.00    +0.181 C 
ATOM     11  O   UNL     1      -4.867  18.916  72.007  0.00  0.00    -0.220 OA
ATOM     12  C   UNL     1      -4.216  20.113  70.207  0.00  0.00    +0.038 C 
ENDBRANCH   9  10
ENDBRANCH   8   9
ENDBRANCH   4   8
BRANCH   5  13
ATOM     13  O   UNL     1      -7.725  18.152  67.447  0.00  0.00    -0.348 OA
BRANCH  13  14
ATOM     14  C   UNL     1      -7.733  19.531  67.800  0.00  0.00    +0.175 C 
BRANCH  14  15
ATOM     15  C   UNL     1      -7.138  20.284  66.455  0.00  0.00    +0.181 C 
ATOM     16  O   UNL     1      -6.693  21.505  67.241  0.00  0.00    -0.220 OA
ATOM     17  C   UNL     1      -5.667  19.537  66.609  0.00  0.00    +0.038 C 
ENDBRANCH  14  15
ENDBRANCH  13  14
ENDBRANCH   5  13
BRANCH   3  18
ATOM     18  O   UNL     1      -5.889  14.374  69.499  0.00  0.00    -0.346 OA
BRANCH  18  19
ATOM     19  C   UNL     1      -5.822  13.868  70.773  0.00  0.00    +0.175 C 
BRANCH  19  20
ATOM     20  C   UNL     1      -4.248  13.970  71.208  0.00  0.00    +0.181 C 
ATOM     21  O   UNL     1      -4.522  15.207  72.049  0.00  0.00    -0.220 OA
ATOM     22  C   UNL     1      -4.521  12.965  72.506  0.00  0.00    +0.038 C 
ENDBRANCH  19  20
ENDBRANCH  18  19
ENDBRANCH   3  18
BRANCH   6  23
ATOM     23  C   UNL     1      -9.432  15.571  69.399  0.00  0.00    +0.174 C 
BRANCH  23  24
ATOM     24  O   UNL     1     -10.837  15.591  69.270  0.00  0.00    -0.348 OA
BRANCH  24  25
ATOM     25  C   UNL     1     -11.381  16.259  70.309  0.00  0.00    +0.175 C 
BRANCH  25  26
ATOM     26  C   UNL     1     -11.807  15.221  71.513  0.00  0.00    +0.181 C 
ATOM     27  O   UNL     1     -11.950  16.366  72.515  0.00  0.00    -0.220 OA
ATOM     28  C   UNL     1     -13.438  15.227  71.233  0.00  0.00    +0.038 C 
ENDBRANCH  25  26
ENDBRANCH  24  25
ENDBRANCH  23  24
ENDBRANCH   6  23
ENDBRANCH   1   2
BRANCH   1  30
ATOM     29  C   UNL     1      -9.899  12.120  66.871  0.00  0.00    +0.177 C 
ATOM     30  C   UNL     1      -8.306  12.737  66.939  0.00  0.00    +0.177 C 
ATOM     31  C   UNL     1      -7.649  11.192  67.246  0.00  0.00    +0.177 C 
ATOM     32  C   UNL     1      -9.049  10.395  67.792  0.00  0.00    +0.201 C 
ATOM     33  C   UNL     1      -9.455  11.424  69.097  0.00  0.00    +0.266 C 
ATOM     34  O   UNL     1     -10.299  12.394  68.286  0.00  0.00    -0.326 OA
BRANCH  31  35
ATOM     35  O   UNL     1      -7.002  11.469  68.567  0.00  0.00    -0.348 OA
BRANCH  35  36
ATOM     36  C   UNL     1      -5.719  11.054  68.258  0.00  0.00    +0.175 C 
BRANCH  36  37
ATOM     37  C   UNL     1      -5.398  11.344  66.677  0.00  0.00    +0.181 C 
ATOM     38  O   UNL     1      -4.540  12.565  66.953  0.00  0.00    -0.220 OA
ATOM     39  C   UNL     1      -4.063  10.368  66.734  0.00  0.00    +0.038 C 
ENDBRANCH  36  37
ENDBRANCH  35  36
ENDBRANCH  31  35
BRANCH  32  40
ATOM     40  O   UNL     1      -8.247   9.444  68.626  0.00  0.00    -0.346 OA
BRANCH  40  41
ATOM     41  C   UNL     1      -8.500   8.174  68.301  0.00  0.00    +0.175 C 
BRANCH  41  42
ATOM     42  C   UNL     1      -8.754   7.235  69.615  0.00  0.00    +0.181 C 
ATOM     43  O   UNL     1     -10.266   7.293  69.445  0.00  0.00    -0.220 OA
ATOM     44  C   UNL     1      -8.655   5.843  68.735  0.00  0.00    +0.038 C 
ENDBRANCH  41  42
ENDBRANCH  40  41
ENDBRANCH  32  40
BRANCH  29  45
ATOM     45  C   UNL     1     -10.523  13.538  66.337  0.00  0.00    +0.174 C 
BRANCH  45  46
ATOM     46  O   UNL     1     -11.018  13.134  65.066  0.00  0.00    -0.348 OA
BRANCH  46  47
ATOM     47  C   UNL     1     -12.295  12.599  65.148  0.00  0.00    +0.175 C 
BRANCH  47  49
ATOM     48  C   UNL     1     -11.087  11.767  63.285  0.00  0.00    +0.038 C 
ATOM     49  C   UNL     1     -12.661  12.123  63.614  0.00  0.00    +0.181 C 
ATOM     50  O   UNL     1     -12.511  13.534  63.081  0.00  0.00    -0.220 OA
ENDBRANCH  47  49
ENDBRANCH  46  47
ENDBRANCH  45  46
ENDBRANCH  29  45
BRANCH  33  51
ATOM     51  O   UNL     1     -10.672  10.536  69.358  0.00  0.00    -0.326 OA
BRANCH  51  52
ATOM     52  C   UNL     1     -11.631  11.303  69.943  0.00  0.00    +0.178 C 
BRANCH  52  53
ATOM     53  C   UNL     1     -12.747  10.323  70.622  0.00  0.00    +0.182 C 
ATOM     54  O   UNL     1     -11.688   9.684  71.507  0.00  0.00    -0.220 OA
ATOM     55  C   UNL     1     -13.123  11.408  71.810  0.00  0.00    +0.038 C 
ENDBRANCH  52  53
ENDBRANCH  51  52
ENDBRANCH  33  51
ENDBRANCH   1  30
TORSDOF 28
ENDMDL
MODEL 6
REMARK VINA RESULT:      -5.5      1.536      8.338
REMARK  Name = 
REMARK  28 active torsions:
REMARK  status: ('A' for Active; 'I' for Inactive)
REMARK    1  A    between atoms: C_2  and  C_4
REMARK    2  A    between atoms: C_4  and  O_5
REMARK    3  A    between atoms: O_5  and  C_6
REMARK    4  A    between atoms: C_6  and  C_7
REMARK    5  A    between atoms: C_9  and  O_10
REMARK    6  A    between atoms: O_10  and  C_11
REMARK    7  A    between atoms: C_11  and  C_12
REMARK    8  A    between atoms: C_15  and  O_16
REMARK    9  A    between atoms: O_16  and  C_17
REMARK   10  A    between atoms: C_17  and  C_18
REMARK   11  A    between atoms: C_21  and  O_22
REMARK   12  A    between atoms: O_22  and  C_23
REMARK   13  A    between atoms: C_23  and  C_24
REMARK   14  A    between atoms: C_27  and  O_28
REMARK   15  A    between atoms: O_28  and  C_29
REMARK   16  A    between atoms: C_31  and  C_32
REMARK   17  A    between atoms: C_32  and  O_33
REMARK   18  A    between atoms: O_33  and  C_34
REMARK   19  A    between atoms: C_34  and  C_35
REMARK   20  A    between atoms: C_38  and  O_39
REMARK   21  A    between atoms: O_39  and  C_40
REMARK   22  A    between atoms: C_40  and  C_41
REMARK   23  A    between atoms: C_44  and  O_45
REMARK   24  A    between atoms: O_45  and  C_46
REMARK   25  A    between atoms: C_46  and  C_47
REMARK   26  A    between atoms: C_50  and  O_51
REMARK   27  A    between atoms: O_51  and  C_52
REMARK   28  A    between atoms: C_52  and  C_53
REMARK                            x       y       z     vdW  Elec       q    Type
REMARK                         _______ _______ _______ _____ _____    ______ ____
ROOT
ATOM      1  O   UNL     1      -9.113  14.407  68.103  0.00  0.00    -0.326 OA
ENDROOT
BRANCH   1   2
ATOM      2  C   UNL     1      -9.233  13.122  68.951  0.00  0.00    +0.266 C 
ATOM      3  C   UNL     1      -9.142  12.086  67.578  0.00  0.00    +0.201 C 
ATOM      4  C   UNL     1      -9.701  10.855  68.607  0.00  0.00    +0.177 C 
ATOM      5  C   UNL     1     -11.274  10.936  67.998  0.00  0.00    +0.174 C 
ATOM      6  C   UNL     1     -11.697  12.580  68.249  0.00  0.00    +0.177 C 
ATOM      7  O   UNL     1     -10.686  13.062  69.170  0.00  0.00    -0.326 OA
BRANCH   4   8
ATOM      8  O   UNL     1      -9.519   9.823  67.537  0.00  0.00    -0.348 OA
BRANCH   8   9
ATOM      9  C   UNL     1      -8.927   8.740  67.738  0.00  0.00    +0.175 C 
BRANCH   9  10
ATOM     10  C   UNL     1      -9.191   7.618  66.560  0.00  0.00    +0.181 C 
ATOM     11  O   UNL     1     -10.707   7.691  66.727  0.00  0.00    -0.220 OA
ATOM     12  C   UNL     1      -9.257   8.766  65.370  0.00  0.00    +0.038 C 
ENDBRANCH   9  10
ENDBRANCH   8   9
ENDBRANCH   4   8
BRANCH   5  13
ATOM     13  O   UNL     1     -11.919  10.534  69.291  0.00  0.00    -0.348 OA
BRANCH  13  14
ATOM     14  C   UNL     1     -10.907   9.891  70.059  0.00  0.00    +0.175 C 
BRANCH  14  15
ATOM     15  C   UNL     1     -11.744   9.192  71.301  0.00  0.00    +0.181 C 
ATOM     16  O   UNL     1     -11.867   7.864  70.574  0.00  0.00    -0.220 OA
ATOM     17  C   UNL     1     -10.349   8.742  72.074  0.00  0.00    +0.038 C 
ENDBRANCH  14  15
ENDBRANCH  13  14
ENDBRANCH   5  13
BRANCH   3  18
ATOM     18  O   UNL     1      -7.691  11.910  67.846  0.00  0.00    -0.346 OA
BRANCH  18  19
ATOM     19  C   UNL     1      -7.031  11.820  66.646  0.00  0.00    +0.175 C 
BRANCH  19  20
ATOM     20  C   UNL     1      -5.513  11.333  67.010  0.00  0.00    +0.181 C 
ATOM     21  O   UNL     1      -5.995  10.661  68.287  0.00  0.00    -0.220 OA
ATOM     22  C   UNL     1      -5.729   9.935  66.133  0.00  0.00    +0.038 C 
ENDBRANCH  19  20
ENDBRANCH  18  19
ENDBRANCH   3  18
BRANCH   6  23
ATOM     23  C   UNL     1     -11.087  13.067  66.785  0.00  0.00    +0.174 C 
BRANCH  23  24
ATOM     24  O   UNL     1     -12.232  13.776  66.365  0.00  0.00    -0.348 OA
BRANCH  24  25
ATOM     25  C   UNL     1     -12.401  13.622  65.035  0.00  0.00    +0.175 C 
BRANCH  25  26
ATOM     26  C   UNL     1     -12.136  12.061  64.589  0.00  0.00    +0.181 C 
ATOM     27  O   UNL     1     -13.254  12.118  63.549  0.00  0.00    -0.220 OA
ATOM     28  C   UNL     1     -11.000  12.362  63.423  0.00  0.00    +0.038 C 
ENDBRANCH  25  26
ENDBRANCH  24  25
ENDBRANCH  23  24
ENDBRANCH   6  23
ENDBRANCH   1   2
BRANCH   1  30
ATOM     29  C   UNL     1      -9.797  16.630  68.936  0.00  0.00    +0.177 C 
ATOM     30  C   UNL     1      -8.984  15.193  69.378  0.00  0.00    +0.177 C 
ATOM     31  C   UNL     1      -7.451  15.918  69.171  0.00  0.00    +0.177 C 
ATOM     32  C   UNL     1      -7.893  17.233  68.187  0.00  0.00    +0.201 C 
ATOM     33  C   UNL     1      -8.613  16.374  66.894  0.00  0.00    +0.266 C 
ATOM     34  O   UNL     1     -10.012  16.323  67.488  0.00  0.00    -0.326 OA
BRANCH  31  35
ATOM     35  O   UNL     1      -6.901  15.008  68.118  0.00  0.00    -0.348 OA
BRANCH  35  36
ATOM     36  C   UNL     1      -5.710  14.673  68.739  0.00  0.00    +0.175 C 
BRANCH  36  37
ATOM     37  C   UNL     1      -5.904  14.674  70.367  0.00  0.00    +0.181 C 
ATOM     38  O   UNL     1      -5.894  13.161  70.487  0.00  0.00    -0.220 OA
ATOM     39  C   UNL     1      -4.265  14.723  70.595  0.00  0.00    +0.038 C 
ENDBRANCH  36  37
ENDBRANCH  35  36
ENDBRANCH  31  35
BRANCH  32  40
ATOM     40  O   UNL     1      -6.535  17.290  67.560  0.00  0.00    -0.346 OA
BRANCH  40  41
ATOM     41  C   UNL     1      -5.903  18.427  67.861  0.00  0.00    +0.175 C 
BRANCH  41  42
ATOM     42  C   UNL     1      -6.779  19.377  68.862  0.00  0.00    +0.181 C 
ATOM     43  O   UNL     1      -5.723  19.311  69.957  0.00  0.00    -0.220 OA
ATOM     44  C   UNL     1      -6.128  20.762  68.244  0.00  0.00    +0.038 C 
ENDBRANCH  41  42
ENDBRANCH  40  41
ENDBRANCH  32  40
BRANCH  29  45
ATOM     45  C   UNL     1     -11.265  16.038  69.360  0.00  0.00    +0.174 C 
BRANCH  45  46
ATOM     46  O   UNL     1     -11.494  16.766  70.560  0.00  0.00    -0.348 OA
BRANCH  46  47
ATOM     47  C   UNL     1     -11.837  15.937  71.618  0.00  0.00    +0.175 C 
BRANCH  47  49
ATOM     48  C   UNL     1     -13.974  15.577  72.580  0.00  0.00    +0.038 C 
ATOM     49  C   UNL     1     -13.238  15.206  71.155  0.00  0.00    +0.181 C 
ATOM     50  O   UNL     1     -12.775  13.862  71.679  0.00  0.00    -0.220 OA
ENDBRANCH  47  49
ENDBRANCH  46  47
ENDBRANCH  45  46
ENDBRANCH  29  45
BRANCH  33  51
ATOM     51  O   UNL     1      -8.911  17.719  66.230  0.00  0.00    -0.326 OA
BRANCH  51  52
ATOM     52  C   UNL     1     -10.247  17.773  65.981  0.00  0.00    +0.178 C 
BRANCH  52  53
ATOM     53  C   UNL     1     -10.698  19.339  65.863  0.00  0.00    +0.182 C 
ATOM     54  O   UNL     1     -11.105  19.361  67.328  0.00  0.00    -0.220 OA
ATOM     55  C   UNL     1      -9.195  19.905  66.245  0.00  0.00    +0.038 C 
ENDBRANCH  52  53
ENDBRANCH  51  52
ENDBRANCH  33  51
ENDBRANCH   1  30
TORSDOF 28
ENDMDL
MODEL 7
REMARK VINA RESULT:      -5.3      1.974      8.915
REMARK  Name = 
REMARK  28 active torsions:
REMARK  status: ('A' for Active; 'I' for Inactive)
REMARK    1  A    between atoms: C_2  and  C_4
REMARK    2  A    between atoms: C_4  and  O_5
REMARK    3  A    between atoms: O_5  and  C_6
REMARK    4  A    between atoms: C_6  and  C_7
REMARK    5  A    between atoms: C_9  and  O_10
REMARK    6  A    between atoms: O_10  and  C_11
REMARK    7  A    between atoms: C_11  and  C_12
REMARK    8  A    between atoms: C_15  and  O_16
REMARK    9  A    between atoms: O_16  and  C_17
REMARK   10  A    between atoms: C_17  and  C_18
REMARK   11  A    between atoms: C_21  and  O_22
REMARK   12  A    between atoms: O_22  and  C_23
REMARK   13  A    between atoms: C_23  and  C_24
REMARK   14  A    between atoms: C_27  and  O_28
REMARK   15  A    between atoms: O_28  and  C_29
REMARK   16  A    between atoms: C_31  and  C_32
REMARK   17  A    between atoms: C_32  and  O_33
REMARK   18  A    between atoms: O_33  and  C_34
REMARK   19  A    between atoms: C_34  and  C_35
REMARK   20  A    between atoms: C_38  and  O_39
REMARK   21  A    between atoms: O_39  and  C_40
REMARK   22  A    between atoms: C_40  and  C_41
REMARK   23  A    between atoms: C_44  and  O_45
REMARK   24  A    between atoms: O_45  and  C_46
REMARK   25  A    between atoms: C_46  and  C_47
REMARK   26  A    between atoms: C_50  and  O_51
REMARK   27  A    between atoms: O_51  and  C_52
REMARK   28  A    between atoms: C_52  and  C_53
REMARK                            x       y       z     vdW  Elec       q    Type
REMARK                         _______ _______ _______ _____ _____    ______ ____
ROOT
ATOM      1  O   UNL     1     -10.522  11.962  67.878  0.00  0.00    -0.326 OA
ENDROOT
BRANCH   1   2
ATOM      2  C   UNL     1     -11.134  10.561  67.650  0.00  0.00    +0.266 C 
ATOM      3  C   UNL     1     -10.497   9.932  69.121  0.00  0.00    +0.201 C 
ATOM      4  C   UNL     1     -10.874   8.396  68.500  0.00  0.00    +0.177 C 
ATOM      5  C   UNL     1      -9.270   8.072  68.081  0.00  0.00    +0.174 C 
ATOM      6  C   UNL     1      -8.871   9.387  67.051  0.00  0.00    +0.177 C 
ATOM      7  O   UNL     1     -10.155   9.973  66.723  0.00  0.00    -0.326 OA
BRANCH   4   8
ATOM      8  O   UNL     1     -10.494   7.737  69.790  0.00  0.00    -0.348 OA
BRANCH   8   9
ATOM      9  C   UNL     1     -11.002   6.660  70.172  0.00  0.00    +0.175 C 
BRANCH   9  10
ATOM     10  C   UNL     1     -10.013   5.777  71.149  0.00  0.00    +0.181 C 
ATOM     11  O   UNL     1      -9.456   7.021  71.835  0.00  0.00    -0.220 OA
ATOM     12  C   UNL     1     -11.168   5.633  72.325  0.00  0.00    +0.038 C 
ENDBRANCH   9  10
ENDBRANCH   8   9
ENDBRANCH   4   8
BRANCH   5  13
ATOM     13  O   UNL     1      -9.631   7.214  66.905  0.00  0.00    -0.348 OA
BRANCH  13  14
ATOM     14  C   UNL     1      -8.793   6.065  66.977  0.00  0.00    +0.175 C 
BRANCH  14  15
ATOM     15  C   UNL     1      -9.843   4.836  67.321  0.00  0.00    +0.181 C 
ATOM     16  O   UNL     1     -10.898   5.364  66.364  0.00  0.00    -0.220 OA
ATOM     17  C   UNL     1      -9.166   3.850  66.174  0.00  0.00    +0.038 C 
ENDBRANCH  14  15
ENDBRANCH  13  14
ENDBRANCH   5  13
BRANCH   3  18
ATOM     18  O   UNL     1     -11.808  10.201  69.768  0.00  0.00    -0.346 OA
BRANCH  18  19
ATOM     19  C   UNL     1     -11.611  10.336  71.119  0.00  0.00    +0.175 C 
BRANCH  19  20
ATOM     20  C   UNL     1     -13.105  10.408  71.780  0.00  0.00    +0.181 C 
ATOM     21  O   UNL     1     -13.730   9.828  70.520  0.00  0.00    -0.220 OA
ATOM     22  C   UNL     1     -12.908   8.892  72.440  0.00  0.00    +0.038 C 
ENDBRANCH  19  20
ENDBRANCH  18  19
ENDBRANCH   3  18
BRANCH   6  23
ATOM     23  C   UNL     1      -8.367  10.349  68.306  0.00  0.00    +0.174 C 
BRANCH  23  24
ATOM     24  O   UNL     1      -7.356  11.024  67.590  0.00  0.00    -0.348 OA
BRANCH  24  25
ATOM     25  C   UNL     1      -6.199  10.980  68.283  0.00  0.00    +0.175 C 
BRANCH  25  26
ATOM     26  C   UNL     1      -4.924  10.716  67.277  0.00  0.00    +0.181 C 
ATOM     27  O   UNL     1      -5.219  11.993  66.491  0.00  0.00    -0.220 OA
ATOM     28  C   UNL     1      -3.777  11.502  68.175  0.00  0.00    +0.038 C 
ENDBRANCH  25  26
ENDBRANCH  24  25
ENDBRANCH  23  24
ENDBRANCH   6  23
ENDBRANCH   1   2
BRANCH   1  30
ATOM     29  C   UNL     1     -10.850  13.321  65.842  0.00  0.00    +0.177 C 
ATOM     30  C   UNL     1     -11.680  12.551  67.122  0.00  0.00    +0.177 C 
ATOM     31  C   UNL     1     -11.906  14.026  67.952  0.00  0.00    +0.177 C 
ATOM     32  C   UNL     1     -10.699  14.959  67.199  0.00  0.00    +0.201 C 
ATOM     33  C   UNL     1      -9.341  13.981  67.552  0.00  0.00    +0.266 C 
ATOM     34  O   UNL     1      -9.451  13.095  66.321  0.00  0.00    -0.326 OA
BRANCH  31  35
ATOM     35  O   UNL     1     -11.190  13.693  69.224  0.00  0.00    -0.348 OA
BRANCH  35  36
ATOM     36  C   UNL     1     -12.265  13.777  70.092  0.00  0.00    +0.175 C 
BRANCH  36  37
ATOM     37  C   UNL     1     -11.923  14.815  71.313  0.00  0.00    +0.181 C 
ATOM     38  O   UNL     1     -12.867  15.896  70.817  0.00  0.00    -0.220 OA
ATOM     39  C   UNL     1     -13.125  14.165  72.246  0.00  0.00    +0.038 C 
ENDBRANCH  36  37
ENDBRANCH  35  36
ENDBRANCH  31  35
BRANCH  32  40
ATOM     40  O   UNL     1     -10.544  15.831  68.407  0.00  0.00    -0.346 OA
BRANCH  40  41
ATOM     41  C   UNL     1     -10.875  17.097  68.143  0.00  0.00    +0.175 C 
BRANCH  41  42
ATOM     42  C   UNL     1      -9.655  17.922  67.434  0.00  0.00    +0.181 C 
ATOM     43  O   UNL     1     -10.588  18.549  66.407  0.00  0.00    -0.220 OA
ATOM     44  C   UNL     1      -9.827  19.207  68.454  0.00  0.00    +0.038 C 
ENDBRANCH  41  42
ENDBRANCH  40  41
ENDBRANCH  32  40
BRANCH  29  45
ATOM     45  C   UNL     1     -10.835  11.969  64.917  0.00  0.00    +0.174 C 
BRANCH  45  46
ATOM     46  O   UNL     1      -9.901  12.358  63.916  0.00  0.00    -0.348 OA
BRANCH  46  47
ATOM     47  C   UNL     1      -9.803  11.420  62.899  0.00  0.00    +0.175 C 
BRANCH  47  49
ATOM     48  C   UNL     1      -7.932  10.692  61.637  0.00  0.00    +0.038 C 
ATOM     49  C   UNL     1      -8.413  10.593  63.209  0.00  0.00    +0.181 C 
ATOM     50  O   UNL     1      -9.090   9.258  62.977  0.00  0.00    -0.220 OA
ENDBRANCH  47  49
ENDBRANCH  46  47
ENDBRANCH  45  46
ENDBRANCH  29  45
BRANCH  33  51
ATOM     51  O   UNL     1      -8.478  14.986  66.788  0.00  0.00    -0.326 OA
BRANCH  51  52
ATOM     52  C   UNL     1      -7.208  14.895  67.266  0.00  0.00    +0.178 C 
BRANCH  52  53
ATOM     53  C   UNL     1      -7.267  14.719  68.889  0.00  0.00    +0.182 C 
ATOM     54  O   UNL     1      -5.785  14.381  68.935  0.00  0.00    -0.220 OA
ATOM     55  C   UNL     1      -6.940  16.313  69.175  0.00  0.00    +0.038 C 
ENDBRANCH  52  53
ENDBRANCH  51  52
ENDBRANCH  33  51
ENDBRANCH   1  30
TORSDOF 28
ENDMDL
MODEL 8
REMARK VINA RESULT:      -5.2      1.723      2.064
REMARK  Name = 
REMARK  28 active torsions:
REMARK  status: ('A' for Active; 'I' for Inactive)
REMARK    1  A    between atoms: C_2  and  C_4
REMARK    2  A    between atoms: C_4  and  O_5
REMARK    3  A    between atoms: O_5  and  C_6
REMARK    4  A    between atoms: C_6  and  C_7
REMARK    5  A    between atoms: C_9  and  O_10
REMARK    6  A    between atoms: O_10  and  C_11
REMARK    7  A    between atoms: C_11  and  C_12
REMARK    8  A    between atoms: C_15  and  O_16
REMARK    9  A    between atoms: O_16  and  C_17
REMARK   10  A    between atoms: C_17  and  C_18
REMARK   11  A    between atoms: C_21  and  O_22
REMARK   12  A    between atoms: O_22  and  C_23
REMARK   13  A    between atoms: C_23  and  C_24
REMARK   14  A    between atoms: C_27  and  O_28
REMARK   15  A    between atoms: O_28  and  C_29
REMARK   16  A    between atoms: C_31  and  C_32
REMARK   17  A    between atoms: C_32  and  O_33
REMARK   18  A    between atoms: O_33  and  C_34
REMARK   19  A    between atoms: C_34  and  C_35
REMARK   20  A    between atoms: C_38  and  O_39
REMARK   21  A    between atoms: O_39  and  C_40
REMARK   22  A    between atoms: C_40  and  C_41
REMARK   23  A    between atoms: C_44  and  O_45
REMARK   24  A    between atoms: O_45  and  C_46
REMARK   25  A    between atoms: C_46  and  C_47
REMARK   26  A    between atoms: C_50  and  O_51
REMARK   27  A    between atoms: O_51  and  C_52
REMARK   28  A    between atoms: C_52  and  C_53
REMARK                            x       y       z     vdW  Elec       q    Type
REMARK                         _______ _______ _______ _____ _____    ______ ____
ROOT
ATOM      1  O   UNL     1      -8.616  12.947  67.947  0.00  0.00    -0.326 OA
ENDROOT
BRANCH   1   2
ATOM      2  C   UNL     1      -7.815  14.068  67.250  0.00  0.00    +0.266 C 
ATOM      3  C   UNL     1      -7.709  15.022  68.680  0.00  0.00    +0.201 C 
ATOM      4  C   UNL     1      -7.228  16.296  67.664  0.00  0.00    +0.177 C 
ATOM      5  C   UNL     1      -8.749  17.029  67.713  0.00  0.00    +0.174 C 
ATOM      6  C   UNL     1      -9.792  15.783  67.162  0.00  0.00    +0.177 C 
ATOM      7  O   UNL     1      -8.892  14.809  66.576  0.00  0.00    -0.326 OA
BRANCH   4   8
ATOM      8  O   UNL     1      -6.948  17.181  68.839  0.00  0.00    -0.348 OA
BRANCH   8   9
ATOM      9  C   UNL     1      -6.131  18.126  68.792  0.00  0.00    +0.175 C 
BRANCH   9  10
ATOM     10  C   UNL     1      -6.670  19.498  69.528  0.00  0.00    +0.181 C 
ATOM     11  O   UNL     1      -5.680  19.357  70.681  0.00  0.00    -0.220 OA
ATOM     12  C   UNL     1      -5.595  20.455  68.710  0.00  0.00    +0.038 C 
ENDBRANCH   9  10
ENDBRANCH   8   9
ENDBRANCH   4   8
BRANCH   5  13
ATOM     13  O   UNL     1      -8.643  17.603  66.331  0.00  0.00    -0.348 OA
BRANCH  13  14
ATOM     14  C   UNL     1      -8.624  19.017  66.486  0.00  0.00    +0.175 C 
BRANCH  14  15
ATOM     15  C   UNL     1     -10.075  19.354  67.200  0.00  0.00    +0.181 C 
ATOM     16  O   UNL     1      -9.704  20.805  67.451  0.00  0.00    -0.220 OA
ATOM     17  C   UNL     1     -10.788  19.694  65.743  0.00  0.00    +0.038 C 
ENDBRANCH  14  15
ENDBRANCH  13  14
ENDBRANCH   5  13
BRANCH   3  18
ATOM     18  O   UNL     1      -6.357  14.453  68.922  0.00  0.00    -0.346 OA
BRANCH  18  19
ATOM     19  C   UNL     1      -6.098  14.496  70.269  0.00  0.00    +0.175 C 
BRANCH  19  20
ATOM     20  C   UNL     1      -4.564  15.044  70.408  0.00  0.00    +0.181 C 
ATOM     21  O   UNL     1      -5.000  16.128  71.382  0.00  0.00    -0.220 OA
ATOM     22  C   UNL     1      -4.272  13.974  71.649  0.00  0.00    +0.038 C 
ENDBRANCH  19  20
ENDBRANCH  18  19
ENDBRANCH   3  18
BRANCH   6  23
ATOM     23  C   UNL     1     -10.023  15.163  68.684  0.00  0.00    +0.174 C 
BRANCH  23  24
ATOM     24  O   UNL     1     -11.427  15.062  68.601  0.00  0.00    -0.348 OA
BRANCH  24  25
ATOM     25  C   UNL     1     -11.991  15.632  69.687  0.00  0.00    +0.175 C 
BRANCH  25  26
ATOM     26  C   UNL     1     -12.390  14.493  70.805  0.00  0.00    +0.181 C 
ATOM     27  O   UNL     1     -11.553  15.185  71.879  0.00  0.00    -0.220 OA
ATOM     28  C   UNL     1     -13.765  15.221  71.370  0.00  0.00    +0.038 C 
ENDBRANCH  25  26
ENDBRANCH  24  25
ENDBRANCH  23  24
ENDBRANCH   6  23
ENDBRANCH   1   2
BRANCH   1  30
ATOM     29  C   UNL     1      -9.758  11.347  66.451  0.00  0.00    +0.177 C 
ATOM     30  C   UNL     1      -8.234  12.024  66.825  0.00  0.00    +0.177 C 
ATOM     31  C   UNL     1      -7.751  10.631  67.686  0.00  0.00    +0.177 C 
ATOM     32  C   UNL     1      -9.278   9.941  67.980  0.00  0.00    +0.201 C 
ATOM     33  C   UNL     1     -10.010  11.245  68.810  0.00  0.00    +0.266 C 
ATOM     34  O   UNL     1     -10.545  11.948  67.572  0.00  0.00    -0.326 OA
BRANCH  31  35
ATOM     35  O   UNL     1      -7.510  11.254  69.026  0.00  0.00    -0.348 OA
BRANCH  35  36
ATOM     36  C   UNL     1      -6.157  10.985  69.136  0.00  0.00    +0.175 C 
BRANCH  36  37
ATOM     37  C   UNL     1      -5.754  10.752  70.707  0.00  0.00    +0.181 C 
ATOM     38  O   UNL     1      -5.958   9.249  70.659  0.00  0.00    -0.220 OA
ATOM     39  C   UNL     1      -4.159  10.569  70.306  0.00  0.00    +0.038 C 
ENDBRANCH  36  37
ENDBRANCH  35  36
ENDBRANCH  31  35
BRANCH  32  40
ATOM     40  O   UNL     1      -8.790   9.260  69.222  0.00  0.00    -0.346 OA
BRANCH  40  41
ATOM     41  C   UNL     1      -9.037   7.948  69.191  0.00  0.00    +0.175 C 
BRANCH  41  42
ATOM     42  C   UNL     1      -9.807   7.494  67.822  0.00  0.00    +0.181 C 
ATOM     43  O   UNL     1      -8.810   6.375  67.555  0.00  0.00    -0.220 OA
ATOM     44  C   UNL     1     -10.816   6.472  68.636  0.00  0.00    +0.038 C 
ENDBRANCH  41  42
ENDBRANCH  40  41
ENDBRANCH  32  40
BRANCH  29  45
ATOM     45  C   UNL     1     -10.146  12.562  65.422  0.00  0.00    +0.174 C 
BRANCH  45  46
ATOM     46  O   UNL     1     -10.279  11.831  64.208  0.00  0.00    -0.348 OA
BRANCH  46  47
ATOM     47  C   UNL     1     -10.077  10.471  64.390  0.00  0.00    +0.175 C 
BRANCH  47  49
ATOM     48  C   UNL     1      -7.910   9.845  63.659  0.00  0.00    +0.038 C 
ATOM     49  C   UNL     1      -9.407   9.944  62.980  0.00  0.00    +0.181 C 
ATOM     50  O   UNL     1      -9.159  11.361  62.504  0.00  0.00    -0.220 OA
ENDBRANCH  47  49
ENDBRANCH  46  47
ENDBRANCH  45  46
ENDBRANCH  29  45
BRANCH  33  51
ATOM     51  O   UNL     1     -11.281  10.402  68.916  0.00  0.00    -0.326 OA
BRANCH  51  52
ATOM     52  C   UNL     1     -11.978  10.834  70.001  0.00  0.00    +0.178 C 
BRANCH  52  53
ATOM     53  C   UNL     1     -12.511   9.535  70.837  0.00  0.00    +0.182 C 
ATOM     54  O   UNL     1     -11.209   9.471  71.621  0.00  0.00    -0.220 OA
ATOM     55  C   UNL     1     -13.208  10.455  72.018  0.00  0.00    +0.038 C 
ENDBRANCH  52  53
ENDBRANCH  51  52
ENDBRANCH  33  51
ENDBRANCH   1  30
TORSDOF 28
ENDMDL
MODEL 9
REMARK VINA RESULT:      -5.1      2.595      6.260
REMARK  Name = 
REMARK  28 active torsions:
REMARK  status: ('A' for Active; 'I' for Inactive)
REMARK    1  A    between atoms: C_2  and  C_4
REMARK    2  A    between atoms: C_4  and  O_5
REMARK    3  A    between atoms: O_5  and  C_6
REMARK    4  A    between atoms: C_6  and  C_7
REMARK    5  A    between atoms: C_9  and  O_10
REMARK    6  A    between atoms: O_10  and  C_11
REMARK    7  A    between atoms: C_11  and  C_12
REMARK    8  A    between atoms: C_15  and  O_16
REMARK    9  A    between atoms: O_16  and  C_17
REMARK   10  A    between atoms: C_17  and  C_18
REMARK   11  A    between atoms: C_21  and  O_22
REMARK   12  A    between atoms: O_22  and  C_23
REMARK   13  A    between atoms: C_23  and  C_24
REMARK   14  A    between atoms: C_27  and  O_28
REMARK   15  A    between atoms: O_28  and  C_29
REMARK   16  A    between atoms: C_31  and  C_32
REMARK   17  A    between atoms: C_32  and  O_33
REMARK   18  A    between atoms: O_33  and  C_34
REMARK   19  A    between atoms: C_34  and  C_35
REMARK   20  A    between atoms: C_38  and  O_39
REMARK   21  A    between atoms: O_39  and  C_40
REMARK   22  A    between atoms: C_40  and  C_41
REMARK   23  A    between atoms: C_44  and  O_45
REMARK   24  A    between atoms: O_45  and  C_46
REMARK   25  A    between atoms: C_46  and  C_47
REMARK   26  A    between atoms: C_50  and  O_51
REMARK   27  A    between atoms: O_51  and  C_52
REMARK   28  A    between atoms: C_52  and  C_53
REMARK                            x       y       z     vdW  Elec       q    Type
REMARK                         _______ _______ _______ _____ _____    ______ ____
ROOT
ATOM      1  O   UNL     1      -9.694   9.954  68.271  0.00  0.00    -0.326 OA
ENDROOT
BRANCH   1   2
ATOM      2  C   UNL     1      -9.634  11.224  69.150  0.00  0.00    +0.266 C 
ATOM      3  C   UNL     1     -11.348  11.339  69.276  0.00  0.00    +0.201 C 
ATOM      4  C   UNL     1     -11.089  12.918  69.851  0.00  0.00    +0.177 C 
ATOM      5  C   UNL     1     -11.506  13.620  68.372  0.00  0.00    +0.174 C 
ATOM      6  C   UNL     1     -10.420  12.872  67.273  0.00  0.00    +0.177 C 
ATOM      7  O   UNL     1      -9.423  12.263  68.131  0.00  0.00    -0.326 OA
BRANCH   4   8
ATOM      8  O   UNL     1     -12.546  13.089  70.152  0.00  0.00    -0.348 OA
BRANCH   8   9
ATOM      9  C   UNL     1     -13.004  14.115  70.701  0.00  0.00    +0.175 C 
BRANCH   9  10
ATOM     10  C   UNL     1     -14.064  13.791  71.920  0.00  0.00    +0.181 C 
ATOM     11  O   UNL     1     -13.358  12.488  72.287  0.00  0.00    -0.220 OA
ATOM     12  C   UNL     1     -13.154  14.608  73.036  0.00  0.00    +0.038 C 
ENDBRANCH   9  10
ENDBRANCH   8   9
ENDBRANCH   4   8
BRANCH   5  13
ATOM     13  O   UNL     1     -10.587  14.793  68.540  0.00  0.00    -0.348 OA
BRANCH  13  14
ATOM     14  C   UNL     1     -11.363  15.953  68.260  0.00  0.00    +0.175 C 
BRANCH  14  15
ATOM     15  C   UNL     1     -10.387  16.848  67.271  0.00  0.00    +0.181 C 
ATOM     16  O   UNL     1     -10.866  18.164  67.860  0.00  0.00    -0.220 OA
ATOM     17  C   UNL     1      -9.111  16.738  68.322  0.00  0.00    +0.038 C 
ENDBRANCH  14  15
ENDBRANCH  13  14
ENDBRANCH   5  13
BRANCH   3  18
ATOM     18  O   UNL     1     -11.267  10.646  70.589  0.00  0.00    -0.346 OA
BRANCH  18  19
ATOM     19  C   UNL     1     -12.272   9.714  70.656  0.00  0.00    +0.175 C 
BRANCH  19  20
ATOM     20  C   UNL     1     -12.077   8.955  72.091  0.00  0.00    +0.181 C 
ATOM     21  O   UNL     1     -13.538   9.177  72.450  0.00  0.00    -0.220 OA
ATOM     22  C   UNL     1     -12.421   7.487  71.384  0.00  0.00    +0.038 C 
ENDBRANCH  19  20
ENDBRANCH  18  19
ENDBRANCH   3  18
BRANCH   6  23
ATOM     23  C   UNL     1     -11.440  11.597  66.975  0.00  0.00    +0.174 C 
BRANCH  23  24
ATOM     24  O   UNL     1     -12.055  12.152  65.833  0.00  0.00    -0.348 OA
BRANCH  24  25
ATOM     25  C   UNL     1     -11.206  12.098  64.785  0.00  0.00    +0.175 C 
BRANCH  25  26
ATOM     26  C   UNL     1     -11.833  12.884  63.483  0.00  0.00    +0.181 C 
ATOM     27  O   UNL     1     -13.219  12.292  63.732  0.00  0.00    -0.220 OA
ATOM     28  C   UNL     1     -12.261  14.281  64.262  0.00  0.00    +0.038 C 
ENDBRANCH  25  26
ENDBRANCH  24  25
ENDBRANCH  23  24
ENDBRANCH   6  23
ENDBRANCH   1   2
BRANCH   1  30
ATOM     29  C   UNL     1      -7.959   9.213  66.677  0.00  0.00    +0.177 C 
ATOM     30  C   UNL     1      -8.194   9.989  68.181  0.00  0.00    +0.177 C 
ATOM     31  C   UNL     1      -7.773   8.581  69.050  0.00  0.00    +0.177 C 
ATOM     32  C   UNL     1      -8.004   7.419  67.830  0.00  0.00    +0.201 C 
ATOM     33  C   UNL     1      -9.644   7.735  67.461  0.00  0.00    +0.266 C 
ATOM     34  O   UNL     1      -9.375   8.807  66.417  0.00  0.00    -0.326 OA
BRANCH  31  35
ATOM     35  O   UNL     1      -9.047   8.384  69.811  0.00  0.00    -0.348 OA
BRANCH  35  36
ATOM     36  C   UNL     1      -8.541   8.507  71.093  0.00  0.00    +0.175 C 
BRANCH  36  37
ATOM     37  C   UNL     1      -8.844   7.145  71.952  0.00  0.00    +0.181 C 
ATOM     38  O   UNL     1      -7.380   6.766  72.091  0.00  0.00    -0.220 OA
ATOM     39  C   UNL     1      -8.781   7.989  73.375  0.00  0.00    +0.038 C 
ENDBRANCH  36  37
ENDBRANCH  35  36
ENDBRANCH  31  35
BRANCH  32  40
ATOM     40  O   UNL     1      -8.304   6.348  68.832  0.00  0.00    -0.346 OA
BRANCH  40  41
ATOM     41  C   UNL     1      -7.444   5.332  68.736  0.00  0.00    +0.175 C 
BRANCH  41  42
ATOM     42  C   UNL     1      -7.798   4.118  69.772  0.00  0.00    +0.181 C 
ATOM     43  O   UNL     1      -9.297   4.318  69.597  0.00  0.00    -0.220 OA
ATOM     44  C   UNL     1      -7.755   2.981  68.578  0.00  0.00    +0.038 C 
ENDBRANCH  41  42
ENDBRANCH  40  41
ENDBRANCH  32  40
BRANCH  29  45
ATOM     45  C   UNL     1      -8.119  10.606  65.830  0.00  0.00    +0.174 C 
BRANCH  45  46
ATOM     46  O   UNL     1      -8.310  10.084  64.519  0.00  0.00    -0.348 OA
BRANCH  46  47
ATOM     47  C   UNL     1      -7.130  10.052  63.792  0.00  0.00    +0.175 C 
BRANCH  47  49
ATOM     48  C   UNL     1      -8.325  10.745  61.865  0.00  0.00    +0.038 C 
ATOM     49  C   UNL     1      -7.537   9.380  62.344  0.00  0.00    +0.181 C 
ATOM     50  O   UNL     1      -8.805   8.780  62.915  0.00  0.00    -0.220 OA
ENDBRANCH  47  49
ENDBRANCH  46  47
ENDBRANCH  45  46
ENDBRANCH  29  45
BRANCH  33  51
ATOM     51  O   UNL     1      -9.568   6.639  66.398  0.00  0.00    -0.326 OA
BRANCH  51  52
ATOM     52  C   UNL     1     -10.663   5.844  66.539  0.00  0.00    +0.178 C 
BRANCH  52  53
ATOM     53  C   UNL     1     -10.242   4.302  66.202  0.00  0.00    +0.182 C 
ATOM     54  O   UNL     1     -11.147   4.293  64.980  0.00  0.00    -0.220 OA
ATOM     55  C   UNL     1      -8.951   4.751  65.275  0.00  0.00    +0.038 C 
ENDBRANCH  52  53
ENDBRANCH  51  52
ENDBRANCH  33  51
ENDBRANCH   1  30
TORSDOF 28
ENDMDL
