MODEL 1
REMARK VINA RESULT:      -8.4      0.000      0.000
REMARK  Name = 
REMARK  6 active torsions:
REMARK  status: ('A' for Active; 'I' for Inactive)
REMARK    1  A    between atoms: C_3  and  C_4
REMARK    2  A    between atoms: N_6  and  C_7
REMARK    3  A    between atoms: C_10  and  N_11
REMARK    4  A    between atoms: C_24  and  C_25
REMARK    5  A    between atoms: C_28  and  O_29
REMARK    6  A    between atoms: O_29  and  C_30
REMARK                            x       y       z     vdW  Elec       q    Type
REMARK                         _______ _______ _______ _____ _____    ______ ____
ROOT
ATOM      1  C   UNL     1      -8.869  12.701  67.025  0.00  0.00    +0.031 C 
ATOM      2  C   UNL     1     -10.181  12.660  66.503  0.00  0.00    -0.017 A 
ATOM      3  C   UNL     1     -11.175  13.468  66.993  0.00  0.00    -0.004 A 
ATOM      4  C   UNL     1     -12.245  13.842  66.202  0.00  0.00    -0.000 A 
ATOM      5  C   UNL     1     -12.530  13.036  65.136  0.00  0.00    +0.000 A 
ATOM      6  C   UNL     1     -11.630  12.061  64.752  0.00  0.00    +0.004 A 
ATOM      7  C   UNL     1     -10.534  11.725  65.538  0.00  0.00    +0.051 A 
ENDROOT
BRANCH   3   8
ATOM      8  C   UNL     1     -11.039  13.904  68.389  0.00  0.00    -0.000 A 
ATOM      9  C   UNL     1     -11.370  13.127  69.474  0.00  0.00    +0.003 A 
ATOM     10  C   UNL     1     -12.098  13.733  70.493  0.00  0.00    +0.037 A 
ATOM     11  C   UNL     1     -12.350  15.099  70.521  0.00  0.00    +0.147 A 
ATOM     12  C   UNL     1     -11.556  15.874  69.692  0.00  0.00    +0.037 A 
ATOM     13  C   UNL     1     -10.877  15.260  68.647  0.00  0.00    +0.003 A 
BRANCH  11  14
ATOM     14  O   UNL     1     -13.565  15.619  70.991  0.00  0.00    -0.404 OA
BRANCH  14  15
ATOM     15  C   UNL     1     -14.012  15.257  72.277  0.00  0.00    +0.575 C 
ATOM     16  F   UNL     1     -12.982  14.919  73.133  0.00  0.00    -0.133 F 
ATOM     17  F   UNL     1     -14.687  16.313  72.875  0.00  0.00    -0.133 F 
ATOM     18  F   UNL     1     -14.843  14.152  72.125  0.00  0.00    -0.133 F 
ENDBRANCH  14  15
ENDBRANCH  11  14
ENDBRANCH   3   8
BRANCH   7  19
ATOM     19  C   UNL     1      -9.696  10.567  65.329  0.00  0.00    +0.269 C 
ATOM     20  N   UNL     1      -8.994   9.882  66.377  0.00  0.00    -0.174 NA
ATOM     21  O   UNL     1      -9.694   9.919  64.238  0.00  0.00    -0.268 OA
BRANCH  20  22
ATOM     22  C   UNL     1      -9.268   8.491  66.644  0.00  0.00    +0.093 A 
ATOM     23  C   UNL     1      -8.317   7.857  67.441  0.00  0.00    +0.117 A 
ATOM     24  N   UNL     1      -8.676   7.104  68.514  0.00  0.00    -0.228 NA
ATOM     25  C   UNL     1      -9.963   7.054  68.947  0.00  0.00    +0.132 A 
ATOM     26  C   UNL     1     -10.879   7.174  67.915  0.00  0.00    +0.036 A 
ATOM     27  C   UNL     1     -10.563   8.034  66.866  0.00  0.00    +0.021 A 
BRANCH  25  28
ATOM     28  N   UNL     1     -10.257   7.106  70.315  0.00  0.00    -0.288 N 
ATOM     29  C   UNL     1      -9.370   6.949  71.422  0.00  0.00    +0.122 C 
ATOM     30  C   UNL     1      -9.278   8.409  72.184  0.00  0.00    +0.135 C 
ATOM     31  C   UNL     1      -8.983   7.723  73.656  0.00  0.00    +0.034 C 
ATOM     32  O   UNL     1     -10.767   8.437  72.468  0.00  0.00    -0.355 OA
ATOM     33  C   UNL     1     -11.274   9.007  71.159  0.00  0.00    +0.135 C 
ATOM     34  C   UNL     1     -12.788   9.205  71.778  0.00  0.00    +0.034 C 
ATOM     35  C   UNL     1     -11.639   7.489  70.625  0.00  0.00    +0.122 C 
ENDBRANCH  25  28
ENDBRANCH  20  22
ENDBRANCH   7  19
TORSDOF 6
ENDMDL
MODEL 2
REMARK VINA RESULT:      -8.1      3.751      7.319
REMARK  Name = 
REMARK  6 active torsions:
REMARK  status: ('A' for Active; 'I' for Inactive)
REMARK    1  A    between atoms: C_3  and  C_4
REMARK    2  A    between atoms: N_6  and  C_7
REMARK    3  A    between atoms: C_10  and  N_11
REMARK    4  A    between atoms: C_24  and  C_25
REMARK    5  A    between atoms: C_28  and  O_29
REMARK    6  A    between atoms: O_29  and  C_30
REMARK                            x       y       z     vdW  Elec       q    Type
REMARK                         _______ _______ _______ _____ _____    ______ ____
ROOT
ATOM      1  C   UNL     1     -11.330  11.038  68.675  0.00  0.00    +0.031 C 
ATOM      2  C   UNL     1     -10.745   9.836  68.216  0.00  0.00    -0.017 A 
ATOM      3  C   UNL     1     -10.664   8.725  69.016  0.00  0.00    -0.004 A 
ATOM      4  C   UNL     1     -10.619   7.455  68.471  0.00  0.00    -0.000 A 
ATOM      5  C   UNL     1     -10.185   7.358  67.179  0.00  0.00    +0.000 A 
ATOM      6  C   UNL     1     -10.052   8.499  66.411  0.00  0.00    +0.004 A 
ATOM      7  C   UNL     1     -10.142   9.770  66.967  0.00  0.00    +0.051 A 
ENDROOT
BRANCH   3   8
ATOM      8  C   UNL     1     -10.624   8.960  70.466  0.00  0.00    -0.000 A 
ATOM      9  C   UNL     1      -9.469   8.971  71.213  0.00  0.00    +0.003 A 
ATOM     10  C   UNL     1      -9.487   8.281  72.421  0.00  0.00    +0.037 A 
ATOM     11  C   UNL     1     -10.648   7.737  72.955  0.00  0.00    +0.147 A 
ATOM     12  C   UNL     1     -11.835   8.211  72.419  0.00  0.00    +0.037 A 
ATOM     13  C   UNL     1     -11.807   8.852  71.187  0.00  0.00    +0.003 A 
BRANCH  11  14
ATOM     14  O   UNL     1     -10.646   6.518  73.648  0.00  0.00    -0.404 OA
BRANCH  14  15
ATOM     15  C   UNL     1     -10.799   5.320  72.922  0.00  0.00    +0.575 C 
ATOM     16  F   UNL     1     -10.609   5.480  71.564  0.00  0.00    -0.133 F 
ATOM     17  F   UNL     1      -9.871   4.375  73.338  0.00  0.00    -0.133 F 
ATOM     18  F   UNL     1     -12.099   4.874  73.138  0.00  0.00    -0.133 F 
ENDBRANCH  14  15
ENDBRANCH  11  14
ENDBRANCH   3   8
BRANCH   7  19
ATOM     19  C   UNL     1      -9.778  10.991  66.287  0.00  0.00    +0.269 C 
ATOM     20  N   UNL     1     -10.287  11.381  65.003  0.00  0.00    -0.174 NA
ATOM     21  O   UNL     1      -9.156  11.932  66.869  0.00  0.00    -0.268 OA
BRANCH  20  22
ATOM     22  C   UNL     1     -11.031  12.609  64.860  0.00  0.00    +0.093 A 
ATOM     23  C   UNL     1     -12.101  12.743  65.742  0.00  0.00    +0.117 A 
ATOM     24  N   UNL     1     -12.289  13.879  66.464  0.00  0.00    -0.228 NA
ATOM     25  C   UNL     1     -11.367  14.876  66.472  0.00  0.00    +0.132 A 
ATOM     26  C   UNL     1     -10.692  14.988  65.268  0.00  0.00    +0.036 A 
ATOM     27  C   UNL     1     -10.397  13.815  64.580  0.00  0.00    +0.021 A 
BRANCH  25  28
ATOM     28  N   UNL     1     -11.029  15.525  67.667  0.00  0.00    -0.288 N 
ATOM     29  C   UNL     1     -11.848  15.766  68.810  0.00  0.00    +0.122 C 
ATOM     30  C   UNL     1     -11.241  14.856  70.045  0.00  0.00    +0.135 C 
ATOM     31  C   UNL     1     -11.756  15.917  71.199  0.00  0.00    +0.034 C 
ATOM     32  O   UNL     1      -9.890  15.542  69.984  0.00  0.00    -0.355 OA
ATOM     33  C   UNL     1      -9.231  14.728  68.889  0.00  0.00    +0.135 C 
ATOM     34  C   UNL     1      -7.768  15.426  69.187  0.00  0.00    +0.034 C 
ATOM     35  C   UNL     1      -9.611  15.889  67.780  0.00  0.00    +0.122 C 
ENDBRANCH  25  28
ENDBRANCH  20  22
ENDBRANCH   7  19
TORSDOF 6
ENDMDL
MODEL 3
REMARK VINA RESULT:      -8.0      4.611      9.028
REMARK  Name = 
REMARK  6 active torsions:
REMARK  status: ('A' for Active; 'I' for Inactive)
REMARK    1  A    between atoms: C_3  and  C_4
REMARK    2  A    between atoms: N_6  and  C_7
REMARK    3  A    between atoms: C_10  and  N_11
REMARK    4  A    between atoms: C_24  and  C_25
REMARK    5  A    between atoms: C_28  and  O_29
REMARK    6  A    between atoms: O_29  and  C_30
REMARK                            x       y       z     vdW  Elec       q    Type
REMARK                         _______ _______ _______ _____ _____    ______ ____
ROOT
ATOM      1  C   UNL     1      -9.599  10.036  69.413  0.00  0.00    +0.031 C 
ATOM      2  C   UNL     1     -10.811   9.866  70.121  0.00  0.00    -0.017 A 
ATOM      3  C   UNL     1     -11.006   8.804  70.966  0.00  0.00    -0.004 A 
ATOM      4  C   UNL     1     -11.885   8.891  72.030  0.00  0.00    -0.000 A 
ATOM      5  C   UNL     1     -12.867   9.836  71.936  0.00  0.00    +0.000 A 
ATOM      6  C   UNL     1     -12.803  10.798  70.947  0.00  0.00    +0.004 A 
ATOM      7  C   UNL     1     -11.885  10.719  69.907  0.00  0.00    +0.051 A 
ENDROOT
BRANCH   3   8
ATOM      8  C   UNL     1     -10.239   7.584  70.677  0.00  0.00    -0.000 A 
ATOM      9  C   UNL     1     -10.666   6.590  69.827  0.00  0.00    +0.003 A 
ATOM     10  C   UNL     1     -10.520   5.276  70.262  0.00  0.00    +0.037 A 
ATOM     11  C   UNL     1      -9.829   4.944  71.420  0.00  0.00    +0.147 A 
ATOM     12  C   UNL     1      -8.998   5.930  71.928  0.00  0.00    +0.037 A 
ATOM     13  C   UNL     1      -9.191   7.244  71.523  0.00  0.00    +0.003 A 
BRANCH  11  14
ATOM     14  O   UNL     1     -10.243   3.897  72.256  0.00  0.00    -0.404 OA
BRANCH  14  15
ATOM     15  C   UNL     1     -11.145   4.174  73.302  0.00  0.00    +0.575 C 
ATOM     16  F   UNL     1     -10.533   4.701  74.422  0.00  0.00    -0.133 F 
ATOM     17  F   UNL     1     -12.090   5.108  72.897  0.00  0.00    -0.133 F 
ATOM     18  F   UNL     1     -11.749   2.971  73.652  0.00  0.00    -0.133 F 
ENDBRANCH  14  15
ENDBRANCH  11  14
ENDBRANCH   3   8
BRANCH   7  19
ATOM     19  C   UNL     1     -11.916  11.541  68.720  0.00  0.00    +0.269 C 
ATOM     20  N   UNL     1     -11.546  12.928  68.691  0.00  0.00    -0.174 NA
ATOM     21  O   UNL     1     -12.050  11.050  67.557  0.00  0.00    -0.268 OA
BRANCH  20  22
ATOM     22  C   UNL     1     -10.459  13.371  67.853  0.00  0.00    +0.093 A 
ATOM     23  C   UNL     1     -10.818  14.307  66.885  0.00  0.00    +0.117 A 
ATOM     24  N   UNL     1     -10.109  15.452  66.705  0.00  0.00    -0.228 NA
ATOM     25  C   UNL     1      -9.107  15.807  67.551  0.00  0.00    +0.132 A 
ATOM     26  C   UNL     1      -8.436  14.714  68.073  0.00  0.00    +0.036 A 
ATOM     27  C   UNL     1      -9.182  13.577  68.366  0.00  0.00    +0.021 A 
BRANCH  25  28
ATOM     28  N   UNL     1      -8.975  17.134  67.980  0.00  0.00    -0.288 N 
ATOM     29  C   UNL     1      -7.878  17.743  68.662  0.00  0.00    +0.122 C 
ATOM     30  C   UNL     1      -7.204  18.833  67.624  0.00  0.00    +0.135 C 
ATOM     31  C   UNL     1      -6.686  19.812  68.848  0.00  0.00    +0.034 C 
ATOM     32  O   UNL     1      -8.491  19.626  67.504  0.00  0.00    -0.355 OA
ATOM     33  C   UNL     1      -9.190  18.831  66.420  0.00  0.00    +0.135 C 
ATOM     34  C   UNL     1     -10.361  19.979  66.267  0.00  0.00    +0.034 C 
ATOM     35  C   UNL     1     -10.066  18.021  67.559  0.00  0.00    +0.122 C 
ENDBRANCH  25  28
ENDBRANCH  20  22
ENDBRANCH   7  19
TORSDOF 6
ENDMDL
MODEL 4
REMARK VINA RESULT:      -8.0      5.605      9.020
REMARK  Name = 
REMARK  6 active torsions:
REMARK  status: ('A' for Active; 'I' for Inactive)
REMARK    1  A    between atoms: C_3  and  C_4
REMARK    2  A    between atoms: N_6  and  C_7
REMARK    3  A    between atoms: C_10  and  N_11
REMARK    4  A    between atoms: C_24  and  C_25
REMARK    5  A    between atoms: C_28  and  O_29
REMARK    6  A    between atoms: O_29  and  C_30
REMARK                            x       y       z     vdW  Elec       q    Type
REMARK                         _______ _______ _______ _____ _____    ______ ____
ROOT
ATOM      1  C   UNL     1     -10.568  15.263  68.119  0.00  0.00    +0.031 C 
ATOM      2  C   UNL     1     -10.931  14.621  66.913  0.00  0.00    -0.017 A 
ATOM      3  C   UNL     1     -11.272  13.293  66.880  0.00  0.00    -0.004 A 
ATOM      4  C   UNL     1     -12.114  12.796  65.902  0.00  0.00    -0.000 A 
ATOM      5  C   UNL     1     -12.201  13.518  64.745  0.00  0.00    +0.000 A 
ATOM      6  C   UNL     1     -11.668  14.792  64.688  0.00  0.00    +0.004 A 
ATOM      7  C   UNL     1     -10.858  15.293  65.700  0.00  0.00    +0.051 A 
ENDROOT
BRANCH   3   8
ATOM      8  C   UNL     1     -10.695  12.440  67.928  0.00  0.00    -0.000 A 
ATOM      9  C   UNL     1      -9.385  12.023  67.948  0.00  0.00    +0.003 A 
ATOM     10  C   UNL     1      -9.147  10.685  68.244  0.00  0.00    +0.037 A 
ATOM     11  C   UNL     1     -10.151   9.822  68.666  0.00  0.00    +0.147 A 
ATOM     12  C   UNL     1     -11.312  10.428  69.118  0.00  0.00    +0.037 A 
ATOM     13  C   UNL     1     -11.559  11.750  68.771  0.00  0.00    +0.003 A 
BRANCH  11  14
ATOM     14  O   UNL     1     -10.187   8.476  68.275  0.00  0.00    -0.404 OA
BRANCH  14  15
ATOM     15  C   UNL     1     -10.299   8.166  66.906  0.00  0.00    +0.575 C 
ATOM     16  F   UNL     1     -10.694   9.242  66.136  0.00  0.00    -0.133 F 
ATOM     17  F   UNL     1      -9.075   7.749  66.397  0.00  0.00    -0.133 F 
ATOM     18  F   UNL     1     -11.256   7.163  66.790  0.00  0.00    -0.133 F 
ENDBRANCH  14  15
ENDBRANCH  11  14
ENDBRANCH   3   8
BRANCH   7  19
ATOM     19  C   UNL     1     -10.075  16.503  65.603  0.00  0.00    +0.269 C 
ATOM     20  N   UNL     1     -10.634  17.809  65.403  0.00  0.00    -0.174 NA
ATOM     21  O   UNL     1      -8.846  16.543  65.917  0.00  0.00    -0.268 OA
BRANCH  20  22
ATOM     22  C   UNL     1     -10.423  18.846  66.383  0.00  0.00    +0.093 A 
ATOM     23  C   UNL     1     -10.595  18.439  67.704  0.00  0.00    +0.117 A 
ATOM     24  N   UNL     1      -9.676  18.725  68.662  0.00  0.00    -0.228 NA
ATOM     25  C   UNL     1      -8.480  19.292  68.353  0.00  0.00    +0.132 A 
ATOM     26  C   UNL     1      -8.561  20.148  67.267  0.00  0.00    +0.036 A 
ATOM     27  C   UNL     1      -9.420  19.798  66.229  0.00  0.00    +0.021 A 
BRANCH  25  28
ATOM     28  N   UNL     1      -7.300  18.841  68.957  0.00  0.00    -0.288 N 
ATOM     29  C   UNL     1      -6.616  17.604  68.758  0.00  0.00    +0.122 C 
ATOM     30  C   UNL     1      -5.182  17.952  68.022  0.00  0.00    +0.135 C 
ATOM     31  C   UNL     1      -4.419  16.651  68.692  0.00  0.00    +0.034 C 
ATOM     32  O   UNL     1      -4.726  18.838  69.165  0.00  0.00    -0.355 OA
ATOM     33  C   UNL     1      -5.393  20.140  68.770  0.00  0.00    +0.135 C 
ATOM     34  C   UNL     1      -4.566  20.969  69.930  0.00  0.00    +0.034 C 
ATOM     35  C   UNL     1      -6.636  19.834  69.810  0.00  0.00    +0.122 C 
ENDBRANCH  25  28
ENDBRANCH  20  22
ENDBRANCH   7  19
TORSDOF 6
ENDMDL
MODEL 5
REMARK VINA RESULT:      -7.9      3.948      5.058
REMARK  Name = 
REMARK  6 active torsions:
REMARK  status: ('A' for Active; 'I' for Inactive)
REMARK    1  A    between atoms: C_3  and  C_4
REMARK    2  A    between atoms: N_6  and  C_7
REMARK    3  A    between atoms: C_10  and  N_11
REMARK    4  A    between atoms: C_24  and  C_25
REMARK    5  A    between atoms: C_28  and  O_29
REMARK    6  A    between atoms: O_29  and  C_30
REMARK                            x       y       z     vdW  Elec       q    Type
REMARK                         _______ _______ _______ _____ _____    ______ ____
ROOT
ATOM      1  C   UNL     1     -11.232  14.882  65.517  0.00  0.00    +0.031 C 
ATOM      2  C   UNL     1     -10.997  15.023  66.904  0.00  0.00    -0.017 A 
ATOM      3  C   UNL     1     -10.542  16.200  67.441  0.00  0.00    -0.004 A 
ATOM      4  C   UNL     1     -10.816  16.539  68.753  0.00  0.00    -0.000 A 
ATOM      5  C   UNL     1     -11.113  15.510  69.601  0.00  0.00    +0.000 A 
ATOM      6  C   UNL     1     -11.367  14.251  69.093  0.00  0.00    +0.004 A 
ATOM      7  C   UNL     1     -11.127  13.937  67.760  0.00  0.00    +0.051 A 
ENDROOT
BRANCH   3   8
ATOM      8  C   UNL     1      -9.755  17.066  66.553  0.00  0.00    -0.000 A 
ATOM      9  C   UNL     1      -8.452  16.816  66.190  0.00  0.00    +0.003 A 
ATOM     10  C   UNL     1      -7.563  17.886  66.232  0.00  0.00    +0.037 A 
ATOM     11  C   UNL     1      -7.975  19.191  66.465  0.00  0.00    +0.147 A 
ATOM     12  C   UNL     1      -9.330  19.432  66.301  0.00  0.00    +0.037 A 
ATOM     13  C   UNL     1     -10.210  18.357  66.313  0.00  0.00    +0.003 A 
BRANCH  11  14
ATOM     14  O   UNL     1      -7.205  20.090  67.217  0.00  0.00    -0.404 OA
BRANCH  14  15
ATOM     15  C   UNL     1      -6.861  19.754  68.541  0.00  0.00    +0.575 C 
ATOM     16  F   UNL     1      -5.925  18.741  68.618  0.00  0.00    -0.133 F 
ATOM     17  F   UNL     1      -6.310  20.847  69.196  0.00  0.00    -0.133 F 
ATOM     18  F   UNL     1      -8.026  19.328  69.171  0.00  0.00    -0.133 F 
ENDBRANCH  14  15
ENDBRANCH  11  14
ENDBRANCH   3   8
BRANCH   7  19
ATOM     19  C   UNL     1     -11.135  12.599  67.217  0.00  0.00    +0.269 C 
ATOM     20  N   UNL     1      -9.991  11.962  66.629  0.00  0.00    -0.174 NA
ATOM     21  O   UNL     1     -12.091  11.789  67.421  0.00  0.00    -0.268 OA
BRANCH  20  22
ATOM     22  C   UNL     1      -9.473  10.739  67.192  0.00  0.00    +0.093 A 
ATOM     23  C   UNL     1      -8.655  10.916  68.306  0.00  0.00    +0.117 A 
ATOM     24  N   UNL     1      -8.835  10.193  69.443  0.00  0.00    -0.228 NA
ATOM     25  C   UNL     1      -9.906   9.372  69.600  0.00  0.00    +0.132 A 
ATOM     26  C   UNL     1     -10.322   8.804  68.408  0.00  0.00    +0.036 A 
ATOM     27  C   UNL     1     -10.245   9.584  67.258  0.00  0.00    +0.021 A 
BRANCH  25  28
ATOM     28  N   UNL     1     -10.601   9.332  70.816  0.00  0.00    -0.288 N 
ATOM     29  C   UNL     1     -11.964   9.667  71.072  0.00  0.00    +0.122 C 
ATOM     30  C   UNL     1     -12.740   8.271  71.480  0.00  0.00    +0.135 C 
ATOM     31  C   UNL     1     -13.834   9.053  72.437  0.00  0.00    +0.034 C 
ATOM     32  O   UNL     1     -11.835   8.028  72.671  0.00  0.00    -0.355 OA
ATOM     33  C   UNL     1     -10.676   7.335  71.984  0.00  0.00    +0.135 C 
ATOM     34  C   UNL     1      -9.996   6.935  73.431  0.00  0.00    +0.034 C 
ATOM     35  C   UNL     1      -9.840   8.756  71.931  0.00  0.00    +0.122 C 
ENDBRANCH  25  28
ENDBRANCH  20  22
ENDBRANCH   7  19
TORSDOF 6
ENDMDL
MODEL 6
REMARK VINA RESULT:      -7.8      4.558      8.644
REMARK  Name = 
REMARK  6 active torsions:
REMARK  status: ('A' for Active; 'I' for Inactive)
REMARK    1  A    between atoms: C_3  and  C_4
REMARK    2  A    between atoms: N_6  and  C_7
REMARK    3  A    between atoms: C_10  and  N_11
REMARK    4  A    between atoms: C_24  and  C_25
REMARK    5  A    between atoms: C_28  and  O_29
REMARK    6  A    between atoms: O_29  and  C_30
REMARK                            x       y       z     vdW  Elec       q    Type
REMARK                         _______ _______ _______ _____ _____    ______ ____
ROOT
ATOM      1  C   UNL     1      -8.751   9.811  69.855  0.00  0.00    +0.031 C 
ATOM      2  C   UNL     1     -10.132   9.989  70.098  0.00  0.00    -0.017 A 
ATOM      3  C   UNL     1     -10.825   9.160  70.941  0.00  0.00    -0.004 A 
ATOM      4  C   UNL     1     -11.958   9.598  71.601  0.00  0.00    -0.000 A 
ATOM      5  C   UNL     1     -12.617  10.660  71.047  0.00  0.00    +0.000 A 
ATOM      6  C   UNL     1     -12.019  11.387  70.036  0.00  0.00    +0.004 A 
ATOM      7  C   UNL     1     -10.856  10.954  69.411  0.00  0.00    +0.051 A 
ENDROOT
BRANCH   3   8
ATOM      8  C   UNL     1     -10.303   7.795  71.098  0.00  0.00    -0.000 A 
ATOM      9  C   UNL     1     -10.686   6.730  70.317  0.00  0.00    +0.003 A 
ATOM     10  C   UNL     1     -10.967   5.532  70.968  0.00  0.00    +0.037 A 
ATOM     11  C   UNL     1     -10.723   5.342  72.322  0.00  0.00    +0.147 A 
ATOM     12  C   UNL     1      -9.868   6.259  72.913  0.00  0.00    +0.037 A 
ATOM     13  C   UNL     1      -9.639   7.471  72.275  0.00  0.00    +0.003 A 
BRANCH  11  14
ATOM     14  O   UNL     1     -11.579   4.581  73.130  0.00  0.00    -0.404 OA
BRANCH  14  15
ATOM     15  C   UNL     1     -11.154   3.312  73.571  0.00  0.00    +0.575 C 
ATOM     16  F   UNL     1     -12.168   2.374  73.584  0.00  0.00    -0.133 F 
ATOM     17  F   UNL     1     -10.168   2.809  72.732  0.00  0.00    -0.133 F 
ATOM     18  F   UNL     1     -10.677   3.467  74.868  0.00  0.00    -0.133 F 
ENDBRANCH  14  15
ENDBRANCH  11  14
ENDBRANCH   3   8
BRANCH   7  19
ATOM     19  C   UNL     1     -10.312  11.523  68.199  0.00  0.00    +0.269 C 
ATOM     20  N   UNL     1     -10.790  11.216  66.881  0.00  0.00    -0.174 NA
ATOM     21  O   UNL     1      -9.523  12.517  68.211  0.00  0.00    -0.268 OA
BRANCH  20  22
ATOM     22  C   UNL     1     -11.320  12.261  66.040  0.00  0.00    +0.093 A 
ATOM     23  C   UNL     1     -12.059  13.230  66.716  0.00  0.00    +0.117 A 
ATOM     24  N   UNL     1     -11.837  14.556  66.524  0.00  0.00    -0.228 NA
ATOM     25  C   UNL     1     -10.792  15.001  65.779  0.00  0.00    +0.132 A 
ATOM     26  C   UNL     1     -10.474  14.142  64.740  0.00  0.00    +0.036 A 
ATOM     27  C   UNL     1     -10.592  12.774  64.972  0.00  0.00    +0.021 A 
BRANCH  25  28
ATOM     28  N   UNL     1     -10.024  16.092  66.206  0.00  0.00    -0.288 N 
ATOM     29  C   UNL     1     -10.384  17.472  66.241  0.00  0.00    +0.122 C 
ATOM     30  C   UNL     1     -10.472  17.913  67.828  0.00  0.00    +0.135 C 
ATOM     31  C   UNL     1     -10.053  19.477  67.510  0.00  0.00    +0.034 C 
ATOM     32  O   UNL     1      -9.023  17.551  68.086  0.00  0.00    -0.355 OA
ATOM     33  C   UNL     1      -9.166  16.067  68.356  0.00  0.00    +0.135 C 
ATOM     34  C   UNL     1      -7.602  15.962  68.864  0.00  0.00    +0.034 C 
ATOM     35  C   UNL     1      -8.733  15.729  66.801  0.00  0.00    +0.122 C 
ENDBRANCH  25  28
ENDBRANCH  20  22
ENDBRANCH   7  19
TORSDOF 6
ENDMDL
MODEL 7
REMARK VINA RESULT:      -7.8      5.332      8.732
REMARK  Name = 
REMARK  6 active torsions:
REMARK  status: ('A' for Active; 'I' for Inactive)
REMARK    1  A    between atoms: C_3  and  C_4
REMARK    2  A    between atoms: N_6  and  C_7
REMARK    3  A    between atoms: C_10  and  N_11
REMARK    4  A    between atoms: C_24  and  C_25
REMARK    5  A    between atoms: C_28  and  O_29
REMARK    6  A    between atoms: O_29  and  C_30
REMARK                            x       y       z     vdW  Elec       q    Type
REMARK                         _______ _______ _______ _____ _____    ______ ____
ROOT
ATOM      1  C   UNL     1     -10.682  15.310  68.330  0.00  0.00    +0.031 C 
ATOM      2  C   UNL     1     -10.928  14.533  67.176  0.00  0.00    -0.017 A 
ATOM      3  C   UNL     1     -11.262  13.205  67.262  0.00  0.00    -0.004 A 
ATOM      4  C   UNL     1     -12.009  12.592  66.272  0.00  0.00    -0.000 A 
ATOM      5  C   UNL     1     -11.988  13.178  65.039  0.00  0.00    +0.000 A 
ATOM      6  C   UNL     1     -11.455  14.444  64.887  0.00  0.00    +0.004 A 
ATOM      7  C   UNL     1     -10.744  15.065  65.907  0.00  0.00    +0.051 A 
ENDROOT
BRANCH   3   8
ATOM      8  C   UNL     1     -10.785  12.482  68.449  0.00  0.00    -0.000 A 
ATOM      9  C   UNL     1      -9.629  11.738  68.483  0.00  0.00    +0.003 A 
ATOM     10  C   UNL     1      -9.696  10.486  69.087  0.00  0.00    +0.037 A 
ATOM     11  C   UNL     1     -10.819  10.049  69.778  0.00  0.00    +0.147 A 
ATOM     12  C   UNL     1     -11.723  11.034  70.141  0.00  0.00    +0.037 A 
ATOM     13  C   UNL     1     -11.675  12.261  69.493  0.00  0.00    +0.003 A 
BRANCH  11  14
ATOM     14  O   UNL     1     -11.240   8.712  69.738  0.00  0.00    -0.404 OA
BRANCH  14  15
ATOM     15  C   UNL     1     -10.998   7.886  70.854  0.00  0.00    +0.575 C 
ATOM     16  F   UNL     1     -11.046   8.568  72.054  0.00  0.00    -0.133 F 
ATOM     17  F   UNL     1     -11.955   6.882  70.936  0.00  0.00    -0.133 F 
ATOM     18  F   UNL     1      -9.723   7.351  70.698  0.00  0.00    -0.133 F 
ENDBRANCH  14  15
ENDBRANCH  11  14
ENDBRANCH   3   8
BRANCH   7  19
ATOM     19  C   UNL     1      -9.958  16.266  65.747  0.00  0.00    +0.269 C 
ATOM     20  N   UNL     1     -10.511  17.556  65.446  0.00  0.00    -0.174 NA
ATOM     21  O   UNL     1      -8.736  16.329  66.086  0.00  0.00    -0.268 OA
BRANCH  20  22
ATOM     22  C   UNL     1     -10.321  18.657  66.358  0.00  0.00    +0.093 A 
ATOM     23  C   UNL     1     -10.507  18.335  67.701  0.00  0.00    +0.117 A 
ATOM     24  N   UNL     1      -9.602  18.693  68.650  0.00  0.00    -0.228 NA
ATOM     25  C   UNL     1      -8.408  19.250  68.318  0.00  0.00    +0.132 A 
ATOM     26  C   UNL     1      -8.482  20.032  67.178  0.00  0.00    +0.036 A 
ATOM     27  C   UNL     1      -9.325  19.607  66.155  0.00  0.00    +0.021 A 
BRANCH  25  28
ATOM     28  N   UNL     1      -7.231  18.850  68.965  0.00  0.00    -0.288 N 
ATOM     29  C   UNL     1      -6.470  17.660  68.769  0.00  0.00    +0.122 C 
ATOM     30  C   UNL     1      -5.027  18.107  68.108  0.00  0.00    +0.135 C 
ATOM     31  C   UNL     1      -4.221  16.835  68.781  0.00  0.00    +0.034 C 
ATOM     32  O   UNL     1      -4.674  18.988  69.290  0.00  0.00    -0.355 OA
ATOM     33  C   UNL     1      -5.397  20.260  68.896  0.00  0.00    +0.135 C 
ATOM     34  C   UNL     1      -4.670  21.104  70.111  0.00  0.00    +0.034 C 
ATOM     35  C   UNL     1      -6.665  19.857  69.870  0.00  0.00    +0.122 C 
ENDBRANCH  25  28
ENDBRANCH  20  22
ENDBRANCH   7  19
TORSDOF 6
ENDMDL
MODEL 8
REMARK VINA RESULT:      -7.7      4.235      8.431
REMARK  Name = 
REMARK  6 active torsions:
REMARK  status: ('A' for Active; 'I' for Inactive)
REMARK    1  A    between atoms: C_3  and  C_4
REMARK    2  A    between atoms: N_6  and  C_7
REMARK    3  A    between atoms: C_10  and  N_11
REMARK    4  A    between atoms: C_24  and  C_25
REMARK    5  A    between atoms: C_28  and  O_29
REMARK    6  A    between atoms: O_29  and  C_30
REMARK                            x       y       z     vdW  Elec       q    Type
REMARK                         _______ _______ _______ _____ _____    ______ ____
ROOT
ATOM      1  C   UNL     1      -9.216   9.396  69.949  0.00  0.00    +0.031 C 
ATOM      2  C   UNL     1     -10.528   9.842  70.223  0.00  0.00    -0.017 A 
ATOM      3  C   UNL     1     -11.365   9.145  71.057  0.00  0.00    -0.004 A 
ATOM      4  C   UNL     1     -12.376   9.784  71.750  0.00  0.00    -0.000 A 
ATOM      5  C   UNL     1     -12.813  10.972  71.238  0.00  0.00    +0.000 A 
ATOM      6  C   UNL     1     -12.094  11.594  70.235  0.00  0.00    +0.004 A 
ATOM      7  C   UNL     1     -11.051  10.954  69.577  0.00  0.00    +0.051 A 
ENDROOT
BRANCH   3   8
ATOM      8  C   UNL     1     -11.128   7.698  71.167  0.00  0.00    -0.000 A 
ATOM      9  C   UNL     1     -10.160   7.134  71.964  0.00  0.00    +0.003 A 
ATOM     10  C   UNL     1      -9.389   6.119  71.407  0.00  0.00    +0.037 A 
ATOM     11  C   UNL     1      -9.668   5.565  70.164  0.00  0.00    +0.147 A 
ATOM     12  C   UNL     1     -10.937   5.812  69.667  0.00  0.00    +0.037 A 
ATOM     13  C   UNL     1     -11.674   6.863  70.199  0.00  0.00    +0.003 A 
BRANCH  11  14
ATOM     14  O   UNL     1      -8.652   5.167  69.284  0.00  0.00    -0.404 OA
BRANCH  14  15
ATOM     15  C   UNL     1      -8.033   6.138  68.472  0.00  0.00    +0.575 C 
ATOM     16  F   UNL     1      -8.934   6.989  67.862  0.00  0.00    -0.133 F 
ATOM     17  F   UNL     1      -7.187   6.940  69.226  0.00  0.00    -0.133 F 
ATOM     18  F   UNL     1      -7.329   5.457  67.484  0.00  0.00    -0.133 F 
ENDBRANCH  14  15
ENDBRANCH  11  14
ENDBRANCH   3   8
BRANCH   7  19
ATOM     19  C   UNL     1     -10.420  11.438  68.371  0.00  0.00    +0.269 C 
ATOM     20  N   UNL     1     -10.825  11.066  67.045  0.00  0.00    -0.174 NA
ATOM     21  O   UNL     1      -9.604  12.411  68.375  0.00  0.00    -0.268 OA
BRANCH  20  22
ATOM     22  C   UNL     1     -11.273  12.073  66.115  0.00  0.00    +0.093 A 
ATOM     23  C   UNL     1     -12.063  13.072  66.680  0.00  0.00    +0.117 A 
ATOM     24  N   UNL     1     -11.818  14.388  66.448  0.00  0.00    -0.228 NA
ATOM     25  C   UNL     1     -10.709  14.797  65.777  0.00  0.00    +0.132 A 
ATOM     26  C   UNL     1     -10.307  13.891  64.810  0.00  0.00    +0.036 A 
ATOM     27  C   UNL     1     -10.452  12.536  65.092  0.00  0.00    +0.021 A 
BRANCH  25  28
ATOM     28  N   UNL     1      -9.975  15.905  66.221  0.00  0.00    -0.288 N 
ATOM     29  C   UNL     1     -10.319  17.287  66.143  0.00  0.00    +0.122 C 
ATOM     30  C   UNL     1     -10.562  17.816  67.687  0.00  0.00    +0.135 C 
ATOM     31  C   UNL     1     -10.094  19.357  67.328  0.00  0.00    +0.034 C 
ATOM     32  O   UNL     1      -9.151  17.459  68.110  0.00  0.00    -0.355 OA
ATOM     33  C   UNL     1      -9.339  15.994  68.445  0.00  0.00    +0.135 C 
ATOM     34  C   UNL     1      -7.836  15.906  69.114  0.00  0.00    +0.034 C 
ATOM     35  C   UNL     1      -8.755  15.567  66.962  0.00  0.00    +0.122 C 
ENDBRANCH  25  28
ENDBRANCH  20  22
ENDBRANCH   7  19
TORSDOF 6
ENDMDL
MODEL 9
REMARK VINA RESULT:      -7.5      4.562      8.941
REMARK  Name = 
REMARK  6 active torsions:
REMARK  status: ('A' for Active; 'I' for Inactive)
REMARK    1  A    between atoms: C_3  and  C_4
REMARK    2  A    between atoms: N_6  and  C_7
REMARK    3  A    between atoms: C_10  and  N_11
REMARK    4  A    between atoms: C_24  and  C_25
REMARK    5  A    between atoms: C_28  and  O_29
REMARK    6  A    between atoms: O_29  and  C_30
REMARK                            x       y       z     vdW  Elec       q    Type
REMARK                         _______ _______ _______ _____ _____    ______ ____
ROOT
ATOM      1  C   UNL     1      -9.806   9.778  69.344  0.00  0.00    +0.031 C 
ATOM      2  C   UNL     1     -10.989   9.756  70.117  0.00  0.00    -0.017 A 
ATOM      3  C   UNL     1     -11.263   8.728  70.982  0.00  0.00    -0.004 A 
ATOM      4  C   UNL     1     -12.067   8.923  72.090  0.00  0.00    -0.000 A 
ATOM      5  C   UNL     1     -12.934   9.978  72.039  0.00  0.00    +0.000 A 
ATOM      6  C   UNL     1     -12.810  10.922  71.038  0.00  0.00    +0.004 A 
ATOM      7  C   UNL     1     -11.965  10.731  69.952  0.00  0.00    +0.051 A 
ENDROOT
BRANCH   3   8
ATOM      8  C   UNL     1     -10.664   7.424  70.665  0.00  0.00    -0.000 A 
ATOM      9  C   UNL     1      -9.332   7.128  70.833  0.00  0.00    +0.003 A 
ATOM     10  C   UNL     1      -8.695   6.454  69.796  0.00  0.00    +0.037 A 
ATOM     11  C   UNL     1      -9.383   5.943  68.702  0.00  0.00    +0.147 A 
ATOM     12  C   UNL     1     -10.754   5.822  68.858  0.00  0.00    +0.037 A 
ATOM     13  C   UNL     1     -11.382   6.542  69.866  0.00  0.00    +0.003 A 
BRANCH  11  14
ATOM     14  O   UNL     1      -8.837   5.957  67.410  0.00  0.00    -0.404 OA
BRANCH  14  15
ATOM     15  C   UNL     1      -8.949   7.127  66.634  0.00  0.00    +0.575 C 
ATOM     16  F   UNL     1     -10.210   7.689  66.678  0.00  0.00    -0.133 F 
ATOM     17  F   UNL     1      -8.071   8.102  67.089  0.00  0.00    -0.133 F 
ATOM     18  F   UNL     1      -8.667   6.774  65.318  0.00  0.00    -0.133 F 
ENDBRANCH  14  15
ENDBRANCH  11  14
ENDBRANCH   3   8
BRANCH   7  19
ATOM     19  C   UNL     1     -11.961  11.546  68.759  0.00  0.00    +0.269 C 
ATOM     20  N   UNL     1     -11.591  12.932  68.733  0.00  0.00    -0.174 NA
ATOM     21  O   UNL     1     -12.062  11.048  67.596  0.00  0.00    -0.268 OA
BRANCH  20  22
ATOM     22  C   UNL     1     -10.480  13.371  67.924  0.00  0.00    +0.093 A 
ATOM     23  C   UNL     1     -10.812  14.299  66.939  0.00  0.00    +0.117 A 
ATOM     24  N   UNL     1     -10.098  15.443  66.770  0.00  0.00    -0.228 NA
ATOM     25  C   UNL     1      -9.122  15.806  67.643  0.00  0.00    +0.132 A 
ATOM     26  C   UNL     1      -8.466  14.718  68.193  0.00  0.00    +0.036 A 
ATOM     27  C   UNL     1      -9.219  13.581  68.472  0.00  0.00    +0.021 A 
BRANCH  25  28
ATOM     28  N   UNL     1      -9.003  17.136  68.066  0.00  0.00    -0.288 N 
ATOM     29  C   UNL     1      -7.899  17.768  68.711  0.00  0.00    +0.122 C 
ATOM     30  C   UNL     1      -7.281  18.871  67.651  0.00  0.00    +0.135 C 
ATOM     31  C   UNL     1      -6.744  19.862  68.856  0.00  0.00    +0.034 C 
ATOM     32  O   UNL     1      -8.587  19.636  67.571  0.00  0.00    -0.355 OA
ATOM     33  C   UNL     1      -9.303  18.824  66.511  0.00  0.00    +0.135 C 
ATOM     34  C   UNL     1     -10.503  19.948  66.394  0.00  0.00    +0.034 C 
ATOM     35  C   UNL     1     -10.125  17.999  67.678  0.00  0.00    +0.122 C 
ENDBRANCH  25  28
ENDBRANCH  20  22
ENDBRANCH   7  19
TORSDOF 6
ENDMDL
