MODEL 1
REMARK VINA RESULT:      -7.6      0.000      0.000
REMARK  Name = 
REMARK  2 active torsions:
REMARK  status: ('A' for Active; 'I' for Inactive)
REMARK    1  A    between atoms: C_23  and  C_25
REMARK    2  A    between atoms: C_25  and  C_27
REMARK                            x       y       z     vdW  Elec       q    Type
REMARK                         _______ _______ _______ _____ _____    ______ ____
ROOT
ATOM      1  C   UNL     1      -7.586  17.924  66.525  0.00  0.00    +0.003 C 
ATOM      2  C   UNL     1      -8.445  17.968  67.802  0.00  0.00    +0.037 C 
ATOM      3  C   UNL     1      -8.455  19.347  68.149  0.00  0.00    +0.207 C 
ATOM      4  O   UNL     1      -8.846  19.590  69.443  0.00  0.00    -0.215 OA
ATOM      5  C   UNL     1      -9.533  20.095  67.157  0.00  0.00    +0.186 C 
ATOM      6  O   UNL     1     -10.754  19.758  68.002  0.00  0.00    -0.220 OA
ATOM      7  C   UNL     1      -9.714  18.819  66.124  0.00  0.00    +0.036 C 
ATOM      8  C   UNL     1      -9.970  17.765  67.306  0.00  0.00    +0.008 C 
ATOM      9  C   UNL     1      -9.476  16.347  66.525  0.00  0.00    +0.034 C 
ATOM     10  C   UNL     1     -10.752  16.147  65.550  0.00  0.00    +0.007 C 
ATOM     11  C   UNL     1     -10.474  14.767  64.970  0.00  0.00    +0.023 C 
ATOM     12  C   UNL     1      -9.838  13.876  66.012  0.00  0.00    -0.035 C 
ATOM     13  C   UNL     1     -10.386  14.159  67.389  0.00  0.00    +0.064 C 
ATOM     14  C   UNL     1     -10.117  13.042  68.361  0.00  0.00    +0.011 C 
ATOM     15  C   UNL     1     -11.821  13.758  67.074  0.00  0.00    -0.017 C 
ATOM     16  C   UNL     1     -11.963  12.524  66.549  0.00  0.00    +0.038 C 
ATOM     17  C   UNL     1     -10.779  11.665  66.363  0.00  0.00    +0.195 C 
ATOM     18  O   UNL     1     -10.624  10.490  66.693  0.00  0.00    -0.287 OA
ATOM     19  C   UNL     1      -9.720  12.542  65.817  0.00  0.00    +0.034 C 
ATOM     20  C   UNL     1     -10.157  15.505  67.706  0.00  0.00    +0.168 C 
ATOM     21  F   UNL     1     -11.441  16.041  67.944  0.00  0.00    -0.237 F 
ATOM     22  C   UNL     1      -9.347  15.858  69.071  0.00  0.00    +0.182 C 
ATOM     23  O   UNL     1      -8.426  14.648  68.953  0.00  0.00    -0.220 OA
ATOM     24  C   UNL     1      -8.136  16.810  68.487  0.00  0.00    +0.039 C 
ENDROOT
BRANCH   3  25
ATOM     25  C   UNL     1      -7.187  20.051  67.747  0.00  0.00    +0.213 C 
ATOM     26  O   UNL     1      -7.205  21.184  67.261  0.00  0.00    -0.291 OA
BRANCH  25  27
ATOM     27  C   UNL     1      -5.898  19.954  68.497  0.00  0.00    +0.248 C 
ATOM     28  O   UNL     1      -5.690  20.975  69.378  0.00  0.00    -0.212 OA
ENDBRANCH  25  27
ENDBRANCH   3  25
TORSDOF 2
ENDMDL
MODEL 2
REMARK VINA RESULT:      -7.4      1.704      6.889
REMARK  Name = 
REMARK  2 active torsions:
REMARK  status: ('A' for Active; 'I' for Inactive)
REMARK    1  A    between atoms: C_23  and  C_25
REMARK    2  A    between atoms: C_25  and  C_27
REMARK                            x       y       z     vdW  Elec       q    Type
REMARK                         _______ _______ _______ _____ _____    ______ ____
ROOT
ATOM      1  C   UNL     1      -9.837  14.612  65.372  0.00  0.00    +0.003 C 
ATOM      2  C   UNL     1     -10.521  15.011  66.691  0.00  0.00    +0.037 C 
ATOM      3  C   UNL     1     -11.204  13.827  67.084  0.00  0.00    +0.207 C 
ATOM      4  O   UNL     1     -12.177  14.035  68.030  0.00  0.00    -0.215 OA
ATOM      5  C   UNL     1     -10.087  12.812  67.738  0.00  0.00    +0.186 C 
ATOM      6  O   UNL     1     -10.133  13.433  69.128  0.00  0.00    -0.220 OA
ATOM      7  C   UNL     1      -8.771  13.674  67.236  0.00  0.00    +0.036 C 
ATOM      8  C   UNL     1      -9.341  15.066  67.795  0.00  0.00    +0.008 C 
ATOM      9  C   UNL     1      -8.508  16.134  66.779  0.00  0.00    +0.034 C 
ATOM     10  C   UNL     1      -7.042  16.022  67.455  0.00  0.00    +0.007 C 
ATOM     11  C   UNL     1      -6.289  17.124  66.724  0.00  0.00    +0.023 C 
ATOM     12  C   UNL     1      -7.201  18.300  66.460  0.00  0.00    -0.035 C 
ATOM     13  C   UNL     1      -8.184  18.501  67.587  0.00  0.00    +0.064 C 
ATOM     14  C   UNL     1      -8.802  19.872  67.579  0.00  0.00    +0.011 C 
ATOM     15  C   UNL     1      -7.139  18.801  68.654  0.00  0.00    -0.017 C 
ATOM     16  C   UNL     1      -6.279  19.792  68.345  0.00  0.00    +0.038 C 
ATOM     17  C   UNL     1      -6.425  20.518  67.069  0.00  0.00    +0.195 C 
ATOM     18  O   UNL     1      -6.437  21.733  66.875  0.00  0.00    -0.287 OA
ATOM     19  C   UNL     1      -6.710  19.490  66.044  0.00  0.00    +0.034 C 
ATOM     20  C   UNL     1      -8.941  17.333  67.749  0.00  0.00    +0.168 C 
ATOM     21  F   UNL     1      -8.700  16.930  69.081  0.00  0.00    -0.237 F 
ATOM     22  C   UNL     1     -10.562  17.440  67.680  0.00  0.00    +0.182 C 
ATOM     23  O   UNL     1     -10.543  18.524  66.608  0.00  0.00    -0.220 OA
ATOM     24  C   UNL     1     -10.907  16.325  66.516  0.00  0.00    +0.039 C 
ENDROOT
BRANCH   3  25
ATOM     25  C   UNL     1     -11.656  13.006  65.906  0.00  0.00    +0.213 C 
ATOM     26  O   UNL     1     -11.620  11.773  65.928  0.00  0.00    -0.291 OA
BRANCH  25  27
ATOM     27  C   UNL     1     -12.812  13.361  65.029  0.00  0.00    +0.248 C 
ATOM     28  O   UNL     1     -13.187  12.365  64.174  0.00  0.00    -0.212 OA
ENDBRANCH  25  27
ENDBRANCH   3  25
TORSDOF 2
ENDMDL
MODEL 3
REMARK VINA RESULT:      -7.2      1.619      7.018
REMARK  Name = 
REMARK  2 active torsions:
REMARK  status: ('A' for Active; 'I' for Inactive)
REMARK    1  A    between atoms: C_23  and  C_25
REMARK    2  A    between atoms: C_25  and  C_27
REMARK                            x       y       z     vdW  Elec       q    Type
REMARK                         _______ _______ _______ _____ _____    ______ ____
ROOT
ATOM      1  C   UNL     1      -8.753  12.672  66.279  0.00  0.00    +0.003 C 
ATOM      2  C   UNL     1     -10.232  13.089  66.186  0.00  0.00    +0.037 C 
ATOM      3  C   UNL     1     -10.929  11.850  66.202  0.00  0.00    +0.207 C 
ATOM      4  O   UNL     1     -12.227  11.938  65.764  0.00  0.00    -0.215 OA
ATOM      5  C   UNL     1     -10.967  11.331  67.763  0.00  0.00    +0.186 C 
ATOM      6  O   UNL     1     -12.189  12.151  68.152  0.00  0.00    -0.220 OA
ATOM      7  C   UNL     1      -9.869  12.428  68.326  0.00  0.00    +0.036 C 
ATOM      8  C   UNL     1     -10.612  13.676  67.643  0.00  0.00    +0.008 C 
ATOM      9  C   UNL     1      -9.300  14.737  67.504  0.00  0.00    +0.034 C 
ATOM     10  C   UNL     1      -9.171  15.171  69.058  0.00  0.00    +0.007 C 
ATOM     11  C   UNL     1      -8.145  16.293  68.972  0.00  0.00    +0.023 C 
ATOM     12  C   UNL     1      -8.343  17.092  67.704  0.00  0.00    -0.035 C 
ATOM     13  C   UNL     1      -9.804  17.203  67.344  0.00  0.00    +0.064 C 
ATOM     14  C   UNL     1     -10.077  18.316  66.369  0.00  0.00    +0.011 C 
ATOM     15  C   UNL     1     -10.215  17.975  68.591  0.00  0.00    -0.017 C 
ATOM     16  C   UNL     1      -9.506  19.098  68.824  0.00  0.00    +0.038 C 
ATOM     17  C   UNL     1      -8.455  19.511  67.874  0.00  0.00    +0.195 C 
ATOM     18  O   UNL     1      -8.272  20.616  67.367  0.00  0.00    -0.287 OA
ATOM     19  C   UNL     1      -7.720  18.279  67.517  0.00  0.00    +0.034 C 
ATOM     20  C   UNL     1     -10.337  15.916  67.188  0.00  0.00    +0.168 C 
ATOM     21  F   UNL     1     -11.385  15.845  68.132  0.00  0.00    -0.237 F 
ATOM     22  C   UNL     1     -11.072  15.541  65.787  0.00  0.00    +0.182 C 
ATOM     23  O   UNL     1     -10.110  16.376  64.947  0.00  0.00    -0.220 OA
ATOM     24  C   UNL     1     -10.247  14.185  65.345  0.00  0.00    +0.039 C 
ENDROOT
BRANCH   3  25
ATOM     25  C   UNL     1     -10.139  10.737  65.568  0.00  0.00    +0.213 C 
ATOM     26  O   UNL     1      -9.940   9.672  66.156  0.00  0.00    -0.291 OA
BRANCH  25  27
ATOM     27  C   UNL     1     -10.192  10.391  64.115  0.00  0.00    +0.248 C 
ATOM     28  O   UNL     1      -9.964  11.450  63.284  0.00  0.00    -0.212 OA
ENDBRANCH  25  27
ENDBRANCH   3  25
TORSDOF 2
ENDMDL
MODEL 4
REMARK VINA RESULT:      -6.9      2.418      7.057
REMARK  Name = 
REMARK  2 active torsions:
REMARK  status: ('A' for Active; 'I' for Inactive)
REMARK    1  A    between atoms: C_23  and  C_25
REMARK    2  A    between atoms: C_25  and  C_27
REMARK                            x       y       z     vdW  Elec       q    Type
REMARK                         _______ _______ _______ _____ _____    ______ ____
ROOT
ATOM      1  C   UNL     1      -8.114  16.147  66.552  0.00  0.00    +0.003 C 
ATOM      2  C   UNL     1      -8.948  17.368  66.978  0.00  0.00    +0.037 C 
ATOM      3  C   UNL     1     -10.256  16.836  67.144  0.00  0.00    +0.207 C 
ATOM      4  O   UNL     1     -11.244  17.789  67.165  0.00  0.00    -0.215 OA
ATOM      5  C   UNL     1     -10.289  16.057  68.592  0.00  0.00    +0.186 C 
ATOM      6  O   UNL     1     -10.572  17.307  69.415  0.00  0.00    -0.220 OA
ATOM      7  C   UNL     1      -8.655  16.092  68.831  0.00  0.00    +0.036 C 
ATOM      8  C   UNL     1      -8.538  17.661  68.514  0.00  0.00    +0.008 C 
ATOM      9  C   UNL     1      -6.921  17.723  68.019  0.00  0.00    +0.034 C 
ATOM     10  C   UNL     1      -6.215  17.572  69.468  0.00  0.00    +0.007 C 
ATOM     11  C   UNL     1      -4.757  17.838  69.121  0.00  0.00    +0.023 C 
ATOM     12  C   UNL     1      -4.655  18.893  68.044  0.00  0.00    -0.035 C 
ATOM     13  C   UNL     1      -5.731  19.941  68.194  0.00  0.00    +0.064 C 
ATOM     14  C   UNL     1      -5.419  21.204  67.438  0.00  0.00    +0.011 C 
ATOM     15  C   UNL     1      -5.269  20.447  69.554  0.00  0.00    -0.017 C 
ATOM     16  C   UNL     1      -3.974  20.819  69.612  0.00  0.00    +0.038 C 
ATOM     17  C   UNL     1      -3.138  20.756  68.398  0.00  0.00    +0.195 C 
ATOM     18  O   UNL     1      -2.397  21.619  67.931  0.00  0.00    -0.287 OA
ATOM     19  C   UNL     1      -3.471  19.474  67.739  0.00  0.00    +0.034 C 
ATOM     20  C   UNL     1      -6.986  19.320  68.139  0.00  0.00    +0.168 C 
ATOM     21  F   UNL     1      -7.600  19.643  69.369  0.00  0.00    -0.237 F 
ATOM     22  C   UNL     1      -8.065  19.837  67.038  0.00  0.00    +0.182 C 
ATOM     23  O   UNL     1      -6.999  20.118  65.984  0.00  0.00    -0.220 OA
ATOM     24  C   UNL     1      -8.430  18.430  66.263  0.00  0.00    +0.039 C 
ENDROOT
BRANCH   3  25
ATOM     25  C   UNL     1     -10.532  15.685  66.214  0.00  0.00    +0.213 C 
ATOM     26  O   UNL     1     -10.789  14.558  66.642  0.00  0.00    -0.291 OA
BRANCH  25  27
ATOM     27  C   UNL     1     -11.277  15.807  64.924  0.00  0.00    +0.248 C 
ATOM     28  O   UNL     1     -11.164  17.031  64.330  0.00  0.00    -0.212 OA
ENDBRANCH  25  27
ENDBRANCH   3  25
TORSDOF 2
ENDMDL
MODEL 5
REMARK VINA RESULT:      -6.9      1.731      6.801
REMARK  Name = 
REMARK  2 active torsions:
REMARK  status: ('A' for Active; 'I' for Inactive)
REMARK    1  A    between atoms: C_23  and  C_25
REMARK    2  A    between atoms: C_25  and  C_27
REMARK                            x       y       z     vdW  Elec       q    Type
REMARK                         _______ _______ _______ _____ _____    ______ ____
ROOT
ATOM      1  C   UNL     1     -10.742  14.035  68.811  0.00  0.00    +0.003 C 
ATOM      2  C   UNL     1      -9.724  13.666  67.716  0.00  0.00    +0.037 C 
ATOM      3  C   UNL     1     -10.245  12.462  67.169  0.00  0.00    +0.207 C 
ATOM      4  O   UNL     1      -9.333  11.747  66.433  0.00  0.00    -0.215 OA
ATOM      5  C   UNL     1     -11.480  12.873  66.163  0.00  0.00    +0.186 C 
ATOM      6  O   UNL     1     -10.589  13.164  64.963  0.00  0.00    -0.220 OA
ATOM      7  C   UNL     1     -11.575  14.446  66.659  0.00  0.00    +0.036 C 
ATOM      8  C   UNL     1      -9.998  14.699  66.502  0.00  0.00    +0.008 C 
ATOM      9  C   UNL     1      -9.811  15.969  67.605  0.00  0.00    +0.034 C 
ATOM     10  C   UNL     1     -10.478  17.155  66.729  0.00  0.00    +0.007 C 
ATOM     11  C   UNL     1     -10.147  18.376  67.575  0.00  0.00    +0.023 C 
ATOM     12  C   UNL     1      -8.785  18.223  68.213  0.00  0.00    -0.035 C 
ATOM     13  C   UNL     1      -7.828  17.497  67.300  0.00  0.00    +0.064 C 
ATOM     14  C   UNL     1      -6.389  17.698  67.693  0.00  0.00    +0.011 C 
ATOM     15  C   UNL     1      -7.841  18.543  66.194  0.00  0.00    -0.017 C 
ATOM     16  C   UNL     1      -7.548  19.798  66.594  0.00  0.00    +0.038 C 
ATOM     17  C   UNL     1      -7.206  20.055  68.006  0.00  0.00    +0.195 C 
ATOM     18  O   UNL     1      -6.254  20.688  68.461  0.00  0.00    -0.287 OA
ATOM     19  C   UNL     1      -8.168  19.269  68.809  0.00  0.00    +0.034 C 
ATOM     20  C   UNL     1      -8.356  16.237  66.990  0.00  0.00    +0.168 C 
ATOM     21  F   UNL     1      -8.466  16.230  65.582  0.00  0.00    -0.237 F 
ATOM     22  C   UNL     1      -7.458  14.917  67.299  0.00  0.00    +0.182 C 
ATOM     23  O   UNL     1      -6.855  15.506  68.571  0.00  0.00    -0.220 OA
ATOM     24  C   UNL     1      -8.495  14.034  68.225  0.00  0.00    +0.039 C 
ENDROOT
BRANCH   3  25
ATOM     25  C   UNL     1     -10.991  11.642  68.188  0.00  0.00    +0.213 C 
ATOM     26  O   UNL     1     -12.106  11.174  67.947  0.00  0.00    -0.291 OA
BRANCH  25  27
ATOM     27  C   UNL     1     -10.343  10.678  69.129  0.00  0.00    +0.248 C 
ATOM     28  O   UNL     1     -11.112  10.352  70.208  0.00  0.00    -0.212 OA
ENDBRANCH  25  27
ENDBRANCH   3  25
TORSDOF 2
ENDMDL
MODEL 6
REMARK VINA RESULT:      -6.8      2.120      6.890
REMARK  Name = 
REMARK  2 active torsions:
REMARK  status: ('A' for Active; 'I' for Inactive)
REMARK    1  A    between atoms: C_23  and  C_25
REMARK    2  A    between atoms: C_25  and  C_27
REMARK                            x       y       z     vdW  Elec       q    Type
REMARK                         _______ _______ _______ _____ _____    ______ ____
ROOT
ATOM      1  C   UNL     1      -9.010  15.323  66.542  0.00  0.00    +0.003 C 
ATOM      2  C   UNL     1      -9.893  16.356  67.264  0.00  0.00    +0.037 C 
ATOM      3  C   UNL     1     -10.968  15.577  67.774  0.00  0.00    +0.207 C 
ATOM      4  O   UNL     1     -12.065  16.317  68.140  0.00  0.00    -0.215 OA
ATOM      5  C   UNL     1     -10.419  14.807  69.121  0.00  0.00    +0.186 C 
ATOM      6  O   UNL     1     -10.674  15.978  70.062  0.00  0.00    -0.220 OA
ATOM      7  C   UNL     1      -8.825  15.164  68.873  0.00  0.00    +0.036 C 
ATOM      8  C   UNL     1      -9.106  16.725  68.627  0.00  0.00    +0.008 C 
ATOM      9  C   UNL     1      -7.752  17.104  67.685  0.00  0.00    +0.034 C 
ATOM     10  C   UNL     1      -6.631  17.096  68.852  0.00  0.00    +0.007 C 
ATOM     11  C   UNL     1      -5.421  17.644  68.110  0.00  0.00    +0.023 C 
ATOM     12  C   UNL     1      -5.846  18.698  67.114  0.00  0.00    -0.035 C 
ATOM     13  C   UNL     1      -7.004  19.513  67.633  0.00  0.00    +0.064 C 
ATOM     14  C   UNL     1      -7.176  20.812  66.894  0.00  0.00    +0.011 C 
ATOM     15  C   UNL     1      -6.261  20.101  68.825  0.00  0.00    -0.017 C 
ATOM     16  C   UNL     1      -5.102  20.721  68.523  0.00  0.00    +0.038 C 
ATOM     17  C   UNL     1      -4.671  20.823  67.116  0.00  0.00    +0.195 C 
ATOM     18  O   UNL     1      -4.280  21.815  66.504  0.00  0.00    -0.287 OA
ATOM     19  C   UNL     1      -4.938  19.500  66.510  0.00  0.00    +0.034 C 
ATOM     20  C   UNL     1      -8.078  18.657  67.912  0.00  0.00    +0.168 C 
ATOM     21  F   UNL     1      -8.346  18.853  69.285  0.00  0.00    -0.237 F 
ATOM     22  C   UNL     1      -9.513  18.950  67.207  0.00  0.00    +0.182 C 
ATOM     23  O   UNL     1      -8.884  19.436  65.905  0.00  0.00    -0.220 OA
ATOM     24  C   UNL     1      -9.822  17.499  66.492  0.00  0.00    +0.039 C 
ENDROOT
BRANCH   3  25
ATOM     25  C   UNL     1     -11.286  14.393  66.900  0.00  0.00    +0.213 C 
ATOM     26  O   UNL     1     -11.699  13.333  67.376  0.00  0.00    -0.291 OA
BRANCH  25  27
ATOM     27  C   UNL     1     -11.902  14.494  65.542  0.00  0.00    +0.248 C 
ATOM     28  O   UNL     1     -13.185  14.034  65.479  0.00  0.00    -0.212 OA
ENDBRANCH  25  27
ENDBRANCH   3  25
TORSDOF 2
ENDMDL
MODEL 7
REMARK VINA RESULT:      -6.7      3.513      5.847
REMARK  Name = 
REMARK  2 active torsions:
REMARK  status: ('A' for Active; 'I' for Inactive)
REMARK    1  A    between atoms: C_23  and  C_25
REMARK    2  A    between atoms: C_25  and  C_27
REMARK                            x       y       z     vdW  Elec       q    Type
REMARK                         _______ _______ _______ _____ _____    ______ ____
ROOT
ATOM      1  C   UNL     1      -9.678  14.116  66.132  0.00  0.00    +0.003 C 
ATOM      2  C   UNL     1     -11.123  13.627  66.333  0.00  0.00    +0.037 C 
ATOM      3  C   UNL     1     -11.841  14.269  65.287  0.00  0.00    +0.207 C 
ATOM      4  O   UNL     1     -13.201  14.282  65.473  0.00  0.00    -0.215 OA
ATOM      5  C   UNL     1     -11.538  13.436  63.901  0.00  0.00    +0.186 C 
ATOM      6  O   UNL     1     -12.610  12.380  64.139  0.00  0.00    -0.220 OA
ATOM      7  C   UNL     1     -10.303  12.532  64.522  0.00  0.00    +0.036 C 
ATOM      8  C   UNL     1     -11.139  12.093  65.820  0.00  0.00    +0.008 C 
ATOM      9  C   UNL     1      -9.858  11.777  66.880  0.00  0.00    +0.034 C 
ATOM     10  C   UNL     1      -9.361  10.371  66.251  0.00  0.00    +0.007 C 
ATOM     11  C   UNL     1      -8.345   9.920  67.290  0.00  0.00    +0.023 C 
ATOM     12  C   UNL     1      -8.800  10.311  68.677  0.00  0.00    -0.035 C 
ATOM     13  C   UNL     1     -10.300  10.218  68.812  0.00  0.00    +0.064 C 
ATOM     14  C   UNL     1     -10.750  10.175  70.247  0.00  0.00    +0.011 C 
ATOM     15  C   UNL     1     -10.387   8.717  68.571  0.00  0.00    -0.017 C 
ATOM     16  C   UNL     1      -9.605   7.965  69.372  0.00  0.00    +0.038 C 
ATOM     17  C   UNL     1      -8.786   8.614  70.413  0.00  0.00    +0.195 C 
ATOM     18  O   UNL     1      -8.685   8.319  71.603  0.00  0.00    -0.287 OA
ATOM     19  C   UNL     1      -8.195   9.813  69.781  0.00  0.00    +0.034 C 
ATOM     20  C   UNL     1     -10.898  11.052  67.859  0.00  0.00    +0.168 C 
ATOM     21  F   UNL     1     -11.704  10.190  67.083  0.00  0.00    -0.237 F 
ATOM     22  C   UNL     1     -11.947  12.187  68.364  0.00  0.00    +0.182 C 
ATOM     23  O   UNL     1     -11.175  12.467  69.650  0.00  0.00    -0.220 OA
ATOM     24  C   UNL     1     -11.292  13.546  67.701  0.00  0.00    +0.039 C 
ENDROOT
BRANCH   3  25
ATOM     25  C   UNL     1     -11.256  15.609  64.927  0.00  0.00    +0.213 C 
ATOM     26  O   UNL     1     -11.619  16.222  63.920  0.00  0.00    -0.291 OA
BRANCH  25  27
ATOM     27  C   UNL     1     -10.882  16.658  65.924  0.00  0.00    +0.248 C 
ATOM     28  O   UNL     1     -10.227  17.727  65.386  0.00  0.00    -0.212 OA
ENDBRANCH  25  27
ENDBRANCH   3  25
TORSDOF 2
ENDMDL
MODEL 8
REMARK VINA RESULT:      -6.6      3.661      6.034
REMARK  Name = 
REMARK  2 active torsions:
REMARK  status: ('A' for Active; 'I' for Inactive)
REMARK    1  A    between atoms: C_23  and  C_25
REMARK    2  A    between atoms: C_25  and  C_27
REMARK                            x       y       z     vdW  Elec       q    Type
REMARK                         _______ _______ _______ _____ _____    ______ ____
ROOT
ATOM      1  C   UNL     1      -9.390  13.860  68.469  0.00  0.00    +0.003 C 
ATOM      2  C   UNL     1     -10.762  13.350  67.991  0.00  0.00    +0.037 C 
ATOM      3  C   UNL     1     -11.104  14.248  66.943  0.00  0.00    +0.207 C 
ATOM      4  O   UNL     1     -12.435  14.226  66.606  0.00  0.00    -0.215 OA
ATOM      5  C   UNL     1     -10.249  13.796  65.612  0.00  0.00    +0.186 C 
ATOM      6  O   UNL     1     -11.238  12.726  65.170  0.00  0.00    -0.220 OA
ATOM      7  C   UNL     1      -9.249  12.751  66.410  0.00  0.00    +0.036 C 
ATOM      8  C   UNL     1     -10.457  12.001  67.154  0.00  0.00    +0.008 C 
ATOM      9  C   UNL     1      -9.625  11.410  68.504  0.00  0.00    +0.034 C 
ATOM     10  C   UNL     1      -8.814  10.208  67.785  0.00  0.00    +0.007 C 
ATOM     11  C   UNL     1      -8.209   9.494  68.985  0.00  0.00    +0.023 C 
ATOM     12  C   UNL     1      -9.168   9.519  70.153  0.00  0.00    -0.035 C 
ATOM     13  C   UNL     1     -10.601   9.410  69.693  0.00  0.00    +0.064 C 
ATOM     14  C   UNL     1     -11.535   9.004  70.800  0.00  0.00    +0.011 C 
ATOM     15  C   UNL     1     -10.464   8.023  69.079  0.00  0.00    -0.017 C 
ATOM     16  C   UNL     1      -9.964   7.082  69.906  0.00  0.00    +0.038 C 
ATOM     17  C   UNL     1      -9.637   7.432  71.302  0.00  0.00    +0.195 C 
ATOM     18  O   UNL     1      -9.950   6.840  72.334  0.00  0.00    -0.287 OA
ATOM     19  C   UNL     1      -8.964   8.748  71.246  0.00  0.00    +0.034 C 
ATOM     20  C   UNL     1     -10.883  10.468  68.818  0.00  0.00    +0.168 C 
ATOM     21  F   UNL     1     -11.275   9.842  67.614  0.00  0.00    -0.237 F 
ATOM     22  C   UNL     1     -12.138  11.445  69.155  0.00  0.00    +0.182 C 
ATOM     23  O   UNL     1     -11.911  11.377  70.662  0.00  0.00    -0.220 OA
ATOM     24  C   UNL     1     -11.408  12.922  69.134  0.00  0.00    +0.039 C 
ENDROOT
BRANCH   3  25
ATOM     25  C   UNL     1     -10.547  15.629  67.163  0.00  0.00    +0.213 C 
ATOM     26  O   UNL     1     -10.206  16.345  66.219  0.00  0.00    -0.291 OA
BRANCH  25  27
ATOM     27  C   UNL     1     -11.019  16.565  68.229  0.00  0.00    +0.248 C 
ATOM     28  O   UNL     1     -10.929  17.884  67.890  0.00  0.00    -0.212 OA
ENDBRANCH  25  27
ENDBRANCH   3  25
TORSDOF 2
ENDMDL
MODEL 9
REMARK VINA RESULT:      -6.6      5.115      8.593
REMARK  Name = 
REMARK  2 active torsions:
REMARK  status: ('A' for Active; 'I' for Inactive)
REMARK    1  A    between atoms: C_23  and  C_25
REMARK    2  A    between atoms: C_25  and  C_27
REMARK                            x       y       z     vdW  Elec       q    Type
REMARK                         _______ _______ _______ _____ _____    ______ ____
ROOT
ATOM      1  C   UNL     1     -10.289   7.993  68.143  0.00  0.00    +0.003 C 
ATOM      2  C   UNL     1      -9.955   9.121  69.136  0.00  0.00    +0.037 C 
ATOM      3  C   UNL     1      -9.182   8.467  70.134  0.00  0.00    +0.207 C 
ATOM      4  O   UNL     1      -9.075   9.174  71.306  0.00  0.00    -0.215 OA
ATOM      5  C   UNL     1      -7.663   8.276  69.531  0.00  0.00    +0.186 C 
ATOM      6  O   UNL     1      -7.186   9.670  69.916  0.00  0.00    -0.220 OA
ATOM      7  C   UNL     1      -8.055   8.680  67.978  0.00  0.00    +0.036 C 
ATOM      8  C   UNL     1      -8.825  10.020  68.410  0.00  0.00    +0.008 C 
ATOM      9  C   UNL     1      -9.869  10.178  67.088  0.00  0.00    +0.034 C 
ATOM     10  C   UNL     1      -8.797  10.690  65.989  0.00  0.00    +0.007 C 
ATOM     11  C   UNL     1      -9.710  11.061  64.829  0.00  0.00    +0.023 C 
ATOM     12  C   UNL     1     -11.003  11.651  65.343  0.00  0.00    -0.035 C 
ATOM     13  C   UNL     1     -10.776  12.477  66.586  0.00  0.00    +0.064 C 
ATOM     14  C   UNL     1     -11.920  13.411  66.876  0.00  0.00    +0.011 C 
ATOM     15  C   UNL     1      -9.882  13.517  65.923  0.00  0.00    -0.017 C 
ATOM     16  C   UNL     1     -10.407  14.103  64.828  0.00  0.00    +0.038 C 
ATOM     17  C   UNL     1     -11.769  13.748  64.388  0.00  0.00    +0.195 C 
ATOM     18  O   UNL     1     -12.699  14.497  64.090  0.00  0.00    -0.287 OA
ATOM     19  C   UNL     1     -11.868  12.277  64.511  0.00  0.00    +0.034 C 
ATOM     20  C   UNL     1     -10.193  11.671  67.572  0.00  0.00    +0.168 C 
ATOM     21  F   UNL     1      -8.970  12.308  67.879  0.00  0.00    -0.237 F 
ATOM     22  C   UNL     1     -10.925  11.554  69.018  0.00  0.00    +0.182 C 
ATOM     23  O   UNL     1     -12.328  11.613  68.422  0.00  0.00    -0.220 OA
ATOM     24  C   UNL     1     -11.080   9.921  69.168  0.00  0.00    +0.039 C 
ENDROOT
BRANCH   3  25
ATOM     25  C   UNL     1      -9.579   7.026  70.319  0.00  0.00    +0.213 C 
ATOM     26  O   UNL     1      -8.747   6.117  70.275  0.00  0.00    -0.291 OA
BRANCH  25  27
ATOM     27  C   UNL     1     -10.636   6.562  71.268  0.00  0.00    +0.248 C 
ATOM     28  O   UNL     1     -10.668   5.209  71.445  0.00  0.00    -0.212 OA
ENDBRANCH  25  27
ENDBRANCH   3  25
TORSDOF 2
ENDMDL
