MODEL 1
REMARK VINA RESULT:      -8.0      0.000      0.000
REMARK  Name = 
REMARK  7 active torsions:
REMARK  status: ('A' for Active; 'I' for Inactive)
REMARK    1  A    between atoms: N_7  and  C_8
REMARK    2  A    between atoms: C_11  and  O_12
REMARK    3  A    between atoms: O_12  and  C_13
REMARK    4  A    between atoms: C_13  and  C_14
REMARK    5  A    between atoms: C_17  and  C_18
REMARK    6  A    between atoms: C_17  and  C_24
REMARK    7  A    between atoms: C_18  and  N_19
REMARK                            x       y       z     vdW  Elec       q    Type
REMARK                         _______ _______ _______ _____ _____    ______ ____
ROOT
ATOM      1  C   UNL     1      -9.425  15.629  68.783  0.00  0.00    +0.191 C 
ATOM      2  O   UNL     1     -10.494  15.990  67.723  0.00  0.00    -0.325 OA
ATOM      3  C   UNL     1      -9.601  15.906  66.680  0.00  0.00    +0.230 C 
ATOM      4  O   UNL     1      -8.852  14.770  66.802  0.00  0.00    -0.327 OA
ATOM      5  C   UNL     1      -9.120  14.167  68.011  0.00  0.00    +0.178 C 
ENDROOT
BRANCH   3   6
ATOM      6  C   UNL     1      -8.690  17.087  66.635  0.00  0.00    +0.041 A 
ATOM      7  C   UNL     1      -9.162  18.373  66.826  0.00  0.00    +0.059 A 
ATOM      8 CL   UNL     1     -10.872  18.639  67.081  0.00  0.00    -0.082 Cl
ATOM      9  C   UNL     1      -8.294  19.392  66.509  0.00  0.00    +0.023 A 
ATOM     10  C   UNL     1      -7.128  19.158  65.803  0.00  0.00    +0.058 A 
ATOM     11 CL   UNL     1      -6.353  20.507  65.001  0.00  0.00    -0.082 Cl
ATOM     12  C   UNL     1      -6.619  17.888  65.751  0.00  0.00    +0.011 A 
ATOM     13  C   UNL     1      -7.351  16.866  66.340  0.00  0.00    +0.002 A 
ENDBRANCH   3   6
BRANCH   1  14
ATOM     14  C   UNL     1     -10.563  14.920  69.797  0.00  0.00    +0.237 C 
BRANCH  14  15
ATOM     15  O   UNL     1     -11.482  14.312  68.953  0.00  0.00    -0.473 OA
BRANCH  15  19
ATOM     16  C   UNL     1     -11.704  10.559  70.536  0.00  0.00    +0.048 A 
ATOM     17  C   UNL     1     -11.650  10.696  69.157  0.00  0.00    +0.018 A 
ATOM     18  C   UNL     1     -11.716  11.955  68.573  0.00  0.00    +0.038 A 
ATOM     19  C   UNL     1     -12.014  13.080  69.333  0.00  0.00    +0.139 A 
ATOM     20  C   UNL     1     -12.413  12.823  70.637  0.00  0.00    +0.038 A 
ATOM     21  C   UNL     1     -12.382  11.571  71.203  0.00  0.00    +0.018 A 
BRANCH  16  27
ATOM     22  C   UNL     1     -10.317   4.959  69.504  0.00  0.00    +0.095 C 
ATOM     23  C   UNL     1     -11.060   6.200  69.565  0.00  0.00    +0.226 C 
ATOM     24  N   UNL     1     -11.228   6.792  70.858  0.00  0.00    -0.276 N 
ATOM     25  C   UNL     1     -10.092   7.482  71.411  0.00  0.00    +0.115 C 
ATOM     26  C   UNL     1     -10.517   8.849  71.859  0.00  0.00    +0.112 C 
ATOM     27  N   UNL     1     -11.727   9.290  71.184  0.00  0.00    -0.304 N 
ATOM     28  C   UNL     1     -12.915   8.494  71.351  0.00  0.00    +0.112 C 
ATOM     29  C   UNL     1     -12.581   7.010  71.324  0.00  0.00    +0.115 C 
ATOM     30  O   UNL     1     -10.855   7.018  68.626  0.00  0.00    -0.275 OA
ENDBRANCH  16  27
ENDBRANCH  15  19
ENDBRANCH  14  15
ENDBRANCH   1  14
BRANCH   3  31
ATOM     31  C   UNL     1     -10.307  15.854  65.335  0.00  0.00    +0.168 C 
BRANCH  31  32
ATOM     32  N   UNL     1     -10.975  14.565  65.174  0.00  0.00    -0.302 N 
ATOM     33  C   UNL     1     -12.254  14.301  65.530  0.00  0.00    +0.179 A 
ATOM     34  N   UNL     1     -12.683  13.207  64.867  0.00  0.00    -0.222 NA
ATOM     35  C   UNL     1     -11.669  12.791  64.104  0.00  0.00    +0.119 A 
ATOM     36  C   UNL     1     -10.529  13.455  64.545  0.00  0.00    +0.098 A 
ENDBRANCH  31  32
ENDBRANCH   3  31
TORSDOF 7
ENDMDL
MODEL 2
REMARK VINA RESULT:      -8.0      3.101      4.714
REMARK  Name = 
REMARK  7 active torsions:
REMARK  status: ('A' for Active; 'I' for Inactive)
REMARK    1  A    between atoms: N_7  and  C_8
REMARK    2  A    between atoms: C_11  and  O_12
REMARK    3  A    between atoms: O_12  and  C_13
REMARK    4  A    between atoms: C_13  and  C_14
REMARK    5  A    between atoms: C_17  and  C_18
REMARK    6  A    between atoms: C_17  and  C_24
REMARK    7  A    between atoms: C_18  and  N_19
REMARK                            x       y       z     vdW  Elec       q    Type
REMARK                         _______ _______ _______ _____ _____    ______ ____
ROOT
ATOM      1  C   UNL     1      -8.910  13.531  68.199  0.00  0.00    +0.191 C 
ATOM      2  O   UNL     1     -10.219  13.117  67.483  0.00  0.00    -0.325 OA
ATOM      3  C   UNL     1     -10.826  14.329  67.722  0.00  0.00    +0.230 C 
ATOM      4  O   UNL     1      -9.961  15.345  67.427  0.00  0.00    -0.327 OA
ATOM      5  C   UNL     1      -8.716  14.826  67.145  0.00  0.00    +0.178 C 
ENDROOT
BRANCH   3   6
ATOM      6  C   UNL     1     -11.262  14.459  69.143  0.00  0.00    +0.041 A 
ATOM      7  C   UNL     1     -11.843  13.403  69.821  0.00  0.00    +0.059 A 
ATOM      8 CL   UNL     1     -12.123  11.889  68.991  0.00  0.00    -0.082 Cl
ATOM      9  C   UNL     1     -12.436  13.707  71.025  0.00  0.00    +0.023 A 
ATOM     10  C   UNL     1     -12.666  15.015  71.410  0.00  0.00    +0.058 A 
ATOM     11 CL   UNL     1     -13.851  15.321  72.661  0.00  0.00    -0.082 Cl
ATOM     12  C   UNL     1     -11.967  16.026  70.804  0.00  0.00    +0.011 A 
ATOM     13  C   UNL     1     -11.116  15.695  69.758  0.00  0.00    +0.002 A 
ENDBRANCH   3   6
BRANCH   1  14
ATOM     14  C   UNL     1      -7.975  12.529  67.228  0.00  0.00    +0.237 C 
BRANCH  14  15
ATOM     15  O   UNL     1      -7.096  11.890  68.092  0.00  0.00    -0.473 OA
BRANCH  15  19
ATOM     16  C   UNL     1      -8.993   9.033  70.300  0.00  0.00    +0.048 A 
ATOM     17  C   UNL     1      -7.690   9.371  70.631  0.00  0.00    +0.018 A 
ATOM     18  C   UNL     1      -6.960  10.234  69.822  0.00  0.00    +0.038 A 
ATOM     19  C   UNL     1      -7.448  10.633  68.583  0.00  0.00    +0.139 A 
ATOM     20  C   UNL     1      -8.590   9.971  68.156  0.00  0.00    +0.038 A 
ATOM     21  C   UNL     1      -9.291   9.090  68.944  0.00  0.00    +0.018 A 
BRANCH  16  27
ATOM     22  C   UNL     1     -14.551   7.926  71.795  0.00  0.00    +0.095 C 
ATOM     23  C   UNL     1     -13.204   8.459  71.814  0.00  0.00    +0.226 C 
ATOM     24  N   UNL     1     -12.133   7.509  71.831  0.00  0.00    -0.276 N 
ATOM     25  C   UNL     1     -11.822   6.854  70.588  0.00  0.00    +0.115 C 
ATOM     26  C   UNL     1     -10.351   6.974  70.322  0.00  0.00    +0.112 C 
ATOM     27  N   UNL     1      -9.757   8.087  71.045  0.00  0.00    -0.304 N 
ATOM     28  C   UNL     1      -9.843   8.076  72.481  0.00  0.00    +0.112 C 
ATOM     29  C   UNL     1     -11.203   7.570  72.940  0.00  0.00    +0.115 C 
ATOM     30  O   UNL     1     -13.001   9.481  71.103  0.00  0.00    -0.275 OA
ENDBRANCH  16  27
ENDBRANCH  15  19
ENDBRANCH  14  15
ENDBRANCH   1  14
BRANCH   3  31
ATOM     31  C   UNL     1     -12.070  14.515  66.869  0.00  0.00    +0.168 C 
BRANCH  31  32
ATOM     32  N   UNL     1     -11.938  13.761  65.626  0.00  0.00    -0.302 N 
ATOM     33  C   UNL     1     -12.481  12.542  65.394  0.00  0.00    +0.179 A 
ATOM     34  N   UNL     1     -12.552  12.334  64.062  0.00  0.00    -0.222 NA
ATOM     35  C   UNL     1     -12.049  13.421  63.471  0.00  0.00    +0.119 A 
ATOM     36  C   UNL     1     -11.391  14.152  64.454  0.00  0.00    +0.098 A 
ENDBRANCH  31  32
ENDBRANCH   3  31
TORSDOF 7
ENDMDL
MODEL 3
REMARK VINA RESULT:      -7.9      4.367      9.722
REMARK  Name = 
REMARK  7 active torsions:
REMARK  status: ('A' for Active; 'I' for Inactive)
REMARK    1  A    between atoms: N_7  and  C_8
REMARK    2  A    between atoms: C_11  and  O_12
REMARK    3  A    between atoms: O_12  and  C_13
REMARK    4  A    between atoms: C_13  and  C_14
REMARK    5  A    between atoms: C_17  and  C_18
REMARK    6  A    between atoms: C_17  and  C_24
REMARK    7  A    between atoms: C_18  and  N_19
REMARK                            x       y       z     vdW  Elec       q    Type
REMARK                         _______ _______ _______ _____ _____    ______ ____
ROOT
ATOM      1  C   UNL     1     -10.616  15.997  67.551  0.00  0.00    +0.191 C 
ATOM      2  O   UNL     1     -11.792  15.707  68.514  0.00  0.00    -0.325 OA
ATOM      3  C   UNL     1     -11.390  14.411  68.742  0.00  0.00    +0.230 C 
ATOM      4  O   UNL     1     -10.045  14.380  68.982  0.00  0.00    -0.327 OA
ATOM      5  C   UNL     1      -9.506  15.627  68.758  0.00  0.00    +0.178 C 
ENDROOT
BRANCH   3   6
ATOM      6  C   UNL     1     -11.697  13.525  67.581  0.00  0.00    +0.041 A 
ATOM      7  C   UNL     1     -11.104  12.283  67.443  0.00  0.00    +0.059 A 
ATOM      8 CL   UNL     1      -9.929  11.747  68.623  0.00  0.00    -0.082 Cl
ATOM      9  C   UNL     1     -11.258  11.670  66.220  0.00  0.00    +0.023 A 
ATOM     10  C   UNL     1     -11.745  12.354  65.123  0.00  0.00    +0.058 A 
ATOM     11 CL   UNL     1     -11.438  11.701  63.528  0.00  0.00    -0.082 Cl
ATOM     12  C   UNL     1     -12.448  13.515  65.312  0.00  0.00    +0.011 A 
ATOM     13  C   UNL     1     -12.562  14.004  66.607  0.00  0.00    +0.002 A 
ENDBRANCH   3   6
BRANCH   1  14
ATOM     14  C   UNL     1     -10.592  17.628  67.952  0.00  0.00    +0.237 C 
BRANCH  14  15
ATOM     15  O   UNL     1     -10.327  18.298  66.765  0.00  0.00    -0.473 OA
BRANCH  15  19
ATOM     16  C   UNL     1      -6.405  19.180  67.454  0.00  0.00    +0.048 A 
ATOM     17  C   UNL     1      -7.347  20.186  67.605  0.00  0.00    +0.018 A 
ATOM     18  C   UNL     1      -8.672  19.967  67.246  0.00  0.00    +0.038 A 
ATOM     19  C   UNL     1      -9.046  18.812  66.568  0.00  0.00    +0.139 A 
ATOM     20  C   UNL     1      -7.996  18.019  66.128  0.00  0.00    +0.038 A 
ATOM     21  C   UNL     1      -6.682  18.257  66.454  0.00  0.00    +0.018 A 
BRANCH  16  27
ATOM     22  C   UNL     1      -2.890  21.120  71.724  0.00  0.00    +0.095 C 
ATOM     23  C   UNL     1      -3.756  21.096  70.563  0.00  0.00    +0.226 C 
ATOM     24  N   UNL     1      -3.358  20.253  69.476  0.00  0.00    -0.276 N 
ATOM     25  C   UNL     1      -3.582  18.840  69.632  0.00  0.00    +0.115 C 
ATOM     26  C   UNL     1      -4.309  18.320  68.427  0.00  0.00    +0.112 C 
ATOM     27  N   UNL     1      -5.019  19.376  67.725  0.00  0.00    -0.304 N 
ATOM     28  C   UNL     1      -4.246  20.474  67.207  0.00  0.00    +0.112 C 
ATOM     29  C   UNL     1      -3.153  20.877  68.186  0.00  0.00    +0.115 C 
ATOM     30  O   UNL     1      -4.996  21.121  70.794  0.00  0.00    -0.275 OA
ENDBRANCH  16  27
ENDBRANCH  15  19
ENDBRANCH  14  15
ENDBRANCH   1  14
BRANCH   3  31
ATOM     31  C   UNL     1     -12.092  13.805  69.946  0.00  0.00    +0.168 C 
BRANCH  31  32
ATOM     32  N   UNL     1     -12.482  14.860  70.877  0.00  0.00    -0.302 N 
ATOM     33  C   UNL     1     -13.758  15.186  71.195  0.00  0.00    +0.179 A 
ATOM     34  N   UNL     1     -13.766  15.860  72.364  0.00  0.00    -0.222 NA
ATOM     35  C   UNL     1     -12.496  15.956  72.767  0.00  0.00    +0.119 A 
ATOM     36  C   UNL     1     -11.697  15.610  71.683  0.00  0.00    +0.098 A 
ENDBRANCH  31  32
ENDBRANCH   3  31
TORSDOF 7
ENDMDL
MODEL 4
REMARK VINA RESULT:      -7.6      3.053      4.561
REMARK  Name = 
REMARK  7 active torsions:
REMARK  status: ('A' for Active; 'I' for Inactive)
REMARK    1  A    between atoms: N_7  and  C_8
REMARK    2  A    between atoms: C_11  and  O_12
REMARK    3  A    between atoms: O_12  and  C_13
REMARK    4  A    between atoms: C_13  and  C_14
REMARK    5  A    between atoms: C_17  and  C_18
REMARK    6  A    between atoms: C_17  and  C_24
REMARK    7  A    between atoms: C_18  and  N_19
REMARK                            x       y       z     vdW  Elec       q    Type
REMARK                         _______ _______ _______ _____ _____    ______ ____
ROOT
ATOM      1  C   UNL     1      -8.689  13.598  68.370  0.00  0.00    +0.191 C 
ATOM      2  O   UNL     1      -9.938  13.253  67.524  0.00  0.00    -0.325 OA
ATOM      3  C   UNL     1     -10.532  14.472  67.758  0.00  0.00    +0.230 C 
ATOM      4  O   UNL     1      -9.617  15.472  67.584  0.00  0.00    -0.327 OA
ATOM      5  C   UNL     1      -8.366  14.927  67.394  0.00  0.00    +0.178 C 
ENDROOT
BRANCH   3   6
ATOM      6  C   UNL     1     -11.092  14.559  69.139  0.00  0.00    +0.041 A 
ATOM      7  C   UNL     1     -11.756  13.494  69.718  0.00  0.00    +0.059 A 
ATOM      8 CL   UNL     1     -11.995  12.021  68.805  0.00  0.00    -0.082 Cl
ATOM      9  C   UNL     1     -12.449  13.768  70.875  0.00  0.00    +0.023 A 
ATOM     10  C   UNL     1     -12.682  15.065  71.291  0.00  0.00    +0.058 A 
ATOM     11 CL   UNL     1     -13.968  15.354  72.443  0.00  0.00    -0.082 Cl
ATOM     12  C   UNL     1     -11.908  16.079  70.792  0.00  0.00    +0.011 A 
ATOM     13  C   UNL     1     -10.974  15.766  69.814  0.00  0.00    +0.002 A 
ENDBRANCH   3   6
BRANCH   1  14
ATOM     14  C   UNL     1      -7.697  12.607  67.446  0.00  0.00    +0.237 C 
BRANCH  14  15
ATOM     15  O   UNL     1      -8.551  11.716  66.810  0.00  0.00    -0.473 OA
BRANCH  15  19
ATOM     16  C   UNL     1     -10.215   8.907  69.254  0.00  0.00    +0.048 A 
ATOM     17  C   UNL     1      -8.960   9.404  69.572  0.00  0.00    +0.018 A 
ATOM     18  C   UNL     1      -8.298  10.255  68.694  0.00  0.00    +0.038 A 
ATOM     19  C   UNL     1      -8.791  10.483  67.415  0.00  0.00    +0.139 A 
ATOM     20  C   UNL     1      -9.851   9.673  67.036  0.00  0.00    +0.038 A 
ATOM     21  C   UNL     1     -10.482   8.804  67.894  0.00  0.00    +0.018 A 
BRANCH  16  27
ATOM     22  C   UNL     1      -9.849   6.473  74.572  0.00  0.00    +0.095 C 
ATOM     23  C   UNL     1      -9.660   6.714  73.157  0.00  0.00    +0.226 C 
ATOM     24  N   UNL     1     -10.839   6.769  72.346  0.00  0.00    -0.276 N 
ATOM     25  C   UNL     1     -11.620   7.976  72.414  0.00  0.00    +0.115 C 
ATOM     26  C   UNL     1     -11.877   8.475  71.024  0.00  0.00    +0.112 C 
ATOM     27  N   UNL     1     -10.902   7.965  70.074  0.00  0.00    -0.304 N 
ATOM     28  C   UNL     1     -10.808   6.538  69.911  0.00  0.00    +0.112 C 
ATOM     29  C   UNL     1     -10.942   5.828  71.250  0.00  0.00    +0.115 C 
ATOM     30  O   UNL     1      -8.761   7.544  72.850  0.00  0.00    -0.275 OA
ENDBRANCH  16  27
ENDBRANCH  15  19
ENDBRANCH  14  15
ENDBRANCH   1  14
BRANCH   3  31
ATOM     31  C   UNL     1     -11.688  14.730  66.805  0.00  0.00    +0.168 C 
BRANCH  31  32
ATOM     32  N   UNL     1     -11.570  13.865  65.634  0.00  0.00    -0.302 N 
ATOM     33  C   UNL     1     -10.602  13.960  64.691  0.00  0.00    +0.179 A 
ATOM     34  N   UNL     1     -10.518  12.790  64.024  0.00  0.00    -0.222 NA
ATOM     35  C   UNL     1     -11.435  11.974  64.550  0.00  0.00    +0.119 A 
ATOM     36  C   UNL     1     -12.281  12.758  65.325  0.00  0.00    +0.098 A 
ENDBRANCH  31  32
ENDBRANCH   3  31
TORSDOF 7
ENDMDL
MODEL 5
REMARK VINA RESULT:      -7.4      2.464      4.019
REMARK  Name = 
REMARK  7 active torsions:
REMARK  status: ('A' for Active; 'I' for Inactive)
REMARK    1  A    between atoms: N_7  and  C_8
REMARK    2  A    between atoms: C_11  and  O_12
REMARK    3  A    between atoms: O_12  and  C_13
REMARK    4  A    between atoms: C_13  and  C_14
REMARK    5  A    between atoms: C_17  and  C_18
REMARK    6  A    between atoms: C_17  and  C_24
REMARK    7  A    between atoms: C_18  and  N_19
REMARK                            x       y       z     vdW  Elec       q    Type
REMARK                         _______ _______ _______ _____ _____    ______ ____
ROOT
ATOM      1  C   UNL     1     -10.498  14.056  64.941  0.00  0.00    +0.191 C 
ATOM      2  O   UNL     1      -9.722  13.665  66.222  0.00  0.00    -0.325 OA
ATOM      3  C   UNL     1     -10.212  14.732  66.940  0.00  0.00    +0.230 C 
ATOM      4  O   UNL     1     -11.560  14.842  66.743  0.00  0.00    -0.327 OA
ATOM      5  C   UNL     1     -11.958  13.955  65.767  0.00  0.00    +0.178 C 
ENDROOT
BRANCH   3   6
ATOM      6  C   UNL     1      -9.556  16.013  66.545  0.00  0.00    +0.041 A 
ATOM      7  C   UNL     1      -8.183  16.167  66.592  0.00  0.00    +0.059 A 
ATOM      8 CL   UNL     1      -7.182  14.855  67.172  0.00  0.00    -0.082 Cl
ATOM      9  C   UNL     1      -7.712  17.454  66.457  0.00  0.00    +0.023 A 
ATOM     10  C   UNL     1      -8.556  18.546  66.532  0.00  0.00    +0.058 A 
ATOM     11 CL   UNL     1      -7.860  20.117  66.867  0.00  0.00    -0.082 Cl
ATOM     12  C   UNL     1      -9.901  18.369  66.343  0.00  0.00    +0.011 A 
ATOM     13  C   UNL     1     -10.372  17.074  66.175  0.00  0.00    +0.002 A 
ENDBRANCH   3   6
BRANCH   1  14
ATOM     14  C   UNL     1     -10.611  12.459  64.433  0.00  0.00    +0.237 C 
BRANCH  14  15
ATOM     15  O   UNL     1      -9.719  11.753  65.229  0.00  0.00    -0.473 OA
BRANCH  15  19
ATOM     16  C   UNL     1      -9.740   8.422  67.582  0.00  0.00    +0.048 A 
ATOM     17  C   UNL     1      -9.458   8.279  66.232  0.00  0.00    +0.018 A 
ATOM     18  C   UNL     1      -9.578   9.363  65.370  0.00  0.00    +0.038 A 
ATOM     19  C   UNL     1     -10.148  10.555  65.799  0.00  0.00    +0.139 A 
ATOM     20  C   UNL     1     -10.739  10.510  67.054  0.00  0.00    +0.038 A 
ATOM     21  C   UNL     1     -10.652   9.424  67.891  0.00  0.00    +0.018 A 
BRANCH  16  27
ATOM     22  C   UNL     1     -10.804   7.251  73.225  0.00  0.00    +0.095 C 
ATOM     23  C   UNL     1     -10.120   7.639  72.009  0.00  0.00    +0.226 C 
ATOM     24  N   UNL     1     -10.085   6.674  70.951  0.00  0.00    -0.276 N 
ATOM     25  C   UNL     1     -11.290   6.506  70.182  0.00  0.00    +0.115 C 
ATOM     26  C   UNL     1     -10.960   6.607  68.722  0.00  0.00    +0.112 C 
ATOM     27  N   UNL     1      -9.718   7.326  68.494  0.00  0.00    -0.304 N 
ATOM     28  C   UNL     1      -8.516   6.790  69.077  0.00  0.00    +0.112 C 
ATOM     29  C   UNL     1      -8.784   6.251  70.474  0.00  0.00    +0.115 C 
ATOM     30  O   UNL     1     -10.281   8.834  71.637  0.00  0.00    -0.275 OA
ENDBRANCH  16  27
ENDBRANCH  15  19
ENDBRANCH  14  15
ENDBRANCH   1  14
BRANCH   3  31
ATOM     31  C   UNL     1      -9.972  14.567  68.432  0.00  0.00    +0.168 C 
BRANCH  31  32
ATOM     32  N   UNL     1     -11.205  14.840  69.166  0.00  0.00    -0.302 N 
ATOM     33  C   UNL     1     -12.081  13.899  69.594  0.00  0.00    +0.179 A 
ATOM     34  N   UNL     1     -12.840  14.417  70.582  0.00  0.00    -0.222 NA
ATOM     35  C   UNL     1     -12.440  15.678  70.762  0.00  0.00    +0.119 A 
ATOM     36  C   UNL     1     -11.648  16.014  69.669  0.00  0.00    +0.098 A 
ENDBRANCH  31  32
ENDBRANCH   3  31
TORSDOF 7
ENDMDL
MODEL 6
REMARK VINA RESULT:      -7.4      2.975      5.042
REMARK  Name = 
REMARK  7 active torsions:
REMARK  status: ('A' for Active; 'I' for Inactive)
REMARK    1  A    between atoms: N_7  and  C_8
REMARK    2  A    between atoms: C_11  and  O_12
REMARK    3  A    between atoms: O_12  and  C_13
REMARK    4  A    between atoms: C_13  and  C_14
REMARK    5  A    between atoms: C_17  and  C_18
REMARK    6  A    between atoms: C_17  and  C_24
REMARK    7  A    between atoms: C_18  and  N_19
REMARK                            x       y       z     vdW  Elec       q    Type
REMARK                         _______ _______ _______ _____ _____    ______ ____
ROOT
ATOM      1  C   UNL     1      -8.619  13.874  68.692  0.00  0.00    +0.191 C 
ATOM      2  O   UNL     1      -9.570  14.378  67.580  0.00  0.00    -0.325 OA
ATOM      3  C   UNL     1      -9.945  15.491  68.296  0.00  0.00    +0.230 C 
ATOM      4  O   UNL     1      -8.839  16.092  68.828  0.00  0.00    -0.327 OA
ATOM      5  C   UNL     1      -7.733  15.300  68.612  0.00  0.00    +0.178 C 
ENDROOT
BRANCH   3   6
ATOM      6  C   UNL     1     -10.890  15.149  69.399  0.00  0.00    +0.041 A 
ATOM      7  C   UNL     1     -11.867  14.184  69.240  0.00  0.00    +0.059 A 
ATOM      8 CL   UNL     1     -12.042  13.371  67.701  0.00  0.00    -0.082 Cl
ATOM      9  C   UNL     1     -12.835  14.134  70.218  0.00  0.00    +0.023 A 
ATOM     10  C   UNL     1     -12.973  15.142  71.153  0.00  0.00    +0.058 A 
ATOM     11 CL   UNL     1     -14.492  15.280  72.013  0.00  0.00    -0.082 Cl
ATOM     12  C   UNL     1     -11.927  15.997  71.378  0.00  0.00    +0.011 A 
ATOM     13  C   UNL     1     -10.796  15.867  70.583  0.00  0.00    +0.002 A 
ENDBRANCH   3   6
BRANCH   1  14
ATOM     14  C   UNL     1      -7.606  13.118  67.585  0.00  0.00    +0.237 C 
BRANCH  14  15
ATOM     15  O   UNL     1      -8.422  12.255  66.865  0.00  0.00    -0.473 OA
BRANCH  15  19
ATOM     16  C   UNL     1      -9.631   9.424  69.541  0.00  0.00    +0.048 A 
ATOM     17  C   UNL     1      -8.272   9.606  69.337  0.00  0.00    +0.018 A 
ATOM     18  C   UNL     1      -7.820  10.458  68.336  0.00  0.00    +0.038 A 
ATOM     19  C   UNL     1      -8.702  11.002  67.410  0.00  0.00    +0.139 A 
ATOM     20  C   UNL     1      -9.991  10.490  67.450  0.00  0.00    +0.038 A 
ATOM     21  C   UNL     1     -10.427   9.619  68.420  0.00  0.00    +0.018 A 
BRANCH  16  27
ATOM     22  C   UNL     1     -14.725   7.883  71.996  0.00  0.00    +0.095 C 
ATOM     23  C   UNL     1     -13.472   8.565  71.747  0.00  0.00    +0.226 C 
ATOM     24  N   UNL     1     -12.293   7.755  71.699  0.00  0.00    -0.276 N 
ATOM     25  C   UNL     1     -12.077   6.988  70.501  0.00  0.00    +0.115 C 
ATOM     26  C   UNL     1     -10.686   7.242  69.998  0.00  0.00    +0.112 C 
ATOM     27  N   UNL     1     -10.150   8.499  70.494  0.00  0.00    -0.304 N 
ATOM     28  C   UNL     1     -10.030   8.660  71.919  0.00  0.00    +0.112 C 
ATOM     29  C   UNL     1     -11.232   8.063  72.636  0.00  0.00    +0.115 C 
ATOM     30  O   UNL     1     -13.509   9.506  70.906  0.00  0.00    -0.275 OA
ENDBRANCH  16  27
ENDBRANCH  15  19
ENDBRANCH  14  15
ENDBRANCH   1  14
BRANCH   3  31
ATOM     31  C   UNL     1     -10.654  16.513  67.422  0.00  0.00    +0.168 C 
BRANCH  31  32
ATOM     32  N   UNL     1      -9.912  17.772  67.427  0.00  0.00    -0.302 N 
ATOM     33  C   UNL     1      -9.034  18.162  66.474  0.00  0.00    +0.179 A 
ATOM     34  N   UNL     1      -8.874  19.500  66.539  0.00  0.00    -0.222 NA
ATOM     35  C   UNL     1      -9.648  19.937  67.535  0.00  0.00    +0.119 A 
ATOM     36  C   UNL     1     -10.036  18.822  68.269  0.00  0.00    +0.098 A 
ENDBRANCH  31  32
ENDBRANCH   3  31
TORSDOF 7
ENDMDL
MODEL 7
REMARK VINA RESULT:      -7.4      2.313      3.730
REMARK  Name = 
REMARK  7 active torsions:
REMARK  status: ('A' for Active; 'I' for Inactive)
REMARK    1  A    between atoms: N_7  and  C_8
REMARK    2  A    between atoms: C_11  and  O_12
REMARK    3  A    between atoms: O_12  and  C_13
REMARK    4  A    between atoms: C_13  and  C_14
REMARK    5  A    between atoms: C_17  and  C_18
REMARK    6  A    between atoms: C_17  and  C_24
REMARK    7  A    between atoms: C_18  and  N_19
REMARK                            x       y       z     vdW  Elec       q    Type
REMARK                         _______ _______ _______ _____ _____    ______ ____
ROOT
ATOM      1  C   UNL     1     -10.760  14.570  66.131  0.00  0.00    +0.191 C 
ATOM      2  O   UNL     1     -11.250  15.487  67.277  0.00  0.00    -0.325 OA
ATOM      3  C   UNL     1     -10.252  16.411  67.071  0.00  0.00    +0.230 C 
ATOM      4  O   UNL     1     -10.138  16.679  65.736  0.00  0.00    -0.327 OA
ATOM      5  C   UNL     1     -10.943  15.819  65.021  0.00  0.00    +0.178 C 
ENDROOT
BRANCH   3   6
ATOM      6  C   UNL     1      -8.936  15.928  67.584  0.00  0.00    +0.041 A 
ATOM      7  C   UNL     1      -8.788  15.474  68.882  0.00  0.00    +0.059 A 
ATOM      8 CL   UNL     1     -10.155  15.506  69.972  0.00  0.00    -0.082 Cl
ATOM      9  C   UNL     1      -7.495  15.302  69.321  0.00  0.00    +0.023 A 
ATOM     10  C   UNL     1      -6.416  15.793  68.609  0.00  0.00    +0.058 A 
ATOM     11 CL   UNL     1      -4.891  15.998  69.443  0.00  0.00    -0.082 Cl
ATOM     12  C   UNL     1      -6.571  16.104  67.284  0.00  0.00    +0.011 A 
ATOM     13  C   UNL     1      -7.841  15.996  66.733  0.00  0.00    +0.002 A 
ENDBRANCH   3   6
BRANCH   1  14
ATOM     14  C   UNL     1     -12.310  13.997  65.826  0.00  0.00    +0.237 C 
BRANCH  14  15
ATOM     15  O   UNL     1     -12.231  12.619  65.972  0.00  0.00    -0.473 OA
BRANCH  15  19
ATOM     16  C   UNL     1     -11.383  10.332  69.241  0.00  0.00    +0.048 A 
ATOM     17  C   UNL     1     -11.756  11.653  69.434  0.00  0.00    +0.018 A 
ATOM     18  C   UNL     1     -11.916  12.504  68.347  0.00  0.00    +0.038 A 
ATOM     19  C   UNL     1     -11.539  12.108  67.069  0.00  0.00    +0.139 A 
ATOM     20  C   UNL     1     -10.838  10.913  67.004  0.00  0.00    +0.038 A 
ATOM     21  C   UNL     1     -10.648  10.089  68.088  0.00  0.00    +0.018 A 
BRANCH  16  27
ATOM     22  C   UNL     1     -10.160   4.682  70.206  0.00  0.00    +0.095 C 
ATOM     23  C   UNL     1     -10.898   5.910  69.995  0.00  0.00    +0.226 C 
ATOM     24  N   UNL     1     -10.641   6.985  70.905  0.00  0.00    -0.276 N 
ATOM     25  C   UNL     1      -9.420   7.723  70.714  0.00  0.00    +0.115 C 
ATOM     26  C   UNL     1      -9.732   9.189  70.674  0.00  0.00    +0.112 C 
ATOM     27  N   UNL     1     -11.120   9.439  70.321  0.00  0.00    -0.304 N 
ATOM     28  C   UNL     1     -12.138   8.899  71.183  0.00  0.00    +0.112 C 
ATOM     29  C   UNL     1     -11.762   7.505  71.660  0.00  0.00    +0.115 C 
ATOM     30  O   UNL     1     -11.067   6.257  68.793  0.00  0.00    -0.275 OA
ENDBRANCH  16  27
ENDBRANCH  15  19
ENDBRANCH  14  15
ENDBRANCH   1  14
BRANCH   3  31
ATOM     31  C   UNL     1     -10.539  17.722  67.785  0.00  0.00    +0.168 C 
BRANCH  31  32
ATOM     32  N   UNL     1      -9.544  18.722  67.406  0.00  0.00    -0.302 N 
ATOM     33  C   UNL     1      -8.529  19.149  68.195  0.00  0.00    +0.179 A 
ATOM     34  N   UNL     1      -7.574  19.709  67.425  0.00  0.00    -0.222 NA
ATOM     35  C   UNL     1      -7.998  19.634  66.161  0.00  0.00    +0.119 A 
ATOM     36  C   UNL     1      -9.349  19.307  66.203  0.00  0.00    +0.098 A 
ENDBRANCH  31  32
ENDBRANCH   3  31
TORSDOF 7
ENDMDL
MODEL 8
REMARK VINA RESULT:      -7.4      4.097      9.737
REMARK  Name = 
REMARK  7 active torsions:
REMARK  status: ('A' for Active; 'I' for Inactive)
REMARK    1  A    between atoms: N_7  and  C_8
REMARK    2  A    between atoms: C_11  and  O_12
REMARK    3  A    between atoms: O_12  and  C_13
REMARK    4  A    between atoms: C_13  and  C_14
REMARK    5  A    between atoms: C_17  and  C_18
REMARK    6  A    between atoms: C_17  and  C_24
REMARK    7  A    between atoms: C_18  and  N_19
REMARK                            x       y       z     vdW  Elec       q    Type
REMARK                         _______ _______ _______ _____ _____    ______ ____
ROOT
ATOM      1  C   UNL     1     -10.382  13.055  68.350  0.00  0.00    +0.191 C 
ATOM      2  O   UNL     1      -9.802  11.841  67.587  0.00  0.00    -0.325 OA
ATOM      3  C   UNL     1     -10.911  11.062  67.821  0.00  0.00    +0.230 C 
ATOM      4  O   UNL     1     -12.044  11.784  67.569  0.00  0.00    -0.327 OA
ATOM      5  C   UNL     1     -11.710  13.097  67.321  0.00  0.00    +0.178 C 
ENDROOT
BRANCH   3   6
ATOM      6  C   UNL     1     -10.953  10.569  69.229  0.00  0.00    +0.041 A 
ATOM      7  C   UNL     1      -9.874   9.920  69.801  0.00  0.00    +0.059 A 
ATOM      8 CL   UNL     1      -8.438   9.622  68.848  0.00  0.00    -0.082 Cl
ATOM      9  C   UNL     1     -10.112   9.286  70.999  0.00  0.00    +0.023 A 
ATOM     10  C   UNL     1     -11.396   9.087  71.471  0.00  0.00    +0.058 A 
ATOM     11 CL   UNL     1     -11.656   7.860  72.693  0.00  0.00    -0.082 Cl
ATOM     12  C   UNL     1     -12.420   9.849  70.973  0.00  0.00    +0.011 A 
ATOM     13  C   UNL     1     -12.134  10.732  69.941  0.00  0.00    +0.002 A 
ENDBRANCH   3   6
BRANCH   1  14
ATOM     14  C   UNL     1      -9.539  14.152  67.396  0.00  0.00    +0.237 C 
BRANCH  14  15
ATOM     15  O   UNL     1     -10.446  15.159  67.099  0.00  0.00    -0.473 OA
BRANCH  15  19
ATOM     16  C   UNL     1      -8.345  18.549  67.952  0.00  0.00    +0.048 A 
ATOM     17  C   UNL     1      -9.696  18.511  68.260  0.00  0.00    +0.018 A 
ATOM     18  C   UNL     1     -10.478  17.434  67.860  0.00  0.00    +0.038 A 
ATOM     19  C   UNL     1      -9.973  16.467  66.998  0.00  0.00    +0.139 A 
ATOM     20  C   UNL     1      -8.736  16.760  66.442  0.00  0.00    +0.038 A 
ATOM     21  C   UNL     1      -7.980  17.846  66.812  0.00  0.00    +0.018 A 
BRANCH  16  27
ATOM     22  C   UNL     1      -2.995  20.636  66.779  0.00  0.00    +0.095 C 
ATOM     23  C   UNL     1      -4.076  19.906  67.407  0.00  0.00    +0.226 C 
ATOM     24  N   UNL     1      -5.183  20.676  67.890  0.00  0.00    -0.276 N 
ATOM     25  C   UNL     1      -6.120  21.156  66.910  0.00  0.00    +0.115 C 
ATOM     26  C   UNL     1      -7.510  20.786  67.335  0.00  0.00    +0.112 C 
ATOM     27  N   UNL     1      -7.515  19.667  68.262  0.00  0.00    -0.304 N 
ATOM     28  C   UNL     1      -6.810  19.824  69.506  0.00  0.00    +0.112 C 
ATOM     29  C   UNL     1      -5.503  20.575  69.299  0.00  0.00    +0.115 C 
ATOM     30  O   UNL     1      -4.384  18.803  66.877  0.00  0.00    -0.275 OA
ENDBRANCH  16  27
ENDBRANCH  15  19
ENDBRANCH  14  15
ENDBRANCH   1  14
BRANCH   3  31
ATOM     31  C   UNL     1     -10.937   9.830  66.931  0.00  0.00    +0.168 C 
BRANCH  31  32
ATOM     32  N   UNL     1     -10.156  10.076  65.721  0.00  0.00    -0.302 N 
ATOM     33  C   UNL     1      -9.026   9.415  65.376  0.00  0.00    +0.179 A 
ATOM     34  N   UNL     1      -8.816   9.558  64.050  0.00  0.00    -0.222 NA
ATOM     35  C   UNL     1      -9.812  10.311  63.577  0.00  0.00    +0.119 A 
ATOM     36  C   UNL     1     -10.451  10.878  64.674  0.00  0.00    +0.098 A 
ENDBRANCH  31  32
ENDBRANCH   3  31
TORSDOF 7
ENDMDL
MODEL 9
REMARK VINA RESULT:      -7.4      3.905      9.955
REMARK  Name = 
REMARK  7 active torsions:
REMARK  status: ('A' for Active; 'I' for Inactive)
REMARK    1  A    between atoms: N_7  and  C_8
REMARK    2  A    between atoms: C_11  and  O_12
REMARK    3  A    between atoms: O_12  and  C_13
REMARK    4  A    between atoms: C_13  and  C_14
REMARK    5  A    between atoms: C_17  and  C_18
REMARK    6  A    between atoms: C_17  and  C_24
REMARK    7  A    between atoms: C_18  and  N_19
REMARK                            x       y       z     vdW  Elec       q    Type
REMARK                         _______ _______ _______ _____ _____    ______ ____
ROOT
ATOM      1  C   UNL     1     -12.071   8.690  72.130  0.00  0.00    +0.191 C 
ATOM      2  O   UNL     1     -10.903   8.378  71.164  0.00  0.00    -0.325 OA
ATOM      3  C   UNL     1     -10.734   7.103  71.652  0.00  0.00    +0.230 C 
ATOM      4  O   UNL     1     -11.950   6.489  71.771  0.00  0.00    -0.327 OA
ATOM      5  C   UNL     1     -12.953   7.398  71.518  0.00  0.00    +0.178 C 
ENDROOT
BRANCH   3   6
ATOM      6  C   UNL     1     -10.060   7.106  72.984  0.00  0.00    +0.041 A 
ATOM      7  C   UNL     1      -8.907   7.836  73.209  0.00  0.00    +0.059 A 
ATOM      8 CL   UNL     1      -8.186   8.744  71.899  0.00  0.00    -0.082 Cl
ATOM      9  C   UNL     1      -8.234   7.563  74.378  0.00  0.00    +0.023 A 
ATOM     10  C   UNL     1      -8.541   6.457  75.150  0.00  0.00    +0.058 A 
ATOM     11 CL   UNL     1      -7.353   5.889  76.303  0.00  0.00    -0.082 Cl
ATOM     12  C   UNL     1      -9.755   5.842  74.989  0.00  0.00    +0.011 A 
ATOM     13  C   UNL     1     -10.594   6.307  73.986  0.00  0.00    +0.002 A 
ENDBRANCH   3   6
BRANCH   1  14
ATOM     14  C   UNL     1     -12.780   9.760  71.046  0.00  0.00    +0.237 C 
BRANCH  14  15
ATOM     15  O   UNL     1     -11.852  10.777  70.868  0.00  0.00    -0.473 OA
BRANCH  15  19
ATOM     16  C   UNL     1     -10.824  13.322  67.851  0.00  0.00    +0.048 A 
ATOM     17  C   UNL     1     -11.519  13.829  68.938  0.00  0.00    +0.018 A 
ATOM     18  C   UNL     1     -12.010  12.974  69.919  0.00  0.00    +0.038 A 
ATOM     19  C   UNL     1     -11.975  11.595  69.746  0.00  0.00    +0.139 A 
ATOM     20  C   UNL     1     -11.599  11.168  68.480  0.00  0.00    +0.038 A 
ATOM     21  C   UNL     1     -11.148  12.018  67.500  0.00  0.00    +0.018 A 
BRANCH  16  27
ATOM     22  C   UNL     1      -9.792  18.959  66.621  0.00  0.00    +0.095 C 
ATOM     23  C   UNL     1     -10.474  17.691  66.781  0.00  0.00    +0.226 C 
ATOM     24  N   UNL     1      -9.936  16.572  66.069  0.00  0.00    -0.276 N 
ATOM     25  C   UNL     1      -8.748  15.965  66.610  0.00  0.00    +0.115 C 
ATOM     26  C   UNL     1      -8.962  14.485  66.728  0.00  0.00    +0.112 C 
ATOM     27  N   UNL     1     -10.373  14.141  66.775  0.00  0.00    -0.304 N 
ATOM     28  C   UNL     1     -11.191  14.514  65.651  0.00  0.00    +0.112 C 
ATOM     29  C   UNL     1     -10.808  15.892  65.133  0.00  0.00    +0.115 C 
ATOM     30  O   UNL     1     -10.900  17.432  67.940  0.00  0.00    -0.275 OA
ENDBRANCH  16  27
ENDBRANCH  15  19
ENDBRANCH  14  15
ENDBRANCH   1  14
BRANCH   3  31
ATOM     31  C   UNL     1      -9.872   6.254  70.733  0.00  0.00    +0.168 C 
BRANCH  31  32
ATOM     32  N   UNL     1     -10.117   6.623  69.341  0.00  0.00    -0.302 N 
ATOM     33  C   UNL     1      -9.282   7.362  68.573  0.00  0.00    +0.179 A 
ATOM     34  N   UNL     1      -9.572   7.150  67.272  0.00  0.00    -0.222 NA
ATOM     35  C   UNL     1     -10.588   6.285  67.235  0.00  0.00    +0.119 A 
ATOM     36  C   UNL     1     -11.112   6.217  68.521  0.00  0.00    +0.098 A 
ENDBRANCH  31  32
ENDBRANCH   3  31
TORSDOF 7
ENDMDL
