MODEL 1
REMARK VINA RESULT:      -7.2      0.000      0.000
REMARK  Name = 
REMARK  5 active torsions:
REMARK  status: ('A' for Active; 'I' for Inactive)
REMARK    1  A    between atoms: S_2  and  C_5
REMARK    2  A    between atoms: C_7  and  C_8
REMARK    3  A    between atoms: C_11  and  N_12
REMARK    4  A    between atoms: N_12  and  C_13
REMARK    5  A    between atoms: C_13  and  C_14
REMARK                            x       y       z     vdW  Elec       q    Type
REMARK                         _______ _______ _______ _____ _____    ______ ____
ROOT
ATOM      1  C   UNL     1     -12.543  14.713  70.799  0.00  0.00    +0.136 A 
ATOM      2  C   UNL     1     -12.353  13.484  70.181  0.00  0.00    +0.078 A 
ATOM      3 CL   UNL     1     -12.426  12.079  71.234  0.00  0.00    -0.081 Cl
ATOM      4  C   UNL     1     -12.033  13.379  68.833  0.00  0.00    +0.029 A 
ATOM      5  C   UNL     1     -11.661  14.543  68.173  0.00  0.00    +0.073 A 
ATOM      6  C   UNL     1     -11.462  15.726  68.876  0.00  0.00    +0.096 A 
ATOM      7  C   UNL     1     -12.020  15.822  70.145  0.00  0.00    +0.029 A 
ENDROOT
BRANCH   1   9
ATOM      8  N   UNL     1     -13.358  15.888  73.284  0.00  0.00    +0.039 NA
ATOM      9  S   UNL     1     -13.828  14.848  71.987  0.00  0.00    +0.094 S 
ATOM     10  O   UNL     1     -15.073  15.422  71.348  0.00  0.00    -0.150 OA
ATOM     11  O   UNL     1     -14.102  13.493  72.541  0.00  0.00    -0.150 OA
ENDBRANCH   1   9
BRANCH   6  12
ATOM     12  C   UNL     1     -10.470  16.707  68.420  0.00  0.00    +0.389 C 
ATOM     13  O   UNL     1     -10.946  17.966  68.041  0.00  0.00    -0.241 OA
ATOM     14  O   UNL     1      -9.330  16.715  68.974  0.00  0.00    -0.241 OA
ENDBRANCH   6  12
BRANCH   5  15
ATOM     15  N   UNL     1     -11.556  14.619  66.755  0.00  0.00    -0.229 NA
BRANCH  15  16
ATOM     16  C   UNL     1     -12.650  14.137  65.922  0.00  0.00    +0.176 C 
BRANCH  16  17
ATOM     17  C   UNL     1     -12.190  13.116  64.944  0.00  0.00    +0.145 A 
ATOM     18  O   UNL     1     -12.970  12.679  63.970  0.00  0.00    -0.453 OA
ATOM     19  C   UNL     1     -12.309  11.822  63.221  0.00  0.00    +0.179 A 
ATOM     20  C   UNL     1     -10.989  11.777  63.652  0.00  0.00    +0.043 A 
ATOM     21  C   UNL     1     -10.885  12.802  64.580  0.00  0.00    +0.038 A 
ENDBRANCH  16  17
ENDBRANCH  15  16
ENDBRANCH   5  15
TORSDOF 5
ENDMDL
MODEL 2
REMARK VINA RESULT:      -7.2      3.445      7.145
REMARK  Name = 
REMARK  5 active torsions:
REMARK  status: ('A' for Active; 'I' for Inactive)
REMARK    1  A    between atoms: S_2  and  C_5
REMARK    2  A    between atoms: C_7  and  C_8
REMARK    3  A    between atoms: C_11  and  N_12
REMARK    4  A    between atoms: N_12  and  C_13
REMARK    5  A    between atoms: C_13  and  C_14
REMARK                            x       y       z     vdW  Elec       q    Type
REMARK                         _______ _______ _______ _____ _____    ______ ____
ROOT
ATOM      1  C   UNL     1     -11.480  13.038  65.750  0.00  0.00    +0.136 A 
ATOM      2  C   UNL     1     -11.135  14.324  66.140  0.00  0.00    +0.078 A 
ATOM      3 CL   UNL     1     -10.277  15.283  64.943  0.00  0.00    -0.081 Cl
ATOM      4  C   UNL     1     -11.372  14.792  67.427  0.00  0.00    +0.029 A 
ATOM      5  C   UNL     1     -11.734  13.857  68.389  0.00  0.00    +0.073 A 
ATOM      6  C   UNL     1     -11.700  12.497  68.105  0.00  0.00    +0.096 A 
ATOM      7  C   UNL     1     -11.693  12.117  66.769  0.00  0.00    +0.029 A 
ENDROOT
BRANCH   1   9
ATOM      8  N   UNL     1     -10.951  12.117  63.086  0.00  0.00    +0.039 NA
ATOM      9  S   UNL     1     -12.134  12.813  64.136  0.00  0.00    +0.094 S 
ATOM     10  O   UNL     1     -13.330  11.889  64.181  0.00  0.00    -0.150 OA
ATOM     11  O   UNL     1     -12.523  14.146  63.595  0.00  0.00    -0.150 OA
ENDBRANCH   1   9
BRANCH   6  12
ATOM     12  C   UNL     1     -11.392  11.523  69.159  0.00  0.00    +0.389 C 
ATOM     13  O   UNL     1     -12.455  10.757  69.651  0.00  0.00    -0.241 OA
ATOM     14  O   UNL     1     -10.278  10.920  69.118  0.00  0.00    -0.241 OA
ENDBRANCH   6  12
BRANCH   5  15
ATOM     15  N   UNL     1     -12.244  14.230  69.665  0.00  0.00    -0.229 NA
BRANCH  15  16
ATOM     16  C   UNL     1     -12.178  15.622  70.091  0.00  0.00    +0.176 C 
BRANCH  16  17
ATOM     17  C   UNL     1     -12.540  15.776  71.526  0.00  0.00    +0.145 A 
ATOM     18  O   UNL     1     -13.797  15.879  71.923  0.00  0.00    -0.453 OA
ATOM     19  C   UNL     1     -13.844  15.954  73.236  0.00  0.00    +0.179 A 
ATOM     20  C   UNL     1     -12.563  15.775  73.740  0.00  0.00    +0.043 A 
ATOM     21  C   UNL     1     -11.799  15.406  72.642  0.00  0.00    +0.038 A 
ENDBRANCH  16  17
ENDBRANCH  15  16
ENDBRANCH   5  15
TORSDOF 5
ENDMDL
MODEL 3
REMARK VINA RESULT:      -6.8      3.264      6.623
REMARK  Name = 
REMARK  5 active torsions:
REMARK  status: ('A' for Active; 'I' for Inactive)
REMARK    1  A    between atoms: S_2  and  C_5
REMARK    2  A    between atoms: C_7  and  C_8
REMARK    3  A    between atoms: C_11  and  N_12
REMARK    4  A    between atoms: N_12  and  C_13
REMARK    5  A    between atoms: C_13  and  C_14
REMARK                            x       y       z     vdW  Elec       q    Type
REMARK                         _______ _______ _______ _____ _____    ______ ____
ROOT
ATOM      1  C   UNL     1      -9.864  16.497  66.999  0.00  0.00    +0.136 A 
ATOM      2  C   UNL     1      -9.462  16.096  68.266  0.00  0.00    +0.078 A 
ATOM      3 CL   UNL     1      -7.849  16.598  68.752  0.00  0.00    -0.081 Cl
ATOM      4  C   UNL     1     -10.248  15.271  69.062  0.00  0.00    +0.029 A 
ATOM      5  C   UNL     1     -11.337  14.653  68.459  0.00  0.00    +0.073 A 
ATOM      6  C   UNL     1     -11.527  14.731  67.084  0.00  0.00    +0.096 A 
ATOM      7  C   UNL     1     -10.865  15.743  66.399  0.00  0.00    +0.029 A 
ENDROOT
BRANCH   1   9
ATOM      8  N   UNL     1      -9.516  19.208  67.868  0.00  0.00    +0.039 NA
ATOM      9  S   UNL     1      -9.512  18.144  66.506  0.00  0.00    +0.094 S 
ATOM     10  O   UNL     1      -8.150  18.215  65.854  0.00  0.00    -0.150 OA
ATOM     11  O   UNL     1     -10.570  18.587  65.555  0.00  0.00    -0.150 OA
ENDBRANCH   1   9
BRANCH   6  12
ATOM     12  C   UNL     1     -12.160  13.626  66.355  0.00  0.00    +0.389 C 
ATOM     13  O   UNL     1     -13.068  13.966  65.346  0.00  0.00    -0.241 OA
ATOM     14  O   UNL     1     -11.478  12.583  66.126  0.00  0.00    -0.241 OA
ENDBRANCH   6  12
BRANCH   5  15
ATOM     15  N   UNL     1     -12.355  13.996  69.207  0.00  0.00    -0.229 NA
BRANCH  15  16
ATOM     16  C   UNL     1     -12.061  13.496  70.544  0.00  0.00    +0.176 C 
BRANCH  16  17
ATOM     17  C   UNL     1     -12.547  14.426  71.599  0.00  0.00    +0.145 A 
ATOM     18  O   UNL     1     -11.715  15.095  72.379  0.00  0.00    -0.453 OA
ATOM     19  C   UNL     1     -12.396  15.879  73.187  0.00  0.00    +0.179 A 
ATOM     20  C   UNL     1     -13.741  15.813  72.846  0.00  0.00    +0.043 A 
ATOM     21  C   UNL     1     -13.771  15.081  71.668  0.00  0.00    +0.038 A 
ENDBRANCH  16  17
ENDBRANCH  15  16
ENDBRANCH   5  15
TORSDOF 5
ENDMDL
MODEL 4
REMARK VINA RESULT:      -6.8      3.562      6.145
REMARK  Name = 
REMARK  5 active torsions:
REMARK  status: ('A' for Active; 'I' for Inactive)
REMARK    1  A    between atoms: S_2  and  C_5
REMARK    2  A    between atoms: C_7  and  C_8
REMARK    3  A    between atoms: C_11  and  N_12
REMARK    4  A    between atoms: N_12  and  C_13
REMARK    5  A    between atoms: C_13  and  C_14
REMARK                            x       y       z     vdW  Elec       q    Type
REMARK                         _______ _______ _______ _____ _____    ______ ____
ROOT
ATOM      1  C   UNL     1     -11.458  13.643  66.037  0.00  0.00    +0.136 A 
ATOM      2  C   UNL     1     -10.429  12.854  66.533  0.00  0.00    +0.078 A 
ATOM      3 CL   UNL     1     -10.632  11.119  66.335  0.00  0.00    -0.081 Cl
ATOM      4  C   UNL     1      -9.352  13.396  67.223  0.00  0.00    +0.029 A 
ATOM      5  C   UNL     1      -9.454  14.722  67.626  0.00  0.00    +0.073 A 
ATOM      6  C   UNL     1     -10.650  15.417  67.483  0.00  0.00    +0.096 A 
ATOM      7  C   UNL     1     -11.585  14.912  66.588  0.00  0.00    +0.029 A 
ENDROOT
BRANCH   1   9
ATOM      8  N   UNL     1     -10.942  12.461  63.476  0.00  0.00    +0.039 NA
ATOM      9  S   UNL     1     -12.128  13.235  64.467  0.00  0.00    +0.094 S 
ATOM     10  O   UNL     1     -13.299  12.292  64.627  0.00  0.00    -0.150 OA
ATOM     11  O   UNL     1     -12.558  14.494  63.797  0.00  0.00    -0.150 OA
ENDBRANCH   1   9
BRANCH   6  12
ATOM     12  C   UNL     1     -11.022  16.464  68.441  0.00  0.00    +0.389 C 
ATOM     13  O   UNL     1     -10.955  17.789  67.996  0.00  0.00    -0.241 OA
ATOM     14  O   UNL     1     -11.957  16.227  69.263  0.00  0.00    -0.241 OA
ENDBRANCH   6  12
BRANCH   5  15
ATOM     15  N   UNL     1      -8.339  15.463  68.109  0.00  0.00    -0.229 NA
BRANCH  15  16
ATOM     16  C   UNL     1      -7.389  16.038  67.166  0.00  0.00    +0.176 C 
BRANCH  16  17
ATOM     17  C   UNL     1      -7.571  17.508  67.028  0.00  0.00    +0.145 A 
ATOM     18  O   UNL     1      -8.251  18.038  66.025  0.00  0.00    -0.453 OA
ATOM     19  C   UNL     1      -8.305  19.345  66.165  0.00  0.00    +0.179 A 
ATOM     20  C   UNL     1      -7.731  19.688  67.382  0.00  0.00    +0.043 A 
ATOM     21  C   UNL     1      -7.509  18.477  68.022  0.00  0.00    +0.038 A 
ENDBRANCH  16  17
ENDBRANCH  15  16
ENDBRANCH   5  15
TORSDOF 5
ENDMDL
MODEL 5
REMARK VINA RESULT:      -6.7      3.431      5.983
REMARK  Name = 
REMARK  5 active torsions:
REMARK  status: ('A' for Active; 'I' for Inactive)
REMARK    1  A    between atoms: S_2  and  C_5
REMARK    2  A    between atoms: C_7  and  C_8
REMARK    3  A    between atoms: C_11  and  N_12
REMARK    4  A    between atoms: N_12  and  C_13
REMARK    5  A    between atoms: C_13  and  C_14
REMARK                            x       y       z     vdW  Elec       q    Type
REMARK                         _______ _______ _______ _____ _____    ______ ____
ROOT
ATOM      1  C   UNL     1     -11.154  15.780  67.597  0.00  0.00    +0.136 A 
ATOM      2  C   UNL     1     -11.635  14.572  67.114  0.00  0.00    +0.078 A 
ATOM      3 CL   UNL     1     -11.961  14.513  65.388  0.00  0.00    -0.081 Cl
ATOM      4  C   UNL     1     -11.928  13.506  67.956  0.00  0.00    +0.029 A 
ATOM      5  C   UNL     1     -11.966  13.763  69.322  0.00  0.00    +0.073 A 
ATOM      6  C   UNL     1     -11.875  15.064  69.802  0.00  0.00    +0.096 A 
ATOM      7  C   UNL     1     -11.352  16.030  68.951  0.00  0.00    +0.029 A 
ENDROOT
BRANCH   1   9
ATOM      8  N   UNL     1      -8.682  15.504  66.170  0.00  0.00    +0.039 NA
ATOM      9  S   UNL     1      -9.917  16.607  66.667  0.00  0.00    +0.094 S 
ATOM     10  O   UNL     1     -10.522  17.228  65.428  0.00  0.00    -0.150 OA
ATOM     11  O   UNL     1      -9.299  17.654  67.528  0.00  0.00    -0.150 OA
ENDBRANCH   1   9
BRANCH   6  12
ATOM     12  C   UNL     1     -12.564  15.452  71.037  0.00  0.00    +0.389 C 
ATOM     13  O   UNL     1     -11.886  16.320  71.901  0.00  0.00    -0.241 OA
ATOM     14  O   UNL     1     -13.821  15.613  71.003  0.00  0.00    -0.241 OA
ENDBRANCH   6  12
BRANCH   5  15
ATOM     15  N   UNL     1     -12.001  12.724  70.295  0.00  0.00    -0.229 NA
BRANCH  15  16
ATOM     16  C   UNL     1     -11.570  11.380  69.934  0.00  0.00    +0.176 C 
BRANCH  16  17
ATOM     17  C   UNL     1     -12.225  10.346  70.780  0.00  0.00    +0.145 A 
ATOM     18  O   UNL     1     -11.663   9.171  71.008  0.00  0.00    -0.453 OA
ATOM     19  C   UNL     1     -12.419   8.466  71.821  0.00  0.00    +0.179 A 
ATOM     20  C   UNL     1     -13.478   9.259  72.246  0.00  0.00    +0.043 A 
ATOM     21  C   UNL     1     -13.182  10.528  71.771  0.00  0.00    +0.038 A 
ENDBRANCH  16  17
ENDBRANCH  15  16
ENDBRANCH   5  15
TORSDOF 5
ENDMDL
MODEL 6
REMARK VINA RESULT:      -6.7      3.977      6.182
REMARK  Name = 
REMARK  5 active torsions:
REMARK  status: ('A' for Active; 'I' for Inactive)
REMARK    1  A    between atoms: S_2  and  C_5
REMARK    2  A    between atoms: C_7  and  C_8
REMARK    3  A    between atoms: C_11  and  N_12
REMARK    4  A    between atoms: N_12  and  C_13
REMARK    5  A    between atoms: C_13  and  C_14
REMARK                            x       y       z     vdW  Elec       q    Type
REMARK                         _______ _______ _______ _____ _____    ______ ____
ROOT
ATOM      1  C   UNL     1     -10.022  15.453  65.869  0.00  0.00    +0.136 A 
ATOM      2  C   UNL     1      -9.516  14.755  66.956  0.00  0.00    +0.078 A 
ATOM      3 CL   UNL     1      -8.097  15.455  67.722  0.00  0.00    -0.081 Cl
ATOM      4  C   UNL     1     -10.041  13.532  67.356  0.00  0.00    +0.029 A 
ATOM      5  C   UNL     1     -10.925  12.903  66.487  0.00  0.00    +0.073 A 
ATOM      6  C   UNL     1     -11.140  13.403  65.208  0.00  0.00    +0.096 A 
ATOM      7  C   UNL     1     -10.785  14.724  64.964  0.00  0.00    +0.029 A 
ENDROOT
BRANCH   1   9
ATOM      8  N   UNL     1     -10.807  17.667  67.515  0.00  0.00    +0.039 NA
ATOM      9  S   UNL     1     -10.137  17.200  65.992  0.00  0.00    +0.094 S 
ATOM     10  O   UNL     1      -8.765  17.824  65.867  0.00  0.00    -0.150 OA
ATOM     11  O   UNL     1     -11.034  17.691  64.908  0.00  0.00    -0.150 OA
ENDBRANCH   1   9
BRANCH   6  12
ATOM     12  C   UNL     1     -11.454  12.497  64.097  0.00  0.00    +0.389 C 
ATOM     13  O   UNL     1     -12.710  12.637  63.496  0.00  0.00    -0.241 OA
ATOM     14  O   UNL     1     -10.521  12.164  63.306  0.00  0.00    -0.241 OA
ENDBRANCH   6  12
BRANCH   5  15
ATOM     15  N   UNL     1     -11.719  11.788  66.878  0.00  0.00    -0.229 NA
BRANCH  15  16
ATOM     16  C   UNL     1     -11.075  10.584  67.387  0.00  0.00    +0.176 C 
BRANCH  16  17
ATOM     17  C   UNL     1     -11.360  10.375  68.832  0.00  0.00    +0.145 A 
ATOM     18  O   UNL     1     -10.592   9.614  69.593  0.00  0.00    -0.453 OA
ATOM     19  C   UNL     1     -11.032   9.637  70.833  0.00  0.00    +0.179 A 
ATOM     20  C   UNL     1     -12.074  10.551  70.921  0.00  0.00    +0.043 A 
ATOM     21  C   UNL     1     -12.086  11.192  69.690  0.00  0.00    +0.038 A 
ENDBRANCH  16  17
ENDBRANCH  15  16
ENDBRANCH   5  15
TORSDOF 5
ENDMDL
MODEL 7
REMARK VINA RESULT:      -6.6      3.219      6.108
REMARK  Name = 
REMARK  5 active torsions:
REMARK  status: ('A' for Active; 'I' for Inactive)
REMARK    1  A    between atoms: S_2  and  C_5
REMARK    2  A    between atoms: C_7  and  C_8
REMARK    3  A    between atoms: C_11  and  N_12
REMARK    4  A    between atoms: N_12  and  C_13
REMARK    5  A    between atoms: C_13  and  C_14
REMARK                            x       y       z     vdW  Elec       q    Type
REMARK                         _______ _______ _______ _____ _____    ______ ____
ROOT
ATOM      1  C   UNL     1     -11.451  13.174  66.134  0.00  0.00    +0.136 A 
ATOM      2  C   UNL     1     -10.169  12.684  66.338  0.00  0.00    +0.078 A 
ATOM      3 CL   UNL     1      -9.777  11.190  65.499  0.00  0.00    -0.081 Cl
ATOM      4  C   UNL     1      -9.282  13.287  67.222  0.00  0.00    +0.029 A 
ATOM      5  C   UNL     1      -9.795  14.246  68.086  0.00  0.00    +0.073 A 
ATOM      6  C   UNL     1     -11.165  14.468  68.167  0.00  0.00    +0.096 A 
ATOM      7  C   UNL     1     -11.954  14.022  67.114  0.00  0.00    +0.029 A 
ENDROOT
BRANCH   1   9
ATOM      8  N   UNL     1     -12.591  14.731  64.013  0.00  0.00    +0.039 NA
ATOM      9  S   UNL     1     -12.093  13.150  64.501  0.00  0.00    +0.094 S 
ATOM     10  O   UNL     1     -11.038  12.666  63.531  0.00  0.00    -0.150 OA
ATOM     11  O   UNL     1     -13.280  12.249  64.474  0.00  0.00    -0.150 OA
ENDBRANCH   1   9
BRANCH   6  12
ATOM     12  C   UNL     1     -11.778  14.890  69.432  0.00  0.00    +0.389 C 
ATOM     13  O   UNL     1     -12.158  16.232  69.541  0.00  0.00    -0.241 OA
ATOM     14  O   UNL     1     -12.534  14.073  70.039  0.00  0.00    -0.241 OA
ENDBRANCH   6  12
BRANCH   5  15
ATOM     15  N   UNL     1      -8.963  15.109  68.853  0.00  0.00    -0.229 NA
BRANCH  15  16
ATOM     16  C   UNL     1      -8.261  16.207  68.200  0.00  0.00    +0.176 C 
BRANCH  16  17
ATOM     17  C   UNL     1      -9.137  17.398  68.032  0.00  0.00    +0.145 A 
ATOM     18  O   UNL     1      -8.950  18.506  68.728  0.00  0.00    -0.453 OA
ATOM     19  C   UNL     1      -9.823  19.418  68.356  0.00  0.00    +0.179 A 
ATOM     20  C   UNL     1     -10.548  18.928  67.277  0.00  0.00    +0.043 A 
ATOM     21  C   UNL     1      -9.912  17.745  66.932  0.00  0.00    +0.038 A 
ENDBRANCH  16  17
ENDBRANCH  15  16
ENDBRANCH   5  15
TORSDOF 5
ENDMDL
MODEL 8
REMARK VINA RESULT:      -6.6      3.319      6.285
REMARK  Name = 
REMARK  5 active torsions:
REMARK  status: ('A' for Active; 'I' for Inactive)
REMARK    1  A    between atoms: S_2  and  C_5
REMARK    2  A    between atoms: C_7  and  C_8
REMARK    3  A    between atoms: C_11  and  N_12
REMARK    4  A    between atoms: N_12  and  C_13
REMARK    5  A    between atoms: C_13  and  C_14
REMARK                            x       y       z     vdW  Elec       q    Type
REMARK                         _______ _______ _______ _____ _____    ______ ____
ROOT
ATOM      1  C   UNL     1     -10.994  11.247  68.041  0.00  0.00    +0.136 A 
ATOM      2  C   UNL     1     -11.600  11.548  69.254  0.00  0.00    +0.078 A 
ATOM      3 CL   UNL     1     -12.054  10.169  70.244  0.00  0.00    -0.081 Cl
ATOM      4  C   UNL     1     -11.909  12.852  69.620  0.00  0.00    +0.029 A 
ATOM      5  C   UNL     1     -11.827  13.828  68.634  0.00  0.00    +0.073 A 
ATOM      6  C   UNL     1     -11.604  13.479  67.307  0.00  0.00    +0.096 A 
ATOM      7  C   UNL     1     -11.073  12.221  67.052  0.00  0.00    +0.029 A 
ENDROOT
BRANCH   1   9
ATOM      8  N   UNL     1      -8.702  10.196  66.677  0.00  0.00    +0.039 NA
ATOM      9  S   UNL     1      -9.770   9.990  68.020  0.00  0.00    +0.094 S 
ATOM     10  O   UNL     1      -8.949  10.038  69.289  0.00  0.00    -0.150 OA
ATOM     11  O   UNL     1     -10.451   8.672  67.886  0.00  0.00    -0.150 OA
ENDBRANCH   1   9
BRANCH   6  12
ATOM     12  C   UNL     1     -12.170  14.285  66.219  0.00  0.00    +0.389 C 
ATOM     13  O   UNL     1     -11.291  15.119  65.519  0.00  0.00    -0.241 OA
ATOM     14  O   UNL     1     -13.099  13.785  65.517  0.00  0.00    -0.241 OA
ENDBRANCH   6  12
BRANCH   5  15
ATOM     15  N   UNL     1     -11.870  15.220  68.929  0.00  0.00    -0.229 NA
BRANCH  15  16
ATOM     16  C   UNL     1     -11.226  15.723  70.136  0.00  0.00    +0.176 C 
BRANCH  16  17
ATOM     17  C   UNL     1     -12.159  15.735  71.294  0.00  0.00    +0.145 A 
ATOM     18  O   UNL     1     -13.469  15.646  71.138  0.00  0.00    -0.453 OA
ATOM     19  C   UNL     1     -14.057  15.629  72.315  0.00  0.00    +0.179 A 
ATOM     20  C   UNL     1     -13.081  15.587  73.302  0.00  0.00    +0.043 A 
ATOM     21  C   UNL     1     -11.892  15.393  72.615  0.00  0.00    +0.038 A 
ENDBRANCH  16  17
ENDBRANCH  15  16
ENDBRANCH   5  15
TORSDOF 5
ENDMDL
MODEL 9
REMARK VINA RESULT:      -6.5      3.385      5.745
REMARK  Name = 
REMARK  5 active torsions:
REMARK  status: ('A' for Active; 'I' for Inactive)
REMARK    1  A    between atoms: S_2  and  C_5
REMARK    2  A    between atoms: C_7  and  C_8
REMARK    3  A    between atoms: C_11  and  N_12
REMARK    4  A    between atoms: N_12  and  C_13
REMARK    5  A    between atoms: C_13  and  C_14
REMARK                            x       y       z     vdW  Elec       q    Type
REMARK                         _______ _______ _______ _____ _____    ______ ____
ROOT
ATOM      1  C   UNL     1     -11.657  12.362  67.629  0.00  0.00    +0.136 A 
ATOM      2  C   UNL     1     -11.530  13.564  68.311  0.00  0.00    +0.078 A 
ATOM      3 CL   UNL     1     -12.078  13.557  69.981  0.00  0.00    -0.081 Cl
ATOM      4  C   UNL     1     -11.085  14.723  67.686  0.00  0.00    +0.029 A 
ATOM      5  C   UNL     1     -11.008  14.710  66.299  0.00  0.00    +0.073 A 
ATOM      6  C   UNL     1     -11.511  13.639  65.570  0.00  0.00    +0.096 A 
ATOM      7  C   UNL     1     -11.713  12.440  66.242  0.00  0.00    +0.029 A 
ENDROOT
BRANCH   1   9
ATOM      8  N   UNL     1     -10.947   9.598  67.340  0.00  0.00    +0.039 NA
ATOM      9  S   UNL     1     -11.200  10.887  68.464  0.00  0.00    +0.094 S 
ATOM     10  O   UNL     1      -9.917  11.100  69.236  0.00  0.00    -0.150 OA
ATOM     11  O   UNL     1     -12.307  10.505  69.384  0.00  0.00    -0.150 OA
ENDBRANCH   1   9
BRANCH   6  12
ATOM     12  C   UNL     1     -12.073  13.848  64.230  0.00  0.00    +0.389 C 
ATOM     13  O   UNL     1     -12.524  12.715  63.544  0.00  0.00    -0.241 OA
ATOM     14  O   UNL     1     -12.743  14.901  64.013  0.00  0.00    -0.241 OA
ENDBRANCH   6  12
BRANCH   5  15
ATOM     15  N   UNL     1     -10.338  15.726  65.560  0.00  0.00    -0.229 NA
BRANCH  15  16
ATOM     16  C   UNL     1      -9.079  16.268  66.055  0.00  0.00    +0.176 C 
BRANCH  16  17
ATOM     17  C   UNL     1      -9.192  17.714  66.383  0.00  0.00    +0.145 A 
ATOM     18  O   UNL     1      -8.314  18.601  65.948  0.00  0.00    -0.453 OA
ATOM     19  C   UNL     1      -8.669  19.807  66.336  0.00  0.00    +0.179 A 
ATOM     20  C   UNL     1      -9.907  19.729  66.961  0.00  0.00    +0.043 A 
ATOM     21  C   UNL     1     -10.330  18.425  66.744  0.00  0.00    +0.038 A 
ENDBRANCH  16  17
ENDBRANCH  15  16
ENDBRANCH   5  15
TORSDOF 5
ENDMDL
