MODEL 1
REMARK VINA RESULT:      -4.9      0.000      0.000
REMARK  Name = 
REMARK  3 active torsions:
REMARK  status: ('A' for Active; 'I' for Inactive)
REMARK    1  A    between atoms: C_8  and  O_9
REMARK    2  A    between atoms: O_9  and  C_10
REMARK    3  A    between atoms: C_10  and  C_11
REMARK                            x       y       z     vdW  Elec       q    Type
REMARK                         _______ _______ _______ _____ _____    ______ ____
ROOT
ATOM      1  C   UNL     1     -11.676  15.845  68.621  0.00  0.00    +0.034 C 
ATOM      2  C   UNL     1     -11.565  14.408  68.413  0.00  0.00    +0.012 A 
ATOM      3  C   UNL     1     -11.860  13.593  69.491  0.00  0.00    +0.131 A 
ATOM      4  C   UNL     1     -11.895  12.218  69.304  0.00  0.00    +0.012 A 
ATOM      5  C   UNL     1     -12.068  11.353  70.510  0.00  0.00    +0.034 C 
ATOM      6  C   UNL     1     -11.759  11.684  68.029  0.00  0.00    -0.001 A 
ATOM      7  C   UNL     1     -11.663  12.503  66.910  0.00  0.00    -0.000 A 
ATOM      8  C   UNL     1     -11.352  13.832  67.169  0.00  0.00    -0.001 A 
ENDROOT
BRANCH   3   9
ATOM      9  O   UNL     1     -12.638  14.102  70.499  0.00  0.00    -0.475 OA
BRANCH   9  10
ATOM     10  C   UNL     1     -12.185  14.680  71.690  0.00  0.00    +0.224 C 
BRANCH  10  11
ATOM     11  C   UNL     1     -13.407  14.484  72.766  0.00  0.00    +0.135 C 
ATOM     12  N   UNL     1     -14.112  15.810  72.301  0.00  0.00    -0.129 NA
ATOM     13  C   UNL     1     -12.594  15.267  73.956  0.00  0.00    +0.024 C 
ENDBRANCH  10  11
ENDBRANCH   9  10
ENDBRANCH   3   9
TORSDOF 3
ENDMDL
MODEL 2
REMARK VINA RESULT:      -4.8      2.885      5.506
REMARK  Name = 
REMARK  3 active torsions:
REMARK  status: ('A' for Active; 'I' for Inactive)
REMARK    1  A    between atoms: C_8  and  O_9
REMARK    2  A    between atoms: O_9  and  C_10
REMARK    3  A    between atoms: C_10  and  C_11
REMARK                            x       y       z     vdW  Elec       q    Type
REMARK                         _______ _______ _______ _____ _____    ______ ____
ROOT
ATOM      1  C   UNL     1     -11.538  11.839  68.753  0.00  0.00    +0.034 C 
ATOM      2  C   UNL     1     -11.685  13.154  69.363  0.00  0.00    +0.012 A 
ATOM      3  C   UNL     1     -11.258  14.240  68.620  0.00  0.00    +0.131 A 
ATOM      4  C   UNL     1     -11.496  15.520  69.102  0.00  0.00    +0.012 A 
ATOM      5  C   UNL     1     -10.896  16.670  68.360  0.00  0.00    +0.034 C 
ATOM      6  C   UNL     1     -12.261  15.702  70.248  0.00  0.00    -0.001 A 
ATOM      7  C   UNL     1     -12.865  14.627  70.890  0.00  0.00    -0.000 A 
ATOM      8  C   UNL     1     -12.374  13.374  70.546  0.00  0.00    -0.001 A 
ENDROOT
BRANCH   3   9
ATOM      9  O   UNL     1     -11.153  14.099  67.260  0.00  0.00    -0.475 OA
BRANCH   9  10
ATOM     10  C   UNL     1     -12.202  14.142  66.334  0.00  0.00    +0.224 C 
BRANCH  10  11
ATOM     11  C   UNL     1     -11.513  13.844  64.876  0.00  0.00    +0.135 C 
ATOM     12  N   UNL     1     -12.570  14.735  64.127  0.00  0.00    -0.129 NA
ATOM     13  C   UNL     1     -12.406  12.489  64.640  0.00  0.00    +0.024 C 
ENDBRANCH  10  11
ENDBRANCH   9  10
ENDBRANCH   3   9
TORSDOF 3
ENDMDL
MODEL 3
REMARK VINA RESULT:      -4.7      2.433      5.115
REMARK  Name = 
REMARK  3 active torsions:
REMARK  status: ('A' for Active; 'I' for Inactive)
REMARK    1  A    between atoms: C_8  and  O_9
REMARK    2  A    between atoms: O_9  and  C_10
REMARK    3  A    between atoms: C_10  and  C_11
REMARK                            x       y       z     vdW  Elec       q    Type
REMARK                         _______ _______ _______ _____ _____    ______ ____
ROOT
ATOM      1  C   UNL     1     -12.613  11.415  71.097  0.00  0.00    +0.034 C 
ATOM      2  C   UNL     1     -12.772  12.840  71.349  0.00  0.00    +0.012 A 
ATOM      3  C   UNL     1     -11.993  13.701  70.596  0.00  0.00    +0.131 A 
ATOM      4  C   UNL     1     -12.202  15.069  70.708  0.00  0.00    +0.012 A 
ATOM      5  C   UNL     1     -11.253  15.982  70.001  0.00  0.00    +0.034 C 
ATOM      6  C   UNL     1     -13.260  15.552  71.468  0.00  0.00    -0.001 A 
ATOM      7  C   UNL     1     -14.172  14.690  72.066  0.00  0.00    -0.000 A 
ATOM      8  C   UNL     1     -13.765  13.365  72.162  0.00  0.00    -0.001 A 
ENDROOT
BRANCH   3   9
ATOM      9  O   UNL     1     -11.482  13.247  69.407  0.00  0.00    -0.475 OA
BRANCH   9  10
ATOM     10  C   UNL     1     -12.057  13.398  68.141  0.00  0.00    +0.224 C 
BRANCH  10  11
ATOM     11  C   UNL     1     -11.022  12.669  67.098  0.00  0.00    +0.135 C 
ATOM     12  N   UNL     1     -12.165  12.403  66.053  0.00  0.00    -0.129 NA
ATOM     13  C   UNL     1     -11.233  11.197  67.789  0.00  0.00    +0.024 C 
ENDBRANCH  10  11
ENDBRANCH   9  10
ENDBRANCH   3   9
TORSDOF 3
ENDMDL
MODEL 4
REMARK VINA RESULT:      -4.6      1.992      2.974
REMARK  Name = 
REMARK  3 active torsions:
REMARK  status: ('A' for Active; 'I' for Inactive)
REMARK    1  A    between atoms: C_8  and  O_9
REMARK    2  A    between atoms: O_9  and  C_10
REMARK    3  A    between atoms: C_10  and  C_11
REMARK                            x       y       z     vdW  Elec       q    Type
REMARK                         _______ _______ _______ _____ _____    ______ ____
ROOT
ATOM      1  C   UNL     1     -10.170  18.195  68.284  0.00  0.00    +0.034 C 
ATOM      2  C   UNL     1     -10.358  16.995  67.480  0.00  0.00    +0.012 A 
ATOM      3  C   UNL     1     -11.022  15.938  68.076  0.00  0.00    +0.131 A 
ATOM      4  C   UNL     1     -11.338  14.825  67.309  0.00  0.00    +0.012 A 
ATOM      5  C   UNL     1     -11.920  13.638  68.007  0.00  0.00    +0.034 C 
ATOM      6  C   UNL     1     -11.104  14.832  65.940  0.00  0.00    -0.001 A 
ATOM      7  C   UNL     1     -10.622  15.967  65.297  0.00  0.00    -0.000 A 
ATOM      8  C   UNL     1     -10.064  16.931  66.126  0.00  0.00    -0.001 A 
ENDROOT
BRANCH   3   9
ATOM      9  O   UNL     1     -11.829  16.199  69.154  0.00  0.00    -0.475 OA
BRANCH   9  10
ATOM     10  C   UNL     1     -11.535  15.940  70.497  0.00  0.00    +0.224 C 
BRANCH  10  11
ATOM     11  C   UNL     1     -12.978  15.623  71.209  0.00  0.00    +0.135 C 
ATOM     12  N   UNL     1     -12.457  16.093  72.615  0.00  0.00    -0.129 NA
ATOM     13  C   UNL     1     -12.574  14.063  71.518  0.00  0.00    +0.024 C 
ENDBRANCH  10  11
ENDBRANCH   9  10
ENDBRANCH   3   9
TORSDOF 3
ENDMDL
MODEL 5
REMARK VINA RESULT:      -4.5      2.379      4.738
REMARK  Name = 
REMARK  3 active torsions:
REMARK  status: ('A' for Active; 'I' for Inactive)
REMARK    1  A    between atoms: C_8  and  O_9
REMARK    2  A    between atoms: O_9  and  C_10
REMARK    3  A    between atoms: C_10  and  C_11
REMARK                            x       y       z     vdW  Elec       q    Type
REMARK                         _______ _______ _______ _____ _____    ______ ____
ROOT
ATOM      1  C   UNL     1     -11.686  15.098  68.947  0.00  0.00    +0.034 C 
ATOM      2  C   UNL     1     -12.395  14.722  70.163  0.00  0.00    +0.012 A 
ATOM      3  C   UNL     1     -12.481  13.370  70.446  0.00  0.00    +0.131 A 
ATOM      4  C   UNL     1     -13.032  12.970  71.656  0.00  0.00    +0.012 A 
ATOM      5  C   UNL     1     -13.250  11.509  71.876  0.00  0.00    +0.034 C 
ATOM      6  C   UNL     1     -13.372  13.918  72.614  0.00  0.00    -0.001 A 
ATOM      7  C   UNL     1     -13.103  15.268  72.420  0.00  0.00    -0.000 A 
ATOM      8  C   UNL     1     -12.824  15.639  71.111  0.00  0.00    -0.001 A 
ENDROOT
BRANCH   3   9
ATOM      9  O   UNL     1     -11.568  12.524  69.870  0.00  0.00    -0.475 OA
BRANCH   9  10
ATOM     10  C   UNL     1     -11.841  11.500  68.957  0.00  0.00    +0.224 C 
BRANCH  10  11
ATOM     11  C   UNL     1     -10.778  11.714  67.726  0.00  0.00    +0.135 C 
ATOM     12  N   UNL     1     -11.929  12.045  66.708  0.00  0.00    -0.129 NA
ATOM     13  C   UNL     1     -10.801  10.125  67.322  0.00  0.00    +0.024 C 
ENDBRANCH  10  11
ENDBRANCH   9  10
ENDBRANCH   3   9
TORSDOF 3
ENDMDL
MODEL 6
REMARK VINA RESULT:      -4.5      2.839      5.072
REMARK  Name = 
REMARK  3 active torsions:
REMARK  status: ('A' for Active; 'I' for Inactive)
REMARK    1  A    between atoms: C_8  and  O_9
REMARK    2  A    between atoms: O_9  and  C_10
REMARK    3  A    between atoms: C_10  and  C_11
REMARK                            x       y       z     vdW  Elec       q    Type
REMARK                         _______ _______ _______ _____ _____    ______ ____
ROOT
ATOM      1  C   UNL     1     -11.208  11.473  67.463  0.00  0.00    +0.034 C 
ATOM      2  C   UNL     1     -11.525  12.124  68.726  0.00  0.00    +0.012 A 
ATOM      3  C   UNL     1     -11.634  13.503  68.710  0.00  0.00    +0.131 A 
ATOM      4  C   UNL     1     -12.061  14.157  69.858  0.00  0.00    +0.012 A 
ATOM      5  C   UNL     1     -12.028  15.651  69.866  0.00  0.00    +0.034 C 
ATOM      6  C   UNL     1     -12.492  13.425  70.958  0.00  0.00    -0.001 A 
ATOM      7  C   UNL     1     -12.577  12.038  70.913  0.00  0.00    -0.000 A 
ATOM      8  C   UNL     1     -11.884  11.431  69.873  0.00  0.00    -0.001 A 
ENDROOT
BRANCH   3   9
ATOM      9  O   UNL     1     -11.884  14.124  67.514  0.00  0.00    -0.475 OA
BRANCH   9  10
ATOM     10  C   UNL     1     -11.065  15.061  66.873  0.00  0.00    +0.224 C 
BRANCH  10  11
ATOM     11  C   UNL     1     -10.842  14.484  65.354  0.00  0.00    +0.135 C 
ATOM     12  N   UNL     1     -10.923  15.925  64.730  0.00  0.00    -0.129 NA
ATOM     13  C   UNL     1     -12.447  14.235  65.126  0.00  0.00    +0.024 C 
ENDBRANCH  10  11
ENDBRANCH   9  10
ENDBRANCH   3   9
TORSDOF 3
ENDMDL
MODEL 7
REMARK VINA RESULT:      -4.5      5.394      7.419
REMARK  Name = 
REMARK  3 active torsions:
REMARK  status: ('A' for Active; 'I' for Inactive)
REMARK    1  A    between atoms: C_8  and  O_9
REMARK    2  A    between atoms: O_9  and  C_10
REMARK    3  A    between atoms: C_10  and  C_11
REMARK                            x       y       z     vdW  Elec       q    Type
REMARK                         _______ _______ _______ _____ _____    ______ ____
ROOT
ATOM      1  C   UNL     1      -6.840  16.522  66.851  0.00  0.00    +0.034 C 
ATOM      2  C   UNL     1      -7.554  17.740  67.211  0.00  0.00    +0.012 A 
ATOM      3  C   UNL     1      -8.647  18.080  66.433  0.00  0.00    +0.131 A 
ATOM      4  C   UNL     1      -9.435  19.157  66.815  0.00  0.00    +0.012 A 
ATOM      5  C   UNL     1     -10.517  19.597  65.883  0.00  0.00    +0.034 C 
ATOM      6  C   UNL     1      -9.200  19.798  68.026  0.00  0.00    -0.001 A 
ATOM      7  C   UNL     1      -8.232  19.337  68.910  0.00  0.00    -0.000 A 
ATOM      8  C   UNL     1      -7.302  18.458  68.371  0.00  0.00    -0.001 A 
ENDROOT
BRANCH   3   9
ATOM      9  O   UNL     1      -9.256  17.095  65.699  0.00  0.00    -0.475 OA
BRANCH   9  10
ATOM     10  C   UNL     1     -10.162  16.141  66.174  0.00  0.00    +0.224 C 
BRANCH  10  11
ATOM     11  C   UNL     1     -10.598  15.257  64.862  0.00  0.00    +0.135 C 
ATOM     12  N   UNL     1     -11.423  16.450  64.257  0.00  0.00    -0.129 NA
ATOM     13  C   UNL     1     -11.923  14.647  65.612  0.00  0.00    +0.024 C 
ENDBRANCH  10  11
ENDBRANCH   9  10
ENDBRANCH   3   9
TORSDOF 3
ENDMDL
MODEL 8
REMARK VINA RESULT:      -4.4      3.565      5.960
REMARK  Name = 
REMARK  3 active torsions:
REMARK  status: ('A' for Active; 'I' for Inactive)
REMARK    1  A    between atoms: C_8  and  O_9
REMARK    2  A    between atoms: O_9  and  C_10
REMARK    3  A    between atoms: C_10  and  C_11
REMARK                            x       y       z     vdW  Elec       q    Type
REMARK                         _______ _______ _______ _____ _____    ______ ____
ROOT
ATOM      1  C   UNL     1     -10.259   9.700  66.412  0.00  0.00    +0.034 C 
ATOM      2  C   UNL     1     -10.680  10.445  67.591  0.00  0.00    +0.012 A 
ATOM      3  C   UNL     1     -11.095  11.750  67.393  0.00  0.00    +0.131 A 
ATOM      4  C   UNL     1     -11.628  12.456  68.463  0.00  0.00    +0.012 A 
ATOM      5  C   UNL     1     -11.929  13.906  68.264  0.00  0.00    +0.034 C 
ATOM      6  C   UNL     1     -11.854  11.817  69.676  0.00  0.00    -0.001 A 
ATOM      7  C   UNL     1     -11.629  10.453  69.826  0.00  0.00    -0.000 A 
ATOM      8  C   UNL     1     -10.846   9.866  68.840  0.00  0.00    -0.001 A 
ENDROOT
BRANCH   3   9
ATOM      9  O   UNL     1     -11.509  12.120  66.139  0.00  0.00    -0.475 OA
BRANCH   9  10
ATOM     10  C   UNL     1     -10.855  13.002  65.272  0.00  0.00    +0.224 C 
BRANCH  10  11
ATOM     11  C   UNL     1     -11.825  13.126  63.956  0.00  0.00    +0.135 C 
ATOM     12  N   UNL     1     -13.081  12.628  64.759  0.00  0.00    -0.129 NA
ATOM     13  C   UNL     1     -11.475  11.604  63.453  0.00  0.00    +0.024 C 
ENDBRANCH  10  11
ENDBRANCH   9  10
ENDBRANCH   3   9
TORSDOF 3
ENDMDL
MODEL 9
REMARK VINA RESULT:      -4.4      3.397      4.380
REMARK  Name = 
REMARK  3 active torsions:
REMARK  status: ('A' for Active; 'I' for Inactive)
REMARK    1  A    between atoms: C_8  and  O_9
REMARK    2  A    between atoms: O_9  and  C_10
REMARK    3  A    between atoms: C_10  and  C_11
REMARK                            x       y       z     vdW  Elec       q    Type
REMARK                         _______ _______ _______ _____ _____    ______ ____
ROOT
ATOM      1  C   UNL     1     -12.597  13.908  65.952  0.00  0.00    +0.034 C 
ATOM      2  C   UNL     1     -11.736  12.921  65.315  0.00  0.00    +0.012 A 
ATOM      3  C   UNL     1     -11.267  11.892  66.111  0.00  0.00    +0.131 A 
ATOM      4  C   UNL     1     -10.551  10.858  65.521  0.00  0.00    +0.012 A 
ATOM      5  C   UNL     1      -9.928   9.838  66.417  0.00  0.00    +0.034 C 
ATOM      6  C   UNL     1     -10.423  10.800  64.139  0.00  0.00    -0.001 A 
ATOM      7  C   UNL     1     -11.063  11.719  63.315  0.00  0.00    -0.000 A 
ATOM      8  C   UNL     1     -11.516  12.871  63.946  0.00  0.00    -0.001 A 
ENDROOT
BRANCH   3   9
ATOM      9  O   UNL     1     -11.948  11.596  67.264  0.00  0.00    -0.475 OA
BRANCH   9  10
ATOM     10  C   UNL     1     -11.572  11.942  68.566  0.00  0.00    +0.224 C 
BRANCH  10  11
ATOM     11  C   UNL     1     -12.230  10.794  69.534  0.00  0.00    +0.135 C 
ATOM     12  N   UNL     1     -12.299  11.777  70.758  0.00  0.00    -0.129 NA
ATOM     13  C   UNL     1     -10.763  10.228  69.999  0.00  0.00    +0.024 C 
ENDBRANCH  10  11
ENDBRANCH   9  10
ENDBRANCH   3   9
TORSDOF 3
ENDMDL
