MODEL 1
REMARK VINA RESULT:      -7.7      0.000      0.000
REMARK  Name = 
REMARK  9 active torsions:
REMARK  status: ('A' for Active; 'I' for Inactive)
REMARK    1  A    between atoms: C_4  and  O_5
REMARK    2  A    between atoms: O_5  and  C_6
REMARK    3  A    between atoms: C_11  and  O_12
REMARK    4  A    between atoms: O_12  and  C_13
REMARK    5  A    between atoms: C_21  and  C_22
REMARK    6  A    between atoms: C_25  and  C_26
REMARK    7  A    between atoms: C_32  and  N_33
REMARK    8  A    between atoms: N_33  and  C_34
REMARK    9  A    between atoms: C_36  and  C_37
REMARK                            x       y       z     vdW  Elec       q    Type
REMARK                         _______ _______ _______ _____ _____    ______ ____
ROOT
ATOM      1  O   UNL     1      -9.473  13.824  67.802  0.00  0.00    -0.326 OA
ENDROOT
BRANCH   1   9
ATOM      2  C   UNL     1      -7.545  10.850  68.665  0.00  0.00    +0.034 C 
ATOM      3  C   UNL     1      -8.838  11.831  68.563  0.00  0.00    +0.136 C 
ATOM      4  C   UNL     1     -10.005  10.617  68.283  0.00  0.00    +0.133 C 
ATOM      5  C   UNL     1     -11.007  12.005  68.214  0.00  0.00    +0.205 C 
ATOM      6  O   UNL     1     -12.265  11.235  68.005  0.00  0.00    -0.219 OA
ATOM      7  C   UNL     1     -10.855  12.178  66.546  0.00  0.00    +0.239 C 
ATOM      8  O   UNL     1     -11.757  13.369  66.542  0.00  0.00    -0.215 OA
ATOM      9  C   UNL     1      -9.357  13.013  66.516  0.00  0.00    +0.269 C 
ATOM     10  O   UNL     1      -8.585  11.837  67.081  0.00  0.00    -0.330 OA
BRANCH   4  11
ATOM     11  N   UNL     1     -10.482  10.261  69.692  0.00  0.00    -0.209 NA
BRANCH  11  12
ATOM     12  C   UNL     1     -10.327   8.753  69.977  0.00  0.00    +0.127 C 
ATOM     13  C   UNL     1     -11.843   8.508  70.748  0.00  0.00    +0.205 C 
ATOM     14  O   UNL     1     -11.800   9.744  71.609  0.00  0.00    -0.218 OA
ATOM     15  C   UNL     1     -11.341   7.535  72.038  0.00  0.00    +0.218 C 
ATOM     16  O   UNL     1     -12.366   6.480  71.696  0.00  0.00    -0.217 OA
ATOM     17  C   UNL     1     -10.110   6.586  71.307  0.00  0.00    +0.205 C 
ATOM     18  O   UNL     1     -10.374   6.910  69.860  0.00  0.00    -0.216 OA
ATOM     19  C   UNL     1      -9.030   7.763  71.637  0.00  0.00    +0.018 C 
ATOM     20  C   UNL     1      -9.541   8.984  71.368  0.00  0.00    -0.010 C 
BRANCH  19  21
ATOM     21  C   UNL     1      -8.650   7.544  73.075  0.00  0.00    +0.207 C 
ATOM     22  O   UNL     1      -8.005   8.607  73.703  0.00  0.00    -0.215 OA
ENDBRANCH  19  21
ENDBRANCH  11  12
ENDBRANCH   4  11
ENDBRANCH   1   9
BRANCH   1  23
ATOM     23  C   UNL     1      -8.558  14.998  67.407  0.00  0.00    +0.180 C 
ATOM     24  C   UNL     1      -8.287  15.288  69.068  0.00  0.00    +0.180 C 
ATOM     25  O   UNL     1      -7.535  16.545  68.955  0.00  0.00    -0.326 OA
ATOM     26  C   UNL     1      -7.562  17.105  67.568  0.00  0.00    +0.270 C 
ATOM     27  C   UNL     1      -9.232  17.549  67.513  0.00  0.00    +0.240 C 
ATOM     28  O   UNL     1      -9.562  17.342  68.961  0.00  0.00    -0.215 OA
ATOM     29  C   UNL     1      -9.868  16.039  67.135  0.00  0.00    +0.217 C 
ATOM     30  O   UNL     1      -9.406  16.234  65.702  0.00  0.00    -0.218 OA
BRANCH  24  31
ATOM     31  C   UNL     1      -6.890  14.378  69.014  0.00  0.00    +0.214 C 
ATOM     32  O   UNL     1      -6.357  14.841  70.226  0.00  0.00    -0.218 OA
ENDBRANCH  24  31
BRANCH  26  33
ATOM     33  O   UNL     1      -7.180  18.563  67.926  0.00  0.00    -0.326 OA
BRANCH  33  34
ATOM     34  C   UNL     1      -6.035  18.290  68.878  0.00  0.00    +0.180 C 
ATOM     35  C   UNL     1      -6.183  19.709  69.859  0.00  0.00    +0.180 C 
ATOM     36  O   UNL     1      -5.644  20.728  68.918  0.00  0.00    -0.324 OA
ATOM     37  C   UNL     1      -6.377  20.425  67.608  0.00  0.00    +0.302 C 
ATOM     38  O   UNL     1      -6.292  21.859  67.097  0.00  0.00    -0.187 OA
ATOM     39  C   UNL     1      -4.862  19.965  66.994  0.00  0.00    +0.243 C 
ATOM     40  O   UNL     1      -5.290  19.094  65.839  0.00  0.00    -0.215 OA
ATOM     41  C   UNL     1      -4.632  18.607  67.987  0.00  0.00    +0.217 C 
ATOM     42  O   UNL     1      -3.843  19.505  68.948  0.00  0.00    -0.218 OA
BRANCH  35  43
ATOM     43  C   UNL     1      -4.869  19.232  70.715  0.00  0.00    +0.214 C 
ATOM     44  O   UNL     1      -5.208  19.042  72.012  0.00  0.00    -0.218 OA
ENDBRANCH  35  43
ENDBRANCH  33  34
ENDBRANCH  26  33
ENDBRANCH   1  23
TORSDOF 9
ENDMDL
MODEL 2
REMARK VINA RESULT:      -7.3      2.504     10.626
REMARK  Name = 
REMARK  9 active torsions:
REMARK  status: ('A' for Active; 'I' for Inactive)
REMARK    1  A    between atoms: C_4  and  O_5
REMARK    2  A    between atoms: O_5  and  C_6
REMARK    3  A    between atoms: C_11  and  O_12
REMARK    4  A    between atoms: O_12  and  C_13
REMARK    5  A    between atoms: C_21  and  C_22
REMARK    6  A    between atoms: C_25  and  C_26
REMARK    7  A    between atoms: C_32  and  N_33
REMARK    8  A    between atoms: N_33  and  C_34
REMARK    9  A    between atoms: C_36  and  C_37
REMARK                            x       y       z     vdW  Elec       q    Type
REMARK                         _______ _______ _______ _____ _____    ______ ____
ROOT
ATOM      1  O   UNL     1     -10.264  11.541  67.496  0.00  0.00    -0.326 OA
ENDROOT
BRANCH   1   9
ATOM      2  C   UNL     1     -11.342  14.310  69.612  0.00  0.00    +0.034 C 
ATOM      3  C   UNL     1     -10.620  13.560  68.362  0.00  0.00    +0.136 C 
ATOM      4  C   UNL     1     -10.979  14.732  67.174  0.00  0.00    +0.133 C 
ATOM      5  C   UNL     1     -10.158  13.581  66.207  0.00  0.00    +0.205 C 
ATOM      6  O   UNL     1     -10.247  14.387  64.957  0.00  0.00    -0.219 OA
ATOM      7  C   UNL     1     -11.566  12.770  65.766  0.00  0.00    +0.239 C 
ATOM      8  O   UNL     1     -10.800  11.809  64.917  0.00  0.00    -0.215 OA
ATOM      9  C   UNL     1     -11.731  11.781  67.157  0.00  0.00    +0.269 C 
ATOM     10  O   UNL     1     -11.969  12.958  68.081  0.00  0.00    -0.330 OA
BRANCH   4  11
ATOM     11  N   UNL     1      -9.764  15.659  67.221  0.00  0.00    -0.209 NA
BRANCH  11  12
ATOM     12  C   UNL     1     -10.165  17.099  67.601  0.00  0.00    +0.127 C 
ATOM     13  C   UNL     1     -10.043  17.794  66.034  0.00  0.00    +0.205 C 
ATOM     14  O   UNL     1      -8.740  17.137  65.656  0.00  0.00    -0.218 OA
ATOM     15  C   UNL     1      -9.253  19.236  66.433  0.00  0.00    +0.218 C 
ATOM     16  O   UNL     1     -10.306  20.057  65.727  0.00  0.00    -0.217 OA
ATOM     17  C   UNL     1      -9.963  19.619  67.951  0.00  0.00    +0.205 C 
ATOM     18  O   UNL     1     -11.114  18.648  67.938  0.00  0.00    -0.216 OA
ATOM     19  C   UNL     1      -8.849  18.682  68.689  0.00  0.00    +0.018 C 
ATOM     20  C   UNL     1      -8.664  17.525  68.019  0.00  0.00    -0.010 C 
BRANCH  19  21
ATOM     21  C   UNL     1      -7.626  19.551  68.794  0.00  0.00    +0.207 C 
ATOM     22  O   UNL     1      -6.527  18.979  69.431  0.00  0.00    -0.215 OA
ENDBRANCH  19  21
ENDBRANCH  11  12
ENDBRANCH   4  11
ENDBRANCH   1   9
BRANCH   1  23
ATOM     23  C   UNL     1     -10.324  10.013  67.677  0.00  0.00    +0.180 C 
ATOM     24  C   UNL     1      -9.541  10.204  69.181  0.00  0.00    +0.180 C 
ATOM     25  O   UNL     1      -9.314   8.788  69.496  0.00  0.00    -0.326 OA
ATOM     26  C   UNL     1      -9.609   7.889  68.337  0.00  0.00    +0.270 C 
ATOM     27  C   UNL     1      -8.295   8.362  67.317  0.00  0.00    +0.240 C 
ATOM     28  O   UNL     1      -7.528   9.180  68.312  0.00  0.00    -0.215 OA
ATOM     29  C   UNL     1      -8.981   9.756  66.675  0.00  0.00    +0.217 C 
ATOM     30  O   UNL     1      -9.832   8.886  65.767  0.00  0.00    -0.218 OA
BRANCH  24  31
ATOM     31  C   UNL     1     -11.014  10.203  69.965  0.00  0.00    +0.214 C 
ATOM     32  O   UNL     1     -10.551   9.645  71.165  0.00  0.00    -0.218 OA
ENDBRANCH  24  31
BRANCH  26  33
ATOM     33  O   UNL     1      -8.801   6.658  68.817  0.00  0.00    -0.326 OA
BRANCH  33  34
ATOM     34  C   UNL     1      -9.533   6.373  70.111  0.00  0.00    +0.180 C 
ATOM     35  C   UNL     1      -8.166   5.953  71.085  0.00  0.00    +0.180 C 
ATOM     36  O   UNL     1      -7.860   4.606  70.531  0.00  0.00    -0.324 OA
ATOM     37  C   UNL     1      -7.887   4.831  69.016  0.00  0.00    +0.302 C 
ATOM     38  O   UNL     1      -6.911   3.699  68.717  0.00  0.00    -0.187 OA
ATOM     39  C   UNL     1      -9.265   3.837  69.004  0.00  0.00    +0.243 C 
ATOM     40  O   UNL     1      -9.890   4.257  67.697  0.00  0.00    -0.215 OA
ATOM     41  C   UNL     1     -10.287   4.877  69.874  0.00  0.00    +0.217 C 
ATOM     42  O   UNL     1      -9.891   4.118  71.148  0.00  0.00    -0.218 OA
BRANCH  35  43
ATOM     43  C   UNL     1      -9.176   5.642  72.338  0.00  0.00    +0.214 C 
ATOM     44  O   UNL     1      -8.605   6.041  73.499  0.00  0.00    -0.218 OA
ENDBRANCH  35  43
ENDBRANCH  33  34
ENDBRANCH  26  33
ENDBRANCH   1  23
TORSDOF 9
ENDMDL
MODEL 3
REMARK VINA RESULT:      -7.3      0.963      1.028
REMARK  Name = 
REMARK  9 active torsions:
REMARK  status: ('A' for Active; 'I' for Inactive)
REMARK    1  A    between atoms: C_4  and  O_5
REMARK    2  A    between atoms: O_5  and  C_6
REMARK    3  A    between atoms: C_11  and  O_12
REMARK    4  A    between atoms: O_12  and  C_13
REMARK    5  A    between atoms: C_21  and  C_22
REMARK    6  A    between atoms: C_25  and  C_26
REMARK    7  A    between atoms: C_32  and  N_33
REMARK    8  A    between atoms: N_33  and  C_34
REMARK    9  A    between atoms: C_36  and  C_37
REMARK                            x       y       z     vdW  Elec       q    Type
REMARK                         _______ _______ _______ _____ _____    ______ ____
ROOT
ATOM      1  O   UNL     1      -9.501  13.353  67.668  0.00  0.00    -0.326 OA
ENDROOT
BRANCH   1   9
ATOM      2  C   UNL     1      -7.720  10.252  68.390  0.00  0.00    +0.034 C 
ATOM      3  C   UNL     1      -8.927  11.341  68.429  0.00  0.00    +0.136 C 
ATOM      4  C   UNL     1     -10.220  10.227  68.385  0.00  0.00    +0.133 C 
ATOM      5  C   UNL     1     -11.102  11.697  68.392  0.00  0.00    +0.205 C 
ATOM      6  O   UNL     1     -12.438  11.036  68.409  0.00  0.00    -0.219 OA
ATOM      7  C   UNL     1     -11.188  11.792  66.713  0.00  0.00    +0.239 C 
ATOM      8  O   UNL     1     -11.977  13.058  66.781  0.00  0.00    -0.215 OA
ATOM      9  C   UNL     1      -9.647  12.485  66.422  0.00  0.00    +0.269 C 
ATOM     10  O   UNL     1      -8.900  11.267  66.927  0.00  0.00    -0.330 OA
BRANCH   4  11
ATOM     11  N   UNL     1     -10.508   9.970  69.864  0.00  0.00    -0.209 NA
BRANCH  11  12
ATOM     12  C   UNL     1     -10.374   8.474  70.215  0.00  0.00    +0.127 C 
ATOM     13  C   UNL     1     -11.890   8.284  71.000  0.00  0.00    +0.205 C 
ATOM     14  O   UNL     1     -11.828   9.556  71.806  0.00  0.00    -0.218 OA
ATOM     15  C   UNL     1     -11.398   7.361  72.330  0.00  0.00    +0.218 C 
ATOM     16  O   UNL     1     -12.438   6.306  72.038  0.00  0.00    -0.217 OA
ATOM     17  C   UNL     1     -10.181   6.364  71.638  0.00  0.00    +0.205 C 
ATOM     18  O   UNL     1     -10.446   6.628  70.179  0.00  0.00    -0.216 OA
ATOM     19  C   UNL     1      -9.085   7.540  71.913  0.00  0.00    +0.018 C 
ATOM     20  C   UNL     1      -9.580   8.755  71.592  0.00  0.00    -0.010 C 
BRANCH  19  21
ATOM     21  C   UNL     1      -8.703   7.378  73.359  0.00  0.00    +0.207 C 
ATOM     22  O   UNL     1      -8.214   8.519  73.990  0.00  0.00    -0.215 OA
ENDBRANCH  19  21
ENDBRANCH  11  12
ENDBRANCH   4  11
ENDBRANCH   1   9
BRANCH   1  23
ATOM     23  C   UNL     1      -8.827  14.572  67.011  0.00  0.00    +0.180 C 
ATOM     24  C   UNL     1      -7.827  14.706  68.388  0.00  0.00    +0.180 C 
ATOM     25  O   UNL     1      -7.170  15.979  68.063  0.00  0.00    -0.326 OA
ATOM     26  C   UNL     1      -7.803  16.669  66.897  0.00  0.00    +0.270 C 
ATOM     27  C   UNL     1      -9.303  17.091  67.645  0.00  0.00    +0.240 C 
ATOM     28  O   UNL     1      -8.950  16.742  69.059  0.00  0.00    -0.215 OA
ATOM     29  C   UNL     1     -10.087  15.615  67.458  0.00  0.00    +0.217 C 
ATOM     30  O   UNL     1     -10.317  15.953  65.996  0.00  0.00    -0.218 OA
BRANCH  24  31
ATOM     31  C   UNL     1      -6.633  13.826  67.625  0.00  0.00    +0.214 C 
ATOM     32  O   UNL     1      -5.573  14.280  68.422  0.00  0.00    -0.218 OA
ENDBRANCH  24  31
BRANCH  26  33
ATOM     33  O   UNL     1      -7.257  18.091  67.176  0.00  0.00    -0.326 OA
BRANCH  33  34
ATOM     34  C   UNL     1      -5.821  17.742  67.507  0.00  0.00    +0.180 C 
ATOM     35  C   UNL     1      -5.570  18.894  68.774  0.00  0.00    +0.180 C 
ATOM     36  O   UNL     1      -5.469  20.143  67.968  0.00  0.00    -0.324 OA
ATOM     37  C   UNL     1      -6.670  20.052  67.022  0.00  0.00    +0.302 C 
ATOM     38  O   UNL     1      -6.813  21.562  66.875  0.00  0.00    -0.187 OA
ATOM     39  C   UNL     1      -5.531  19.895  65.771  0.00  0.00    +0.243 C 
ATOM     40  O   UNL     1      -6.384  19.252  64.706  0.00  0.00    -0.215 OA
ATOM     41  C   UNL     1      -4.905  18.388  66.238  0.00  0.00    +0.217 C 
ATOM     42  O   UNL     1      -3.801  19.137  66.996  0.00  0.00    -0.218 OA
BRANCH  35  43
ATOM     43  C   UNL     1      -4.017  18.386  68.903  0.00  0.00    +0.214 C 
ATOM     44  O   UNL     1      -3.666  18.308  70.208  0.00  0.00    -0.218 OA
ENDBRANCH  35  43
ENDBRANCH  33  34
ENDBRANCH  26  33
ENDBRANCH   1  23
TORSDOF 9
ENDMDL
MODEL 4
REMARK VINA RESULT:      -7.2      2.848     10.359
REMARK  Name = 
REMARK  9 active torsions:
REMARK  status: ('A' for Active; 'I' for Inactive)
REMARK    1  A    between atoms: C_4  and  O_5
REMARK    2  A    between atoms: O_5  and  C_6
REMARK    3  A    between atoms: C_11  and  O_12
REMARK    4  A    between atoms: O_12  and  C_13
REMARK    5  A    between atoms: C_21  and  C_22
REMARK    6  A    between atoms: C_25  and  C_26
REMARK    7  A    between atoms: C_32  and  N_33
REMARK    8  A    between atoms: N_33  and  C_34
REMARK    9  A    between atoms: C_36  and  C_37
REMARK                            x       y       z     vdW  Elec       q    Type
REMARK                         _______ _______ _______ _____ _____    ______ ____
ROOT
ATOM      1  O   UNL     1     -10.379  13.110  66.147  0.00  0.00    -0.326 OA
ENDROOT
BRANCH   1   9
ATOM      2  C   UNL     1      -9.941  15.464  68.899  0.00  0.00    +0.034 C 
ATOM      3  C   UNL     1      -9.954  14.924  67.365  0.00  0.00    +0.136 C 
ATOM      4  C   UNL     1     -10.538  16.355  66.641  0.00  0.00    +0.133 C 
ATOM      5  C   UNL     1     -10.423  15.354  65.255  0.00  0.00    +0.205 C 
ATOM      6  O   UNL     1     -10.862  16.414  64.304  0.00  0.00    -0.219 OA
ATOM      7  C   UNL     1     -12.015  14.816  65.365  0.00  0.00    +0.239 C 
ATOM      8  O   UNL     1     -11.865  13.981  64.136  0.00  0.00    -0.215 OA
ATOM      9  C   UNL     1     -11.781  13.577  66.526  0.00  0.00    +0.269 C 
ATOM     10  O   UNL     1     -11.387  14.548  67.621  0.00  0.00    -0.330 OA
BRANCH   4  11
ATOM     11  N   UNL     1      -9.258  17.111  66.283  0.00  0.00    -0.209 NA
BRANCH  11  12
ATOM     12  C   UNL     1      -8.880  18.133  67.375  0.00  0.00    +0.127 C 
ATOM     13  C   UNL     1      -8.250  19.353  66.342  0.00  0.00    +0.205 C 
ATOM     14  O   UNL     1      -7.455  18.431  65.452  0.00  0.00    -0.218 OA
ATOM     15  C   UNL     1      -6.867  19.772  67.222  0.00  0.00    +0.218 C 
ATOM     16  O   UNL     1      -7.252  21.232  67.212  0.00  0.00    -0.217 OA
ATOM     17  C   UNL     1      -7.423  19.629  68.842  0.00  0.00    +0.205 C 
ATOM     18  O   UNL     1      -8.904  19.527  68.588  0.00  0.00    -0.216 OA
ATOM     19  C   UNL     1      -7.050  18.041  68.811  0.00  0.00    +0.018 C 
ATOM     20  C   UNL     1      -7.432  17.472  67.648  0.00  0.00    -0.010 C 
BRANCH  19  21
ATOM     21  C   UNL     1      -5.571  17.989  69.081  0.00  0.00    +0.207 C 
ATOM     22  O   UNL     1      -5.144  18.617  70.249  0.00  0.00    -0.215 OA
ENDBRANCH  19  21
ENDBRANCH  11  12
ENDBRANCH   4  11
ENDBRANCH   1   9
BRANCH   1  23
ATOM     23  C   UNL     1     -10.642  11.593  66.147  0.00  0.00    +0.180 C 
ATOM     24  C   UNL     1      -9.410  11.424  67.317  0.00  0.00    +0.180 C 
ATOM     25  O   UNL     1      -9.344   9.958  67.361  0.00  0.00    -0.326 OA
ATOM     26  C   UNL     1     -10.134   9.315  66.265  0.00  0.00    +0.270 C 
ATOM     27  C   UNL     1      -9.140   9.793  64.933  0.00  0.00    +0.240 C 
ATOM     28  O   UNL     1      -7.974  10.327  65.709  0.00  0.00    -0.215 OA
ATOM     29  C   UNL     1      -9.741  11.350  64.732  0.00  0.00    +0.217 C 
ATOM     30  O   UNL     1     -10.968  10.760  64.060  0.00  0.00    -0.218 OA
BRANCH  24  31
ATOM     31  C   UNL     1     -10.545  11.469  68.540  0.00  0.00    +0.214 C 
ATOM     32  O   UNL     1      -9.874  10.593  69.405  0.00  0.00    -0.218 OA
ENDBRANCH  24  31
BRANCH  26  33
ATOM     33  O   UNL     1      -9.441   7.931  66.293  0.00  0.00    -0.326 OA
BRANCH  33  34
ATOM     34  C   UNL     1     -10.522   7.130  66.987  0.00  0.00    +0.180 C 
ATOM     35  C   UNL     1      -9.772   6.990  68.541  0.00  0.00    +0.180 C 
ATOM     36  O   UNL     1      -8.716   5.989  68.226  0.00  0.00    -0.324 OA
ATOM     37  C   UNL     1      -8.088   6.527  66.937  0.00  0.00    +0.302 C 
ATOM     38  O   UNL     1      -6.728   5.893  67.200  0.00  0.00    -0.187 OA
ATOM     39  C   UNL     1      -8.740   5.155  66.177  0.00  0.00    +0.243 C 
ATOM     40  O   UNL     1      -8.755   5.622  64.742  0.00  0.00    -0.215 OA
ATOM     41  C   UNL     1     -10.378   5.561  66.369  0.00  0.00    +0.217 C 
ATOM     42  O   UNL     1     -10.385   4.715  67.649  0.00  0.00    -0.218 OA
BRANCH  35  43
ATOM     43  C   UNL     1     -11.036   6.080  69.049  0.00  0.00    +0.214 C 
ATOM     44  O   UNL     1     -11.422   6.478  70.285  0.00  0.00    -0.218 OA
ENDBRANCH  35  43
ENDBRANCH  33  34
ENDBRANCH  26  33
ENDBRANCH   1  23
TORSDOF 9
ENDMDL
MODEL 5
REMARK VINA RESULT:      -6.8      3.102     10.296
REMARK  Name = 
REMARK  9 active torsions:
REMARK  status: ('A' for Active; 'I' for Inactive)
REMARK    1  A    between atoms: C_4  and  O_5
REMARK    2  A    between atoms: O_5  and  C_6
REMARK    3  A    between atoms: C_11  and  O_12
REMARK    4  A    between atoms: O_12  and  C_13
REMARK    5  A    between atoms: C_21  and  C_22
REMARK    6  A    between atoms: C_25  and  C_26
REMARK    7  A    between atoms: C_32  and  N_33
REMARK    8  A    between atoms: N_33  and  C_34
REMARK    9  A    between atoms: C_36  and  C_37
REMARK                            x       y       z     vdW  Elec       q    Type
REMARK                         _______ _______ _______ _____ _____    ______ ____
ROOT
ATOM      1  O   UNL     1      -9.898  13.014  66.175  0.00  0.00    -0.326 OA
ENDROOT
BRANCH   1   9
ATOM      2  C   UNL     1      -9.023  15.088  69.046  0.00  0.00    +0.034 C 
ATOM      3  C   UNL     1      -9.273  14.701  67.486  0.00  0.00    +0.136 C 
ATOM      4  C   UNL     1      -9.942  16.194  67.001  0.00  0.00    +0.133 C 
ATOM      5  C   UNL     1     -10.049  15.334  65.523  0.00  0.00    +0.205 C 
ATOM      6  O   UNL     1     -10.613  16.481  64.756  0.00  0.00    -0.219 OA
ATOM      7  C   UNL     1     -11.612  14.783  65.819  0.00  0.00    +0.239 C 
ATOM      8  O   UNL     1     -11.658  14.073  64.506  0.00  0.00    -0.215 OA
ATOM      9  C   UNL     1     -11.220  13.436  66.805  0.00  0.00    +0.269 C 
ATOM     10  O   UNL     1     -10.656  14.297  67.917  0.00  0.00    -0.330 OA
BRANCH   4  11
ATOM     11  N   UNL     1      -8.722  16.986  66.529  0.00  0.00    -0.209 NA
BRANCH  11  12
ATOM     12  C   UNL     1      -8.328  18.077  67.545  0.00  0.00    +0.127 C 
ATOM     13  C   UNL     1      -7.969  19.323  66.418  0.00  0.00    +0.205 C 
ATOM     14  O   UNL     1      -7.193  18.464  65.453  0.00  0.00    -0.218 OA
ATOM     15  C   UNL     1      -6.544  19.918  67.109  0.00  0.00    +0.218 C 
ATOM     16  O   UNL     1      -7.086  21.327  67.120  0.00  0.00    -0.217 OA
ATOM     17  C   UNL     1      -6.876  19.769  68.789  0.00  0.00    +0.205 C 
ATOM     18  O   UNL     1      -8.357  19.500  68.725  0.00  0.00    -0.216 OA
ATOM     19  C   UNL     1      -6.337  18.230  68.741  0.00  0.00    +0.018 C 
ATOM     20  C   UNL     1      -6.793  17.585  67.646  0.00  0.00    -0.010 C 
BRANCH  19  21
ATOM     21  C   UNL     1      -4.839  18.345  68.824  0.00  0.00    +0.207 C 
ATOM     22  O   UNL     1      -4.116  17.455  68.034  0.00  0.00    -0.215 OA
ENDBRANCH  19  21
ENDBRANCH  11  12
ENDBRANCH   4  11
ENDBRANCH   1   9
BRANCH   1  23
ATOM     23  C   UNL     1     -10.129  11.491  66.173  0.00  0.00    +0.180 C 
ATOM     24  C   UNL     1      -8.568  11.298  66.838  0.00  0.00    +0.180 C 
ATOM     25  O   UNL     1      -8.476   9.834  66.767  0.00  0.00    -0.326 OA
ATOM     26  C   UNL     1      -9.587   9.227  65.970  0.00  0.00    +0.270 C 
ATOM     27  C   UNL     1      -9.116   9.806  64.411  0.00  0.00    +0.240 C 
ATOM     28  O   UNL     1      -7.760  10.333  64.772  0.00  0.00    -0.215 OA
ATOM     29  C   UNL     1      -9.766  11.353  64.523  0.00  0.00    +0.217 C 
ATOM     30  O   UNL     1     -11.143  10.762  64.276  0.00  0.00    -0.218 OA
BRANCH  24  31
ATOM     31  C   UNL     1      -9.214  11.242  68.375  0.00  0.00    +0.214 C 
ATOM     32  O   UNL     1      -8.001  11.030  69.045  0.00  0.00    -0.218 OA
ENDBRANCH  24  31
BRANCH  26  33
ATOM     33  O   UNL     1      -8.913   7.865  65.675  0.00  0.00    -0.326 OA
BRANCH  33  34
ATOM     34  C   UNL     1      -8.141   7.688  66.967  0.00  0.00    +0.180 C 
ATOM     35  C   UNL     1      -6.803   6.790  66.338  0.00  0.00    +0.180 C 
ATOM     36  O   UNL     1      -7.460   5.472  66.117  0.00  0.00    -0.324 OA
ATOM     37  C   UNL     1      -8.755   5.839  65.389  0.00  0.00    +0.302 C 
ATOM     38  O   UNL     1      -8.859   4.502  64.663  0.00  0.00    -0.187 OA
ATOM     39  C   UNL     1      -9.562   5.305  66.785  0.00  0.00    +0.243 C 
ATOM     40  O   UNL     1     -10.883   6.015  66.623  0.00  0.00    -0.215 OA
ATOM     41  C   UNL     1      -8.996   6.513  67.835  0.00  0.00    +0.217 C 
ATOM     42  O   UNL     1      -7.874   5.553  68.254  0.00  0.00    -0.218 OA
BRANCH  35  43
ATOM     43  C   UNL     1      -6.191   6.675  67.854  0.00  0.00    +0.214 C 
ATOM     44  O   UNL     1      -4.842   6.788  67.816  0.00  0.00    -0.218 OA
ENDBRANCH  35  43
ENDBRANCH  33  34
ENDBRANCH  26  33
ENDBRANCH   1  23
TORSDOF 9
ENDMDL
MODEL 6
REMARK VINA RESULT:      -6.7      4.379      7.382
REMARK  Name = 
REMARK  9 active torsions:
REMARK  status: ('A' for Active; 'I' for Inactive)
REMARK    1  A    between atoms: C_4  and  O_5
REMARK    2  A    between atoms: O_5  and  C_6
REMARK    3  A    between atoms: C_11  and  O_12
REMARK    4  A    between atoms: O_12  and  C_13
REMARK    5  A    between atoms: C_21  and  C_22
REMARK    6  A    between atoms: C_25  and  C_26
REMARK    7  A    between atoms: C_32  and  N_33
REMARK    8  A    between atoms: N_33  and  C_34
REMARK    9  A    between atoms: C_36  and  C_37
REMARK                            x       y       z     vdW  Elec       q    Type
REMARK                         _______ _______ _______ _____ _____    ______ ____
ROOT
ATOM      1  O   UNL     1      -9.079   8.182  70.308  0.00  0.00    -0.326 OA
ENDROOT
BRANCH   1   9
ATOM      2  C   UNL     1     -10.579   7.124  73.461  0.00  0.00    +0.034 C 
ATOM      3  C   UNL     1      -9.798   6.984  72.041  0.00  0.00    +0.136 C 
ATOM      4  C   UNL     1      -8.674   5.797  72.533  0.00  0.00    +0.133 C 
ATOM      5  C   UNL     1      -8.159   6.033  70.916  0.00  0.00    +0.205 C 
ATOM      6  O   UNL     1      -7.088   4.999  70.978  0.00  0.00    -0.219 OA
ATOM      7  C   UNL     1      -7.025   7.210  71.324  0.00  0.00    +0.239 C 
ATOM      8  O   UNL     1      -6.598   7.355  69.900  0.00  0.00    -0.215 OA
ATOM      9  C   UNL     1      -8.079   8.560  71.396  0.00  0.00    +0.269 C 
ATOM     10  O   UNL     1      -8.847   8.014  72.583  0.00  0.00    -0.330 OA
BRANCH   4  11
ATOM     11  N   UNL     1      -9.379   4.485  72.187  0.00  0.00    -0.209 NA
BRANCH  11  12
ATOM     12  C   UNL     1      -8.935   3.341  73.121  0.00  0.00    +0.127 C 
ATOM     13  C   UNL     1     -10.365   2.394  73.021  0.00  0.00    +0.205 C 
ATOM     14  O   UNL     1     -11.338   3.536  73.159  0.00  0.00    -0.218 OA
ATOM     15  C   UNL     1     -10.540   1.987  74.655  0.00  0.00    +0.218 C 
ATOM     16  O   UNL     1     -10.626   0.516  74.323  0.00  0.00    -0.217 OA
ATOM     17  C   UNL     1      -8.905   1.788  75.146  0.00  0.00    +0.205 C 
ATOM     18  O   UNL     1      -8.242   1.766  73.794  0.00  0.00    -0.216 OA
ATOM     19  C   UNL     1      -8.818   3.390  75.445  0.00  0.00    +0.018 C 
ATOM     20  C   UNL     1      -9.410   4.103  74.463  0.00  0.00    -0.010 C 
BRANCH  19  21
ATOM     21  C   UNL     1      -9.437   3.560  76.805  0.00  0.00    +0.207 C 
ATOM     22  O   UNL     1     -10.353   4.602  76.930  0.00  0.00    -0.215 OA
ENDBRANCH  19  21
ENDBRANCH  11  12
ENDBRANCH   4  11
ENDBRANCH   1   9
BRANCH   1  23
ATOM     23  C   UNL     1      -9.278   9.580  69.694  0.00  0.00    +0.180 C 
ATOM     24  C   UNL     1     -10.929   9.202  69.478  0.00  0.00    +0.180 C 
ATOM     25  O   UNL     1     -11.328  10.383  68.703  0.00  0.00    -0.326 OA
ATOM     26  C   UNL     1     -10.157  11.199  68.257  0.00  0.00    +0.270 C 
ATOM     27  C   UNL     1      -9.500  10.083  67.112  0.00  0.00    +0.240 C 
ATOM     28  O   UNL     1     -10.638   9.108  67.078  0.00  0.00    -0.215 OA
ATOM     29  C   UNL     1      -8.665   9.098  68.189  0.00  0.00    +0.217 C 
ATOM     30  O   UNL     1      -7.592  10.167  68.291  0.00  0.00    -0.218 OA
BRANCH  24  31
ATOM     31  C   UNL     1     -11.304   9.949  70.922  0.00  0.00    +0.214 C 
ATOM     32  O   UNL     1     -12.494   9.245  71.156  0.00  0.00    -0.218 OA
ENDBRANCH  24  31
BRANCH  26  33
ATOM     33  O   UNL     1     -10.861  11.968  67.113  0.00  0.00    -0.326 OA
BRANCH  33  34
ATOM     34  C   UNL     1     -10.423  13.377  67.457  0.00  0.00    +0.180 C 
ATOM     35  C   UNL     1     -11.989  14.081  67.673  0.00  0.00    +0.180 C 
ATOM     36  O   UNL     1     -12.428  14.169  66.254  0.00  0.00    -0.324 OA
ATOM     37  C   UNL     1     -12.104  12.780  65.695  0.00  0.00    +0.302 C 
ATOM     38  O   UNL     1     -13.199  12.826  64.636  0.00  0.00    -0.187 OA
ATOM     39  C   UNL     1     -10.942  13.560  64.732  0.00  0.00    +0.243 C 
ATOM     40  O   UNL     1     -10.039  12.398  64.402  0.00  0.00    -0.215 OA
ATOM     41  C   UNL     1      -9.916  14.054  65.991  0.00  0.00    +0.217 C 
ATOM     42  O   UNL     1     -10.651  15.401  65.995  0.00  0.00    -0.218 OA
BRANCH  35  43
ATOM     43  C   UNL     1     -11.278  15.531  67.954  0.00  0.00    +0.214 C 
ATOM     44  O   UNL     1     -11.963  16.201  68.911  0.00  0.00    -0.218 OA
ENDBRANCH  35  43
ENDBRANCH  33  34
ENDBRANCH  26  33
ENDBRANCH   1  23
TORSDOF 9
ENDMDL
MODEL 7
REMARK VINA RESULT:      -6.7      4.391      7.655
REMARK  Name = 
REMARK  9 active torsions:
REMARK  status: ('A' for Active; 'I' for Inactive)
REMARK    1  A    between atoms: C_4  and  O_5
REMARK    2  A    between atoms: O_5  and  C_6
REMARK    3  A    between atoms: C_11  and  O_12
REMARK    4  A    between atoms: O_12  and  C_13
REMARK    5  A    between atoms: C_21  and  C_22
REMARK    6  A    between atoms: C_25  and  C_26
REMARK    7  A    between atoms: C_32  and  N_33
REMARK    8  A    between atoms: N_33  and  C_34
REMARK    9  A    between atoms: C_36  and  C_37
REMARK                            x       y       z     vdW  Elec       q    Type
REMARK                         _______ _______ _______ _____ _____    ______ ____
ROOT
ATOM      1  O   UNL     1      -8.997   8.193  70.408  0.00  0.00    -0.326 OA
ENDROOT
BRANCH   1   9
ATOM      2  C   UNL     1     -10.592   6.942  73.441  0.00  0.00    +0.034 C 
ATOM      3  C   UNL     1      -9.723   6.899  72.068  0.00  0.00    +0.136 C 
ATOM      4  C   UNL     1      -8.542   5.785  72.598  0.00  0.00    +0.133 C 
ATOM      5  C   UNL     1      -7.955   6.102  71.020  0.00  0.00    +0.205 C 
ATOM      6  O   UNL     1      -6.814   5.149  71.122  0.00  0.00    -0.219 OA
ATOM      7  C   UNL     1      -6.937   7.348  71.520  0.00  0.00    +0.239 C 
ATOM      8  O   UNL     1      -6.442   7.562  70.128  0.00  0.00    -0.215 OA
ATOM      9  C   UNL     1      -8.093   8.614  71.561  0.00  0.00    +0.269 C 
ATOM     10  O   UNL     1      -8.884   7.981  72.688  0.00  0.00    -0.330 OA
BRANCH   4  11
ATOM     11  N   UNL     1      -9.126   4.434  72.181  0.00  0.00    -0.209 NA
BRANCH  11  12
ATOM     12  C   UNL     1      -9.292   3.492  73.390  0.00  0.00    +0.127 C 
ATOM     13  C   UNL     1      -8.212   2.260  72.873  0.00  0.00    +0.205 C 
ATOM     14  O   UNL     1      -8.678   2.214  71.440  0.00  0.00    -0.218 OA
ATOM     15  C   UNL     1      -9.138   0.899  73.267  0.00  0.00    +0.218 C 
ATOM     16  O   UNL     1      -8.002   0.304  74.063  0.00  0.00    -0.217 OA
ATOM     17  C   UNL     1      -9.903   1.402  74.722  0.00  0.00    +0.205 C 
ATOM     18  O   UNL     1      -9.090   2.635  75.015  0.00  0.00    -0.216 OA
ATOM     19  C   UNL     1     -11.093   2.087  73.839  0.00  0.00    +0.018 C 
ATOM     20  C   UNL     1     -10.591   2.754  72.778  0.00  0.00    -0.010 C 
BRANCH  19  21
ATOM     21  C   UNL     1     -12.013   0.950  73.489  0.00  0.00    +0.207 C 
ATOM     22  O   UNL     1     -13.375   1.241  73.517  0.00  0.00    -0.215 OA
ENDBRANCH  19  21
ENDBRANCH  11  12
ENDBRANCH   4  11
ENDBRANCH   1   9
BRANCH   1  23
ATOM     23  C   UNL     1      -9.229   9.584  69.788  0.00  0.00    +0.180 C 
ATOM     24  C   UNL     1     -10.862   9.154  69.543  0.00  0.00    +0.180 C 
ATOM     25  O   UNL     1     -11.285  10.322  68.759  0.00  0.00    -0.326 OA
ATOM     26  C   UNL     1     -10.131  11.174  68.333  0.00  0.00    +0.270 C 
ATOM     27  C   UNL     1      -9.419  10.078  67.202  0.00  0.00    +0.240 C 
ATOM     28  O   UNL     1     -10.525   9.068  67.148  0.00  0.00    -0.215 OA
ATOM     29  C   UNL     1      -8.574   9.120  68.295  0.00  0.00    +0.217 C 
ATOM     30  O   UNL     1      -7.536  10.222  68.415  0.00  0.00    -0.218 OA
BRANCH  24  31
ATOM     31  C   UNL     1     -11.287   9.890  70.978  0.00  0.00    +0.214 C 
ATOM     32  O   UNL     1     -12.420   9.102  71.228  0.00  0.00    -0.218 OA
ENDBRANCH  24  31
BRANCH  26  33
ATOM     33  O   UNL     1     -10.838  11.920  67.175  0.00  0.00    -0.326 OA
BRANCH  33  34
ATOM     34  C   UNL     1     -10.406  13.336  67.495  0.00  0.00    +0.180 C 
ATOM     35  C   UNL     1     -11.975  14.029  67.727  0.00  0.00    +0.180 C 
ATOM     36  O   UNL     1     -12.436  14.096  66.313  0.00  0.00    -0.324 OA
ATOM     37  C   UNL     1     -12.109  12.703  65.766  0.00  0.00    +0.302 C 
ATOM     38  O   UNL     1     -13.220  12.727  64.723  0.00  0.00    -0.187 OA
ATOM     39  C   UNL     1     -10.968  13.480  64.776  0.00  0.00    +0.243 C 
ATOM     40  O   UNL     1     -10.060  12.321  64.448  0.00  0.00    -0.215 OA
ATOM     41  C   UNL     1      -9.927  13.998  66.014  0.00  0.00    +0.217 C 
ATOM     42  O   UNL     1     -10.674  15.339  66.011  0.00  0.00    -0.218 OA
BRANCH  35  43
ATOM     43  C   UNL     1     -11.272  15.489  67.978  0.00  0.00    +0.214 C 
ATOM     44  O   UNL     1     -11.961  16.174  68.922  0.00  0.00    -0.218 OA
ENDBRANCH  35  43
ENDBRANCH  33  34
ENDBRANCH  26  33
ENDBRANCH   1  23
TORSDOF 9
ENDMDL
MODEL 8
REMARK VINA RESULT:      -6.7      2.787     10.972
REMARK  Name = 
REMARK  9 active torsions:
REMARK  status: ('A' for Active; 'I' for Inactive)
REMARK    1  A    between atoms: C_4  and  O_5
REMARK    2  A    between atoms: O_5  and  C_6
REMARK    3  A    between atoms: C_11  and  O_12
REMARK    4  A    between atoms: O_12  and  C_13
REMARK    5  A    between atoms: C_21  and  C_22
REMARK    6  A    between atoms: C_25  and  C_26
REMARK    7  A    between atoms: C_32  and  N_33
REMARK    8  A    between atoms: N_33  and  C_34
REMARK    9  A    between atoms: C_36  and  C_37
REMARK                            x       y       z     vdW  Elec       q    Type
REMARK                         _______ _______ _______ _____ _____    ______ ____
ROOT
ATOM      1  O   UNL     1     -10.103  10.517  68.346  0.00  0.00    -0.326 OA
ENDROOT
BRANCH   1   9
ATOM      2  C   UNL     1     -11.963  13.382  69.626  0.00  0.00    +0.034 C 
ATOM      3  C   UNL     1     -10.830  12.575  68.784  0.00  0.00    +0.136 C 
ATOM      4  C   UNL     1     -10.835  13.580  67.404  0.00  0.00    +0.133 C 
ATOM      5  C   UNL     1      -9.681  12.413  66.910  0.00  0.00    +0.205 C 
ATOM      6  O   UNL     1      -9.392  13.073  65.606  0.00  0.00    -0.219 OA
ATOM      7  C   UNL     1     -10.819  11.436  66.146  0.00  0.00    +0.239 C 
ATOM      8  O   UNL     1      -9.766  10.466  65.720  0.00  0.00    -0.215 OA
ATOM      9  C   UNL     1     -11.385  10.586  67.523  0.00  0.00    +0.269 C 
ATOM     10  O   UNL     1     -11.976  11.827  68.161  0.00  0.00    -0.330 OA
BRANCH   4  11
ATOM     11  N   UNL     1      -9.753  14.613  67.722  0.00  0.00    -0.209 NA
BRANCH  11  12
ATOM     12  C   UNL     1      -9.951  15.908  66.908  0.00  0.00    +0.127 C 
ATOM     13  C   UNL     1      -8.304  16.180  66.505  0.00  0.00    +0.205 C 
ATOM     14  O   UNL     1      -7.740  15.880  67.870  0.00  0.00    -0.218 OA
ATOM     15  C   UNL     1      -8.224  17.847  66.787  0.00  0.00    +0.218 C 
ATOM     16  O   UNL     1      -7.663  18.097  65.407  0.00  0.00    -0.217 OA
ATOM     17  C   UNL     1      -9.774  18.370  66.258  0.00  0.00    +0.205 C 
ATOM     18  O   UNL     1     -10.224  17.123  65.543  0.00  0.00    -0.216 OA
ATOM     19  C   UNL     1     -10.370  18.040  67.741  0.00  0.00    +0.018 C 
ATOM     20  C   UNL     1      -9.899  16.864  68.207  0.00  0.00    -0.010 C 
BRANCH  19  21
ATOM     21  C   UNL     1     -10.008  19.238  68.575  0.00  0.00    +0.207 C 
ATOM     22  O   UNL     1     -10.026  20.466  67.917  0.00  0.00    -0.215 OA
ENDBRANCH  19  21
ENDBRANCH  11  12
ENDBRANCH   4  11
ENDBRANCH   1   9
BRANCH   1  23
ATOM     23  C   UNL     1     -10.197   9.043  68.782  0.00  0.00    +0.180 C 
ATOM     24  C   UNL     1      -9.810   9.535  70.370  0.00  0.00    +0.180 C 
ATOM     25  O   UNL     1      -9.660   8.209  70.983  0.00  0.00    -0.326 OA
ATOM     26  C   UNL     1      -9.655   7.107  69.972  0.00  0.00    +0.270 C 
ATOM     27  C   UNL     1      -8.134   7.459  69.230  0.00  0.00    +0.240 C 
ATOM     28  O   UNL     1      -7.640   8.476  70.215  0.00  0.00    -0.215 OA
ATOM     29  C   UNL     1      -8.648   8.683  68.198  0.00  0.00    +0.217 C 
ATOM     30  O   UNL     1      -9.244   7.625  67.287  0.00  0.00    -0.218 OA
BRANCH  24  31
ATOM     31  C   UNL     1     -11.431   9.598  70.762  0.00  0.00    +0.214 C 
ATOM     32  O   UNL     1     -11.291   9.124  72.074  0.00  0.00    -0.218 OA
ENDBRANCH  24  31
BRANCH  26  33
ATOM     33  O   UNL     1      -8.984   6.022  70.848  0.00  0.00    -0.326 OA
BRANCH  33  34
ATOM     34  C   UNL     1     -10.014   5.928  71.955  0.00  0.00    +0.180 C 
ATOM     35  C   UNL     1      -8.928   5.832  73.299  0.00  0.00    +0.180 C 
ATOM     36  O   UNL     1      -8.438   4.436  73.134  0.00  0.00    -0.324 OA
ATOM     37  C   UNL     1      -8.082   4.359  71.646  0.00  0.00    +0.302 C 
ATOM     38  O   UNL     1      -7.018   3.285  71.841  0.00  0.00    -0.187 OA
ATOM     39  C   UNL     1      -9.369   3.260  71.508  0.00  0.00    +0.243 C 
ATOM     40  O   UNL     1      -9.652   3.359  70.029  0.00  0.00    -0.215 OA
ATOM     41  C   UNL     1     -10.622   4.351  71.862  0.00  0.00    +0.217 C 
ATOM     42  O   UNL     1     -10.538   3.894  73.324  0.00  0.00    -0.218 OA
BRANCH  35  43
ATOM     43  C   UNL     1     -10.215   5.679  74.303  0.00  0.00    +0.214 C 
ATOM     44  O   UNL     1      -9.880   6.096  75.547  0.00  0.00    -0.218 OA
ENDBRANCH  35  43
ENDBRANCH  33  34
ENDBRANCH  26  33
ENDBRANCH   1  23
TORSDOF 9
ENDMDL
MODEL 9
REMARK VINA RESULT:      -6.6      2.629     10.334
REMARK  Name = 
REMARK  9 active torsions:
REMARK  status: ('A' for Active; 'I' for Inactive)
REMARK    1  A    between atoms: C_4  and  O_5
REMARK    2  A    between atoms: O_5  and  C_6
REMARK    3  A    between atoms: C_11  and  O_12
REMARK    4  A    between atoms: O_12  and  C_13
REMARK    5  A    between atoms: C_21  and  C_22
REMARK    6  A    between atoms: C_25  and  C_26
REMARK    7  A    between atoms: C_32  and  N_33
REMARK    8  A    between atoms: N_33  and  C_34
REMARK    9  A    between atoms: C_36  and  C_37
REMARK                            x       y       z     vdW  Elec       q    Type
REMARK                         _______ _______ _______ _____ _____    ______ ____
ROOT
ATOM      1  O   UNL     1      -9.755  14.754  67.991  0.00  0.00    -0.326 OA
ENDROOT
BRANCH   1   9
ATOM      2  C   UNL     1      -6.489  16.298  68.497  0.00  0.00    +0.034 C 
ATOM      3  C   UNL     1      -8.025  16.155  67.983  0.00  0.00    +0.136 C 
ATOM      4  C   UNL     1      -8.489  17.777  68.247  0.00  0.00    +0.133 C 
ATOM      5  C   UNL     1      -9.973  17.139  67.675  0.00  0.00    +0.205 C 
ATOM      6  O   UNL     1     -10.694  18.441  67.732  0.00  0.00    -0.219 OA
ATOM      7  C   UNL     1     -10.547  16.772  69.215  0.00  0.00    +0.239 C 
ATOM      8  O   UNL     1     -11.832  16.252  68.661  0.00  0.00    -0.215 OA
ATOM      9  C   UNL     1      -9.752  15.268  69.427  0.00  0.00    +0.269 C 
ATOM     10  O   UNL     1      -8.370  15.891  69.422  0.00  0.00    -0.330 OA
BRANCH   4  11
ATOM     11  N   UNL     1      -8.185  18.449  66.908  0.00  0.00    -0.209 NA
BRANCH  11  12
ATOM     12  C   UNL     1      -7.438  19.784  67.102  0.00  0.00    +0.127 C 
ATOM     13  C   UNL     1      -6.546  19.765  65.634  0.00  0.00    +0.205 C 
ATOM     14  O   UNL     1      -6.132  18.317  65.703  0.00  0.00    -0.218 OA
ATOM     15  C   UNL     1      -5.041  20.271  66.221  0.00  0.00    +0.218 C 
ATOM     16  O   UNL     1      -4.966  21.378  65.196  0.00  0.00    -0.217 OA
ATOM     17  C   UNL     1      -5.496  21.408  67.427  0.00  0.00    +0.205 C 
ATOM     18  O   UNL     1      -6.953  21.567  67.079  0.00  0.00    -0.216 OA
ATOM     19  C   UNL     1      -5.624  20.188  68.503  0.00  0.00    +0.018 C 
ATOM     20  C   UNL     1      -6.242  19.119  67.958  0.00  0.00    -0.010 C 
BRANCH  19  21
ATOM     21  C   UNL     1      -4.215  19.933  68.963  0.00  0.00    +0.207 C 
ATOM     22  O   UNL     1      -3.877  18.599  69.177  0.00  0.00    -0.215 OA
ENDBRANCH  19  21
ENDBRANCH  11  12
ENDBRANCH   4  11
ENDBRANCH   1   9
BRANCH   1  23
ATOM     23  C   UNL     1      -9.881  13.250  68.293  0.00  0.00    +0.180 C 
ATOM     24  C   UNL     1      -8.788  12.947  67.017  0.00  0.00    +0.180 C 
ATOM     25  O   UNL     1      -8.882  11.481  66.986  0.00  0.00    -0.326 OA
ATOM     26  C   UNL     1      -9.995  10.960  67.839  0.00  0.00    +0.270 C 
ATOM     27  C   UNL     1     -11.321  11.537  66.891  0.00  0.00    +0.240 C 
ATOM     28  O   UNL     1     -10.553  11.971  65.679  0.00  0.00    -0.215 OA
ATOM     29  C   UNL     1     -11.352  13.119  67.460  0.00  0.00    +0.217 C 
ATOM     30  O   UNL     1     -12.019  12.621  68.729  0.00  0.00    -0.218 OA
BRANCH  24  31
ATOM     31  C   UNL     1      -7.517  12.903  68.096  0.00  0.00    +0.214 C 
ATOM     32  O   UNL     1      -6.498  13.030  67.140  0.00  0.00    -0.218 OA
ENDBRANCH  24  31
BRANCH  26  33
ATOM     33  O   UNL     1     -10.125   9.565  67.182  0.00  0.00    -0.326 OA
BRANCH  33  34
ATOM     34  C   UNL     1      -8.656   9.229  67.025  0.00  0.00    +0.180 C 
ATOM     35  C   UNL     1      -8.772   8.262  65.595  0.00  0.00    +0.180 C 
ATOM     36  O   UNL     1      -9.372   7.026  66.169  0.00  0.00    -0.324 OA
ATOM     37  C   UNL     1     -10.525   7.557  67.026  0.00  0.00    +0.302 C 
ATOM     38  O   UNL     1     -11.361   6.290  66.889  0.00  0.00    -0.187 OA
ATOM     39  C   UNL     1      -9.641   7.001  68.365  0.00  0.00    +0.243 C 
ATOM     40  O   UNL     1     -10.255   7.835  69.462  0.00  0.00    -0.215 OA
ATOM     41  C   UNL     1      -8.335   8.077  68.222  0.00  0.00    +0.217 C 
ATOM     42  O   UNL     1      -7.595   6.994  67.427  0.00  0.00    -0.218 OA
BRANCH  35  43
ATOM     43  C   UNL     1      -7.158   7.986  65.674  0.00  0.00    +0.214 C 
ATOM     44  O   UNL     1      -6.631   7.978  64.426  0.00  0.00    -0.218 OA
ENDBRANCH  35  43
ENDBRANCH  33  34
ENDBRANCH  26  33
ENDBRANCH   1  23
TORSDOF 9
ENDMDL
