MODEL 1
REMARK VINA RESULT:      -8.5      0.000      0.000
REMARK  Name = 
REMARK  11 active torsions:
REMARK  status: ('A' for Active; 'I' for Inactive)
REMARK    1  A    between atoms: O_2  and  C_3
REMARK    2  A    between atoms: C_6  and  C_7
REMARK    3  A    between atoms: C_7  and  N_8
REMARK    4  A    between atoms: N_8  and  C_25
REMARK    5  A    between atoms: C_9  and  C_11
REMARK    6  A    between atoms: C_11  and  C_13
REMARK    7  A    between atoms: C_13  and  C_14
REMARK    8  A    between atoms: C_18  and  C_19
REMARK    9  A    between atoms: C_25  and  C_27
REMARK   10  A    between atoms: C_29  and  C_30
REMARK   11  A    between atoms: C_39  and  C_40
REMARK                            x       y       z     vdW  Elec       q    Type
REMARK                         _______ _______ _______ _____ _____    ______ ____
ROOT
ATOM      1  N   UNL     1     -10.463  13.627  67.280  0.00  0.00    -0.269 N 
ATOM      2  C   UNL     1     -10.637  14.565  66.263  0.00  0.00    +0.244 C 
ATOM      3  O   UNL     1     -11.724  15.226  66.261  0.00  0.00    -0.273 OA
ENDROOT
BRANCH   2   4
ATOM      4  C   UNL     1      -9.482  15.720  66.094  0.00  0.00    +0.172 C 
ATOM      5  N   UNL     1     -10.332  16.569  65.029  0.00  0.00    -0.123 NA
BRANCH   4   6
ATOM      6  C   UNL     1     -10.140  16.593  67.364  0.00  0.00    +0.054 C 
BRANCH   6   7
ATOM      7  C   UNL     1      -9.125  17.628  67.620  0.00  0.00    -0.028 A 
ATOM      8  C   UNL     1      -8.035  17.340  68.415  0.00  0.00    -0.026 A 
ATOM      9  C   UNL     1      -7.699  15.932  68.791  0.00  0.00    +0.031 C 
ATOM     10  C   UNL     1      -7.038  18.302  68.471  0.00  0.00    +0.000 A 
ATOM     11  C   UNL     1      -7.287  19.554  67.945  0.00  0.00    +0.056 A 
ATOM     12  C   UNL     1      -8.568  19.946  67.648  0.00  0.00    +0.000 A 
ATOM     13  C   UNL     1      -9.519  18.945  67.513  0.00  0.00    -0.026 A 
ATOM     14  C   UNL     1     -10.824  19.345  66.941  0.00  0.00    +0.031 C 
BRANCH  11  15
ATOM     15  C   UNL     1      -6.278  20.619  67.929  0.00  0.00    +0.284 C 
ATOM     16  O   UNL     1      -6.611  21.648  67.266  0.00  0.00    -0.267 OA
ATOM     17  N   UNL     1      -5.649  20.899  69.186  0.00  0.00    -0.084 NA
ENDBRANCH  11  15
ENDBRANCH   6   7
ENDBRANCH   4   6
ENDBRANCH   2   4
BRANCH   1  18
ATOM     18  C   UNL     1      -9.504  12.431  66.806  0.00  0.00    +0.134 C 
ATOM     19  C   UNL     1      -8.467  12.673  68.099  0.00  0.00    +0.030 C 
BRANCH  18  20
ATOM     20  C   UNL     1     -10.342  11.282  67.631  0.00  0.00    +0.157 A 
ATOM     21  N   UNL     1     -10.324  10.016  67.169  0.00  0.00    -0.226 NA
ATOM     22  C   UNL     1     -10.724   9.282  68.239  0.00  0.00    +0.119 A 
ATOM     23  C   UNL     1     -10.433  10.013  69.387  0.00  0.00    +0.102 A 
ATOM     24  N   UNL     1      -9.825  11.118  68.879  0.00  0.00    -0.227 NA
BRANCH  23  25
ATOM     25  C   UNL     1     -11.063   9.896  70.714  0.00  0.00    +0.019 A 
ATOM     26  C   UNL     1     -11.104   8.688  71.402  0.00  0.00    +0.002 A 
ATOM     27  C   UNL     1     -12.289   8.166  71.906  0.00  0.00    +0.000 A 
ATOM     28  C   UNL     1     -13.370   9.020  72.091  0.00  0.00    +0.000 A 
ATOM     29  C   UNL     1     -13.161  10.353  71.832  0.00  0.00    +0.000 A 
ATOM     30  C   UNL     1     -12.119  10.753  71.002  0.00  0.00    +0.002 A 
ENDBRANCH  23  25
ENDBRANCH  18  20
ENDBRANCH   1  18
BRANCH   1  31
ATOM     31  C   UNL     1     -11.463  13.297  68.240  0.00  0.00    +0.121 C 
BRANCH  31  35
ATOM     32  C   UNL     1     -12.024  15.409  71.780  0.00  0.00    +0.145 A 
ATOM     33  C   UNL     1     -13.126  15.128  71.010  0.00  0.00    +0.113 A 
ATOM     34  C   UNL     1     -12.950  14.550  69.758  0.00  0.00    +0.007 A 
ATOM     35  C   UNL     1     -11.681  14.372  69.220  0.00  0.00    -0.002 A 
ATOM     36  C   UNL     1     -10.629  14.890  69.948  0.00  0.00    +0.001 A 
ATOM     37  C   UNL     1     -10.766  15.213  71.288  0.00  0.00    +0.037 A 
BRANCH  33  38
ATOM     38  C   UNL     1     -14.409  14.876  71.683  0.00  0.00    +0.391 C 
ATOM     39  O   UNL     1     -14.538  13.734  72.477  0.00  0.00    -0.240 OA
ATOM     40  O   UNL     1     -15.423  15.545  71.401  0.00  0.00    -0.240 OA
ENDBRANCH  33  38
BRANCH  32  42
ATOM     41  C   UNL     1     -12.167  16.414  73.344  0.00  0.00    +0.252 C 
ATOM     42  O   UNL     1     -12.218  16.263  72.864  0.00  0.00    -0.471 OA
ENDBRANCH  32  42
ENDBRANCH  31  35
ENDBRANCH   1  31
TORSDOF 11
ENDMDL
MODEL 2
REMARK VINA RESULT:      -7.7      3.749      7.955
REMARK  Name = 
REMARK  11 active torsions:
REMARK  status: ('A' for Active; 'I' for Inactive)
REMARK    1  A    between atoms: O_2  and  C_3
REMARK    2  A    between atoms: C_6  and  C_7
REMARK    3  A    between atoms: C_7  and  N_8
REMARK    4  A    between atoms: N_8  and  C_25
REMARK    5  A    between atoms: C_9  and  C_11
REMARK    6  A    between atoms: C_11  and  C_13
REMARK    7  A    between atoms: C_13  and  C_14
REMARK    8  A    between atoms: C_18  and  C_19
REMARK    9  A    between atoms: C_25  and  C_27
REMARK   10  A    between atoms: C_29  and  C_30
REMARK   11  A    between atoms: C_39  and  C_40
REMARK                            x       y       z     vdW  Elec       q    Type
REMARK                         _______ _______ _______ _____ _____    ______ ____
ROOT
ATOM      1  N   UNL     1     -10.644  12.476  65.567  0.00  0.00    -0.269 N 
ATOM      2  C   UNL     1     -10.490  11.926  66.839  0.00  0.00    +0.244 C 
ATOM      3  O   UNL     1      -9.597  12.434  67.589  0.00  0.00    -0.273 OA
ENDROOT
BRANCH   2   4
ATOM      4  C   UNL     1     -11.818  11.869  67.804  0.00  0.00    +0.172 C 
ATOM      5  N   UNL     1     -11.672  10.297  68.096  0.00  0.00    -0.123 NA
BRANCH   4   6
ATOM      6  C   UNL     1     -10.884  12.238  69.145  0.00  0.00    +0.054 C 
BRANCH   6   7
ATOM      7  C   UNL     1     -11.783  13.076  69.957  0.00  0.00    -0.028 A 
ATOM      8  C   UNL     1     -11.548  14.430  70.069  0.00  0.00    -0.026 A 
ATOM      9  C   UNL     1     -10.581  15.126  69.164  0.00  0.00    +0.031 C 
ATOM     10  C   UNL     1     -12.526  15.179  70.703  0.00  0.00    +0.000 A 
ATOM     11  C   UNL     1     -13.534  14.523  71.382  0.00  0.00    +0.056 A 
ATOM     12  C   UNL     1     -13.420  13.190  71.687  0.00  0.00    +0.000 A 
ATOM     13  C   UNL     1     -12.490  12.456  70.966  0.00  0.00    -0.026 A 
ATOM     14  C   UNL     1     -12.553  10.984  71.111  0.00  0.00    +0.031 C 
BRANCH  11  15
ATOM     15  C   UNL     1     -14.629  15.235  72.051  0.00  0.00    +0.284 C 
ATOM     16  O   UNL     1     -14.256  16.178  72.812  0.00  0.00    -0.267 OA
ATOM     17  N   UNL     1     -15.762  15.545  71.231  0.00  0.00    -0.084 NA
ENDBRANCH  11  15
ENDBRANCH   6   7
ENDBRANCH   4   6
ENDBRANCH   2   4
BRANCH   1  18
ATOM     18  C   UNL     1     -11.205  11.387  64.530  0.00  0.00    +0.134 C 
ATOM     19  C   UNL     1     -11.402  12.544  63.333  0.00  0.00    +0.030 C 
BRANCH  18  20
ATOM     20  C   UNL     1      -9.712  10.990  63.967  0.00  0.00    +0.157 A 
ATOM     21  N   UNL     1      -9.054   9.969  64.551  0.00  0.00    -0.226 NA
ATOM     22  C   UNL     1      -8.106   9.637  63.638  0.00  0.00    +0.119 A 
ATOM     23  C   UNL     1      -8.559  10.051  62.388  0.00  0.00    +0.102 A 
ATOM     24  N   UNL     1      -9.788  10.556  62.679  0.00  0.00    -0.227 NA
BRANCH  23  25
ATOM     25  C   UNL     1      -7.753  10.352  61.192  0.00  0.00    +0.019 A 
ATOM     26  C   UNL     1      -7.241   9.344  60.381  0.00  0.00    +0.002 A 
ATOM     27  C   UNL     1      -5.896   9.285  60.037  0.00  0.00    +0.000 A 
ATOM     28  C   UNL     1      -5.126  10.436  60.154  0.00  0.00    +0.000 A 
ATOM     29  C   UNL     1      -5.777  11.585  60.532  0.00  0.00    +0.000 A 
ATOM     30  C   UNL     1      -6.993  11.516  61.204  0.00  0.00    +0.002 A 
ENDBRANCH  23  25
ENDBRANCH  18  20
ENDBRANCH   1  18
BRANCH   1  31
ATOM     31  C   UNL     1      -9.800  13.489  65.030  0.00  0.00    +0.121 C 
BRANCH  31  35
ATOM     32  C   UNL     1      -9.980  17.574  65.801  0.00  0.00    +0.145 A 
ATOM     33  C   UNL     1      -8.903  16.870  66.281  0.00  0.00    +0.113 A 
ATOM     34  C   UNL     1      -8.889  15.485  66.159  0.00  0.00    +0.007 A 
ATOM     35  C   UNL     1      -9.996  14.793  65.682  0.00  0.00    -0.002 A 
ATOM     36  C   UNL     1     -11.128  15.544  65.438  0.00  0.00    +0.001 A 
ATOM     37  C   UNL     1     -11.067  16.920  65.297  0.00  0.00    +0.037 A 
BRANCH  33  38
ATOM     38  C   UNL     1      -7.598  17.542  66.354  0.00  0.00    +0.391 C 
ATOM     39  O   UNL     1      -7.134  17.976  67.598  0.00  0.00    -0.240 OA
ATOM     40  O   UNL     1      -7.003  17.902  65.318  0.00  0.00    -0.240 OA
ENDBRANCH  33  38
BRANCH  32  42
ATOM     41  C   UNL     1     -10.279  19.370  66.202  0.00  0.00    +0.252 C 
ATOM     42  O   UNL     1     -10.101  18.897  66.221  0.00  0.00    -0.471 OA
ENDBRANCH  32  42
ENDBRANCH  31  35
ENDBRANCH   1  31
TORSDOF 11
ENDMDL
MODEL 3
REMARK VINA RESULT:      -7.4      3.026      8.696
REMARK  Name = 
REMARK  11 active torsions:
REMARK  status: ('A' for Active; 'I' for Inactive)
REMARK    1  A    between atoms: O_2  and  C_3
REMARK    2  A    between atoms: C_6  and  C_7
REMARK    3  A    between atoms: C_7  and  N_8
REMARK    4  A    between atoms: N_8  and  C_25
REMARK    5  A    between atoms: C_9  and  C_11
REMARK    6  A    between atoms: C_11  and  C_13
REMARK    7  A    between atoms: C_13  and  C_14
REMARK    8  A    between atoms: C_18  and  C_19
REMARK    9  A    between atoms: C_25  and  C_27
REMARK   10  A    between atoms: C_29  and  C_30
REMARK   11  A    between atoms: C_39  and  C_40
REMARK                            x       y       z     vdW  Elec       q    Type
REMARK                         _______ _______ _______ _____ _____    ______ ____
ROOT
ATOM      1  N   UNL     1      -8.648  17.172  66.585  0.00  0.00    -0.269 N 
ATOM      2  C   UNL     1      -9.514  16.215  66.058  0.00  0.00    +0.244 C 
ATOM      3  O   UNL     1      -9.057  15.038  65.902  0.00  0.00    -0.273 OA
ENDROOT
BRANCH   2   4
ATOM      4  C   UNL     1     -10.940  15.976  66.837  0.00  0.00    +0.172 C 
ATOM      5  N   UNL     1     -11.405  14.797  65.851  0.00  0.00    -0.123 NA
BRANCH   4   6
ATOM      6  C   UNL     1     -10.214  14.871  67.867  0.00  0.00    +0.054 C 
BRANCH   6   7
ATOM      7  C   UNL     1     -11.116  14.857  69.031  0.00  0.00    -0.028 A 
ATOM      8  C   UNL     1     -11.022  15.847  69.987  0.00  0.00    -0.026 A 
ATOM      9  C   UNL     1     -10.231  17.092  69.739  0.00  0.00    +0.031 C 
ATOM     10  C   UNL     1     -12.011  15.867  70.958  0.00  0.00    +0.000 A 
ATOM     11  C   UNL     1     -12.869  14.790  71.059  0.00  0.00    +0.056 A 
ATOM     12  C   UNL     1     -12.581  13.604  70.434  0.00  0.00    +0.000 A 
ATOM     13  C   UNL     1     -11.650  13.642  69.407  0.00  0.00    -0.026 A 
ATOM     14  C   UNL     1     -11.536  12.426  68.571  0.00  0.00    +0.031 C 
BRANCH  11  15
ATOM     15  C   UNL     1     -13.966  14.743  72.033  0.00  0.00    +0.284 C 
ATOM     16  O   UNL     1     -14.960  15.474  71.741  0.00  0.00    -0.267 OA
ATOM     17  N   UNL     1     -14.309  13.440  72.521  0.00  0.00    -0.084 NA
ENDBRANCH  11  15
ENDBRANCH   6   7
ENDBRANCH   4   6
ENDBRANCH   2   4
BRANCH   1  18
ATOM     18  C   UNL     1      -9.036  18.645  66.080  0.00  0.00    +0.134 C 
ATOM     19  C   UNL     1      -9.342  19.163  67.644  0.00  0.00    +0.030 C 
BRANCH  18  20
ATOM     20  C   UNL     1      -7.489  19.197  66.149  0.00  0.00    +0.157 A 
ATOM     21  N   UNL     1      -6.967  19.788  65.055  0.00  0.00    -0.226 NA
ATOM     22  C   UNL     1      -5.901  20.474  65.543  0.00  0.00    +0.119 A 
ATOM     23  C   UNL     1      -6.139  20.724  66.891  0.00  0.00    +0.102 A 
ATOM     24  N   UNL     1      -7.379  20.196  67.068  0.00  0.00    -0.227 NA
BRANCH  23  25
ATOM     25  C   UNL     1      -5.147  20.995  67.946  0.00  0.00    +0.019 A 
ATOM     26  C   UNL     1      -3.792  20.745  67.760  0.00  0.00    +0.002 A 
ATOM     27  C   UNL     1      -3.051  19.985  68.659  0.00  0.00    +0.000 A 
ATOM     28  C   UNL     1      -3.542  19.810  69.947  0.00  0.00    +0.000 A 
ATOM     29  C   UNL     1      -4.701  20.474  70.268  0.00  0.00    +0.000 A 
ATOM     30  C   UNL     1      -5.570  20.895  69.267  0.00  0.00    +0.002 A 
ENDBRANCH  23  25
ENDBRANCH  18  20
ENDBRANCH   1  18
BRANCH   1  31
ATOM     31  C   UNL     1      -7.269  16.936  66.855  0.00  0.00    +0.121 C 
BRANCH  31  35
ATOM     32  C   UNL     1      -5.478  15.487  70.320  0.00  0.00    +0.145 A 
ATOM     33  C   UNL     1      -6.103  14.590  69.488  0.00  0.00    +0.113 A 
ATOM     34  C   UNL     1      -6.828  15.064  68.400  0.00  0.00    +0.007 A 
ATOM     35  C   UNL     1      -7.040  16.425  68.216  0.00  0.00    -0.002 A 
ATOM     36  C   UNL     1      -6.582  17.257  69.217  0.00  0.00    +0.001 A 
ATOM     37  C   UNL     1      -5.644  16.829  70.141  0.00  0.00    +0.037 A 
BRANCH  33  38
ATOM     38  C   UNL     1      -5.551  13.231  69.376  0.00  0.00    +0.391 C 
ATOM     39  O   UNL     1      -6.202  12.186  70.034  0.00  0.00    -0.240 OA
ATOM     40  O   UNL     1      -4.424  13.036  68.878  0.00  0.00    -0.240 OA
ENDBRANCH  33  38
BRANCH  32  42
ATOM     41  C   UNL     1      -4.791  15.021  71.989  0.00  0.00    +0.252 C 
ATOM     42  O   UNL     1      -5.042  15.000  71.551  0.00  0.00    -0.471 OA
ENDBRANCH  32  42
ENDBRANCH  31  35
ENDBRANCH   1  31
TORSDOF 11
ENDMDL
MODEL 4
REMARK VINA RESULT:      -7.4      5.162      8.969
REMARK  Name = 
REMARK  11 active torsions:
REMARK  status: ('A' for Active; 'I' for Inactive)
REMARK    1  A    between atoms: O_2  and  C_3
REMARK    2  A    between atoms: C_6  and  C_7
REMARK    3  A    between atoms: C_7  and  N_8
REMARK    4  A    between atoms: N_8  and  C_25
REMARK    5  A    between atoms: C_9  and  C_11
REMARK    6  A    between atoms: C_11  and  C_13
REMARK    7  A    between atoms: C_13  and  C_14
REMARK    8  A    between atoms: C_18  and  C_19
REMARK    9  A    between atoms: C_25  and  C_27
REMARK   10  A    between atoms: C_29  and  C_30
REMARK   11  A    between atoms: C_39  and  C_40
REMARK                            x       y       z     vdW  Elec       q    Type
REMARK                         _______ _______ _______ _____ _____    ______ ____
ROOT
ATOM      1  N   UNL     1     -10.714   8.240  70.654  0.00  0.00    -0.269 N 
ATOM      2  C   UNL     1     -10.512   9.597  70.402  0.00  0.00    +0.244 C 
ATOM      3  O   UNL     1      -9.376   9.941  69.943  0.00  0.00    -0.273 OA
ENDROOT
BRANCH   2   4
ATOM      4  C   UNL     1     -11.577  10.347  69.403  0.00  0.00    +0.172 C 
ATOM      5  N   UNL     1     -12.113  11.342  70.543  0.00  0.00    -0.123 NA
BRANCH   4   6
ATOM      6  C   UNL     1     -10.402  11.451  68.947  0.00  0.00    +0.054 C 
BRANCH   6   7
ATOM      7  C   UNL     1     -10.782  11.792  67.565  0.00  0.00    -0.028 A 
ATOM      8  C   UNL     1     -10.097  11.236  66.506  0.00  0.00    -0.026 A 
ATOM      9  C   UNL     1      -9.170  10.080  66.703  0.00  0.00    +0.031 C 
ATOM     10  C   UNL     1     -10.618  11.467  65.241  0.00  0.00    +0.000 A 
ATOM     11  C   UNL     1     -11.618  12.407  65.093  0.00  0.00    +0.056 A 
ATOM     12  C   UNL     1     -11.887  13.307  66.092  0.00  0.00    +0.000 A 
ATOM     13  C   UNL     1     -11.424  12.996  67.363  0.00  0.00    -0.026 A 
ATOM     14  C   UNL     1     -11.935  13.828  68.475  0.00  0.00    +0.031 C 
BRANCH  11  15
ATOM     15  C   UNL     1     -12.251  12.689  63.799  0.00  0.00    +0.284 C 
ATOM     16  O   UNL     1     -13.174  11.881  63.478  0.00  0.00    -0.267 OA
ATOM     17  N   UNL     1     -12.549  14.066  63.539  0.00  0.00    -0.084 NA
ENDBRANCH  11  15
ENDBRANCH   6   7
ENDBRANCH   4   6
ENDBRANCH   2   4
BRANCH   1  18
ATOM     18  C   UNL     1     -11.786   8.022  71.826  0.00  0.00    +0.134 C 
ATOM     19  C   UNL     1     -12.525   6.768  70.996  0.00  0.00    +0.030 C 
BRANCH  18  20
ATOM     20  C   UNL     1     -10.832   6.973  72.657  0.00  0.00    +0.157 A 
ATOM     21  N   UNL     1     -10.543   7.247  73.945  0.00  0.00    -0.226 NA
ATOM     22  C   UNL     1     -10.125   6.053  74.438  0.00  0.00    +0.119 A 
ATOM     23  C   UNL     1     -10.684   5.051  73.651  0.00  0.00    +0.102 A 
ATOM     24  N   UNL     1     -11.442   5.761  72.774  0.00  0.00    -0.227 NA
BRANCH  23  25
ATOM     25  C   UNL     1     -10.196   3.673  73.465  0.00  0.00    +0.019 A 
ATOM     26  C   UNL     1      -9.154   3.376  72.593  0.00  0.00    +0.002 A 
ATOM     27  C   UNL     1      -9.267   2.396  71.614  0.00  0.00    +0.000 A 
ATOM     28  C   UNL     1     -10.255   1.428  71.749  0.00  0.00    +0.000 A 
ATOM     29  C   UNL     1     -11.010   1.464  72.896  0.00  0.00    +0.000 A 
ATOM     30  C   UNL     1     -11.110   2.639  73.635  0.00  0.00    +0.002 A 
ENDBRANCH  23  25
ENDBRANCH  18  20
ENDBRANCH   1  18
BRANCH   1  31
ATOM     31  C   UNL     1      -9.700   7.247  70.526  0.00  0.00    +0.121 C 
BRANCH  31  35
ATOM     32  C   UNL     1     -10.265   5.071  67.026  0.00  0.00    +0.145 A 
ATOM     33  C   UNL     1      -9.209   4.733  67.836  0.00  0.00    +0.113 A 
ATOM     34  C   UNL     1      -8.915   5.532  68.936  0.00  0.00    +0.007 A 
ATOM     35  C   UNL     1      -9.584   6.730  69.154  0.00  0.00    -0.002 A 
ATOM     36  C   UNL     1     -10.471   7.124  68.172  0.00  0.00    +0.001 A 
ATOM     37  C   UNL     1     -10.959   6.226  67.237  0.00  0.00    +0.037 A 
BRANCH  33  38
ATOM     38  C   UNL     1      -8.805   3.322  67.915  0.00  0.00    +0.391 C 
ATOM     39  O   UNL     1      -7.526   2.964  67.483  0.00  0.00    -0.240 OA
ATOM     40  O   UNL     1      -9.638   2.430  68.170  0.00  0.00    -0.240 OA
ENDBRANCH  33  38
BRANCH  32  42
ATOM     41  C   UNL     1     -10.533   4.329  65.337  0.00  0.00    +0.252 C 
ATOM     42  O   UNL     1     -10.325   4.443  65.783  0.00  0.00    -0.471 OA
ENDBRANCH  32  42
ENDBRANCH  31  35
ENDBRANCH   1  31
TORSDOF 11
ENDMDL
MODEL 5
REMARK VINA RESULT:      -7.3      2.095      3.418
REMARK  Name = 
REMARK  11 active torsions:
REMARK  status: ('A' for Active; 'I' for Inactive)
REMARK    1  A    between atoms: O_2  and  C_3
REMARK    2  A    between atoms: C_6  and  C_7
REMARK    3  A    between atoms: C_7  and  N_8
REMARK    4  A    between atoms: N_8  and  C_25
REMARK    5  A    between atoms: C_9  and  C_11
REMARK    6  A    between atoms: C_11  and  C_13
REMARK    7  A    between atoms: C_13  and  C_14
REMARK    8  A    between atoms: C_18  and  C_19
REMARK    9  A    between atoms: C_25  and  C_27
REMARK   10  A    between atoms: C_29  and  C_30
REMARK   11  A    between atoms: C_39  and  C_40
REMARK                            x       y       z     vdW  Elec       q    Type
REMARK                         _______ _______ _______ _____ _____    ______ ____
ROOT
ATOM      1  N   UNL     1     -10.613  11.080  67.571  0.00  0.00    -0.269 N 
ATOM      2  C   UNL     1     -10.774  11.716  66.340  0.00  0.00    +0.244 C 
ATOM      3  O   UNL     1     -11.944  12.113  66.038  0.00  0.00    -0.273 OA
ENDROOT
BRANCH   2   4
ATOM      4  C   UNL     1      -9.831  13.026  66.038  0.00  0.00    +0.172 C 
ATOM      5  N   UNL     1     -10.326  13.166  64.517  0.00  0.00    -0.123 NA
BRANCH   4   6
ATOM      6  C   UNL     1     -11.050  14.049  66.562  0.00  0.00    +0.054 C 
BRANCH   6   7
ATOM      7  C   UNL     1     -10.359  15.340  66.719  0.00  0.00    -0.028 A 
ATOM      8  C   UNL     1     -10.475  16.306  65.742  0.00  0.00    -0.026 A 
ATOM      9  C   UNL     1     -11.508  16.200  64.665  0.00  0.00    +0.031 C 
ATOM     10  C   UNL     1      -9.942  17.552  66.035  0.00  0.00    +0.000 A 
ATOM     11  C   UNL     1      -9.138  17.688  67.149  0.00  0.00    +0.056 A 
ATOM     12  C   UNL     1      -8.625  16.585  67.782  0.00  0.00    +0.000 A 
ATOM     13  C   UNL     1      -9.244  15.369  67.529  0.00  0.00    -0.026 A 
ATOM     14  C   UNL     1      -8.861  14.238  68.404  0.00  0.00    +0.031 C 
BRANCH  11  15
ATOM     15  C   UNL     1      -8.562  18.976  67.554  0.00  0.00    +0.284 C 
ATOM     16  O   UNL     1      -9.341  19.967  67.415  0.00  0.00    -0.267 OA
ATOM     17  N   UNL     1      -7.823  18.968  68.782  0.00  0.00    -0.084 NA
ENDBRANCH  11  15
ENDBRANCH   6   7
ENDBRANCH   4   6
ENDBRANCH   2   4
BRANCH   1  18
ATOM     18  C   UNL     1      -9.389  10.043  67.531  0.00  0.00    +0.134 C 
ATOM     19  C   UNL     1      -9.115  10.214  69.175  0.00  0.00    +0.030 C 
BRANCH  18  20
ATOM     20  C   UNL     1     -10.347   8.730  67.778  0.00  0.00    +0.157 A 
ATOM     21  N   UNL     1     -10.571   7.892  66.746  0.00  0.00    -0.226 NA
ATOM     22  C   UNL     1     -11.012   6.758  67.348  0.00  0.00    +0.119 A 
ATOM     23  C   UNL     1     -10.526   6.753  68.652  0.00  0.00    +0.102 A 
ATOM     24  N   UNL     1      -9.780   7.889  68.686  0.00  0.00    -0.227 NA
BRANCH  23  25
ATOM     25  C   UNL     1     -11.074   6.034  69.815  0.00  0.00    +0.019 A 
ATOM     26  C   UNL     1     -11.973   6.633  70.691  0.00  0.00    +0.002 A 
ATOM     27  C   UNL     1     -11.767   6.648  72.065  0.00  0.00    +0.000 A 
ATOM     28  C   UNL     1     -10.888   5.724  72.618  0.00  0.00    +0.000 A 
ATOM     29  C   UNL     1     -10.337   4.800  71.764  0.00  0.00    +0.000 A 
ATOM     30  C   UNL     1     -10.279   5.053  70.397  0.00  0.00    +0.002 A 
ENDBRANCH  23  25
ENDBRANCH  18  20
ENDBRANCH   1  18
BRANCH   1  31
ATOM     31  C   UNL     1     -11.688  10.761  68.449  0.00  0.00    +0.121 C 
BRANCH  31  35
ATOM     32  C   UNL     1     -12.785  13.404  71.469  0.00  0.00    +0.145 A 
ATOM     33  C   UNL     1     -11.929  13.852  70.493  0.00  0.00    +0.113 A 
ATOM     34  C   UNL     1     -11.437  12.951  69.555  0.00  0.00    +0.007 A 
ATOM     35  C   UNL     1     -11.691  11.589  69.665  0.00  0.00    -0.002 A 
ATOM     36  C   UNL     1     -12.362  11.180  70.799  0.00  0.00    +0.001 A 
ATOM     37  C   UNL     1     -13.076  12.075  71.578  0.00  0.00    +0.037 A 
BRANCH  33  38
ATOM     38  C   UNL     1     -12.006  15.262  70.082  0.00  0.00    +0.391 C 
ATOM     39  O   UNL     1     -11.036  16.152  70.547  0.00  0.00    -0.240 OA
ATOM     40  O   UNL     1     -13.016  15.705  69.499  0.00  0.00    -0.240 OA
ENDBRANCH  33  38
BRANCH  32  42
ATOM     41  C   UNL     1     -13.273  14.526  72.876  0.00  0.00    +0.252 C 
ATOM     42  O   UNL     1     -12.995  14.251  72.555  0.00  0.00    -0.471 OA
ENDBRANCH  32  42
ENDBRANCH  31  35
ENDBRANCH   1  31
TORSDOF 11
ENDMDL
MODEL 6
REMARK VINA RESULT:      -7.3      2.889      9.008
REMARK  Name = 
REMARK  11 active torsions:
REMARK  status: ('A' for Active; 'I' for Inactive)
REMARK    1  A    between atoms: O_2  and  C_3
REMARK    2  A    between atoms: C_6  and  C_7
REMARK    3  A    between atoms: C_7  and  N_8
REMARK    4  A    between atoms: N_8  and  C_25
REMARK    5  A    between atoms: C_9  and  C_11
REMARK    6  A    between atoms: C_11  and  C_13
REMARK    7  A    between atoms: C_13  and  C_14
REMARK    8  A    between atoms: C_18  and  C_19
REMARK    9  A    between atoms: C_25  and  C_27
REMARK   10  A    between atoms: C_29  and  C_30
REMARK   11  A    between atoms: C_39  and  C_40
REMARK                            x       y       z     vdW  Elec       q    Type
REMARK                         _______ _______ _______ _____ _____    ______ ____
ROOT
ATOM      1  N   UNL     1     -10.246  15.259  67.085  0.00  0.00    -0.269 N 
ATOM      2  C   UNL     1     -11.140  14.376  66.480  0.00  0.00    +0.244 C 
ATOM      3  O   UNL     1     -10.655  13.513  65.681  0.00  0.00    -0.273 OA
ENDROOT
BRANCH   2   4
ATOM      4  C   UNL     1     -12.109  13.490  67.465  0.00  0.00    +0.172 C 
ATOM      5  N   UNL     1     -12.061  12.190  66.523  0.00  0.00    -0.123 NA
BRANCH   4   6
ATOM      6  C   UNL     1     -10.777  12.953  68.328  0.00  0.00    +0.054 C 
BRANCH   6   7
ATOM      7  C   UNL     1     -11.370  12.066  69.342  0.00  0.00    -0.028 A 
ATOM      8  C   UNL     1     -12.062  12.604  70.407  0.00  0.00    -0.026 A 
ATOM      9  C   UNL     1     -12.477  14.041  70.416  0.00  0.00    +0.031 C 
ATOM     10  C   UNL     1     -12.737  11.709  71.224  0.00  0.00    +0.000 A 
ATOM     11  C   UNL     1     -12.491  10.358  71.079  0.00  0.00    +0.056 A 
ATOM     12  C   UNL     1     -11.403   9.916  70.372  0.00  0.00    +0.000 A 
ATOM     13  C   UNL     1     -10.809  10.816  69.499  0.00  0.00    -0.026 A 
ATOM     14  C   UNL     1      -9.811  10.263  68.556  0.00  0.00    +0.031 C 
BRANCH  11  15
ATOM     15  C   UNL     1     -13.186   9.340  71.875  0.00  0.00    +0.284 C 
ATOM     16  O   UNL     1     -14.241   8.883  71.339  0.00  0.00    -0.267 OA
ATOM     17  N   UNL     1     -12.350   8.348  72.483  0.00  0.00    -0.084 NA
ENDBRANCH  11  15
ENDBRANCH   6   7
ENDBRANCH   4   6
ENDBRANCH   2   4
BRANCH   1  18
ATOM     18  C   UNL     1     -10.958  16.652  67.440  0.00  0.00    +0.134 C 
ATOM     19  C   UNL     1     -10.439  16.578  69.032  0.00  0.00    +0.030 C 
BRANCH  18  20
ATOM     20  C   UNL     1      -9.657  17.557  67.007  0.00  0.00    +0.157 A 
ATOM     21  N   UNL     1      -9.835  18.561  66.125  0.00  0.00    -0.226 NA
ATOM     22  C   UNL     1      -8.733  19.335  66.297  0.00  0.00    +0.119 A 
ATOM     23  C   UNL     1      -8.250  19.106  67.582  0.00  0.00    +0.102 A 
ATOM     24  N   UNL     1      -9.165  18.233  68.082  0.00  0.00    -0.227 NA
BRANCH  23  25
ATOM     25  C   UNL     1      -6.880  19.313  68.081  0.00  0.00    +0.019 A 
ATOM     26  C   UNL     1      -6.461  18.805  69.306  0.00  0.00    +0.002 A 
ATOM     27  C   UNL     1      -5.855  19.604  70.268  0.00  0.00    +0.000 A 
ATOM     28  C   UNL     1      -5.292  20.812  69.874  0.00  0.00    +0.000 A 
ATOM     29  C   UNL     1      -5.307  21.098  68.531  0.00  0.00    +0.000 A 
ATOM     30  C   UNL     1      -6.222  20.474  67.690  0.00  0.00    +0.002 A 
ENDBRANCH  23  25
ENDBRANCH  18  20
ENDBRANCH   1  18
BRANCH   1  31
ATOM     31  C   UNL     1      -8.855  15.316  66.782  0.00  0.00    +0.121 C 
BRANCH  31  35
ATOM     32  C   UNL     1      -5.678  13.364  68.627  0.00  0.00    +0.145 A 
ATOM     33  C   UNL     1      -6.479  12.640  67.778  0.00  0.00    +0.113 A 
ATOM     34  C   UNL     1      -7.627  13.231  67.261  0.00  0.00    +0.007 A 
ATOM     35  C   UNL     1      -8.045  14.486  67.687  0.00  0.00    -0.002 A 
ATOM     36  C   UNL     1      -7.320  15.057  68.713  0.00  0.00    +0.001 A 
ATOM     37  C   UNL     1      -6.049  14.612  69.035  0.00  0.00    +0.037 A 
BRANCH  33  38
ATOM     38  C   UNL     1      -5.872  11.563  66.984  0.00  0.00    +0.391 C 
ATOM     39  O   UNL     1      -6.112  10.238  67.354  0.00  0.00    -0.240 OA
ATOM     40  O   UNL     1      -5.003  11.812  66.124  0.00  0.00    -0.240 OA
ENDBRANCH  33  38
BRANCH  32  42
ATOM     41  C   UNL     1      -4.350  12.593  69.684  0.00  0.00    +0.252 C 
ATOM     42  O   UNL     1      -4.734  12.647  69.360  0.00  0.00    -0.471 OA
ENDBRANCH  32  42
ENDBRANCH  31  35
ENDBRANCH   1  31
TORSDOF 11
ENDMDL
MODEL 7
REMARK VINA RESULT:      -7.3      4.090      9.222
REMARK  Name = 
REMARK  11 active torsions:
REMARK  status: ('A' for Active; 'I' for Inactive)
REMARK    1  A    between atoms: O_2  and  C_3
REMARK    2  A    between atoms: C_6  and  C_7
REMARK    3  A    between atoms: C_7  and  N_8
REMARK    4  A    between atoms: N_8  and  C_25
REMARK    5  A    between atoms: C_9  and  C_11
REMARK    6  A    between atoms: C_11  and  C_13
REMARK    7  A    between atoms: C_13  and  C_14
REMARK    8  A    between atoms: C_18  and  C_19
REMARK    9  A    between atoms: C_25  and  C_27
REMARK   10  A    between atoms: C_29  and  C_30
REMARK   11  A    between atoms: C_39  and  C_40
REMARK                            x       y       z     vdW  Elec       q    Type
REMARK                         _______ _______ _______ _____ _____    ______ ____
ROOT
ATOM      1  N   UNL     1      -9.875  11.001  67.975  0.00  0.00    -0.269 N 
ATOM      2  C   UNL     1      -8.971  10.078  67.449  0.00  0.00    +0.244 C 
ATOM      3  O   UNL     1      -8.374   9.313  68.272  0.00  0.00    -0.273 OA
ENDROOT
BRANCH   2   4
ATOM      4  C   UNL     1      -9.527   9.046  66.298  0.00  0.00    +0.172 C 
ATOM      5  N   UNL     1      -8.474   9.541  65.192  0.00  0.00    -0.123 NA
BRANCH   4   6
ATOM      6  C   UNL     1      -8.468   7.858  66.822  0.00  0.00    +0.054 C 
BRANCH   6   7
ATOM      7  C   UNL     1      -8.991   6.639  66.183  0.00  0.00    -0.028 A 
ATOM      8  C   UNL     1      -9.996   5.919  66.793  0.00  0.00    -0.026 A 
ATOM      9  C   UNL     1     -10.773   6.488  67.938  0.00  0.00    +0.031 C 
ATOM     10  C   UNL     1     -10.555   4.886  66.056  0.00  0.00    +0.000 A 
ATOM     11  C   UNL     1      -9.934   4.489  64.888  0.00  0.00    +0.056 A 
ATOM     12  C   UNL     1      -8.650   4.881  64.609  0.00  0.00    +0.000 A 
ATOM     13  C   UNL     1      -8.159   5.975  65.306  0.00  0.00    -0.026 A 
ATOM     14  C   UNL     1      -6.884   6.551  64.821  0.00  0.00    +0.031 C 
BRANCH  11  15
ATOM     15  C   UNL     1     -10.475   3.430  64.027  0.00  0.00    +0.284 C 
ATOM     16  O   UNL     1     -10.783   3.810  62.857  0.00  0.00    -0.267 OA
ATOM     17  N   UNL     1      -9.790   2.172  64.084  0.00  0.00    -0.084 NA
ENDBRANCH  11  15
ENDBRANCH   6   7
ENDBRANCH   4   6
ENDBRANCH   2   4
BRANCH   1  18
ATOM     18  C   UNL     1      -9.990  12.297  67.037  0.00  0.00    +0.134 C 
ATOM     19  C   UNL     1     -11.661  12.187  66.991  0.00  0.00    +0.030 C 
BRANCH  18  20
ATOM     20  C   UNL     1     -10.046  13.345  68.302  0.00  0.00    +0.157 A 
ATOM     21  N   UNL     1      -9.119  14.322  68.369  0.00  0.00    -0.226 NA
ATOM     22  C   UNL     1      -9.664  15.217  69.233  0.00  0.00    +0.119 A 
ATOM     23  C   UNL     1     -11.045  15.044  69.209  0.00  0.00    +0.102 A 
ATOM     24  N   UNL     1     -11.197  14.072  68.270  0.00  0.00    -0.227 NA
BRANCH  23  25
ATOM     25  C   UNL     1     -12.018  15.406  70.254  0.00  0.00    +0.019 A 
ATOM     26  C   UNL     1     -11.637  16.083  71.407  0.00  0.00    +0.002 A 
ATOM     27  C   UNL     1     -11.963  15.621  72.677  0.00  0.00    +0.000 A 
ATOM     28  C   UNL     1     -13.008  14.714  72.809  0.00  0.00    +0.000 A 
ATOM     29  C   UNL     1     -13.703  14.395  71.668  0.00  0.00    +0.000 A 
ATOM     30  C   UNL     1     -13.124  14.580  70.417  0.00  0.00    +0.002 A 
ENDBRANCH  23  25
ENDBRANCH  18  20
ENDBRANCH   1  18
BRANCH   1  31
ATOM     31  C   UNL     1     -10.085  11.204  69.369  0.00  0.00    +0.121 C 
BRANCH  31  35
ATOM     32  C   UNL     1     -12.916   9.446  71.861  0.00  0.00    +0.145 A 
ATOM     33  C   UNL     1     -11.973   8.636  71.276  0.00  0.00    +0.113 A 
ATOM     34  C   UNL     1     -11.106   9.175  70.332  0.00  0.00    +0.007 A 
ATOM     35  C   UNL     1     -11.261  10.479  69.875  0.00  0.00    -0.002 A 
ATOM     36  C   UNL     1     -12.370  11.160  70.332  0.00  0.00    +0.001 A 
ATOM     37  C   UNL     1     -13.066  10.740  71.453  0.00  0.00    +0.037 A 
BRANCH  33  38
ATOM     38  C   UNL     1     -11.496   7.461  72.020  0.00  0.00    +0.391 C 
ATOM     39  O   UNL     1     -11.874   6.190  71.581  0.00  0.00    -0.240 OA
ATOM     40  O   UNL     1     -10.937   7.587  73.127  0.00  0.00    -0.240 OA
ENDBRANCH  33  38
BRANCH  32  42
ATOM     41  C   UNL     1     -14.365   8.525  72.587  0.00  0.00    +0.252 C 
ATOM     42  O   UNL     1     -13.950   8.811  72.546  0.00  0.00    -0.471 OA
ENDBRANCH  32  42
ENDBRANCH  31  35
ENDBRANCH   1  31
TORSDOF 11
ENDMDL
MODEL 8
REMARK VINA RESULT:      -7.0      2.573      8.057
REMARK  Name = 
REMARK  11 active torsions:
REMARK  status: ('A' for Active; 'I' for Inactive)
REMARK    1  A    between atoms: O_2  and  C_3
REMARK    2  A    between atoms: C_6  and  C_7
REMARK    3  A    between atoms: C_7  and  N_8
REMARK    4  A    between atoms: N_8  and  C_25
REMARK    5  A    between atoms: C_9  and  C_11
REMARK    6  A    between atoms: C_11  and  C_13
REMARK    7  A    between atoms: C_13  and  C_14
REMARK    8  A    between atoms: C_18  and  C_19
REMARK    9  A    between atoms: C_25  and  C_27
REMARK   10  A    between atoms: C_29  and  C_30
REMARK   11  A    between atoms: C_39  and  C_40
REMARK                            x       y       z     vdW  Elec       q    Type
REMARK                         _______ _______ _______ _____ _____    ______ ____
ROOT
ATOM      1  N   UNL     1      -9.843  16.627  67.981  0.00  0.00    -0.269 N 
ATOM      2  C   UNL     1      -8.600  15.997  68.038  0.00  0.00    +0.244 C 
ATOM      3  O   UNL     1      -8.164  15.669  69.187  0.00  0.00    -0.273 OA
ENDROOT
BRANCH   2   4
ATOM      4  C   UNL     1      -8.403  14.632  67.146  0.00  0.00    +0.172 C 
ATOM      5  N   UNL     1      -6.801  14.665  67.250  0.00  0.00    -0.123 NA
BRANCH   4   6
ATOM      6  C   UNL     1      -8.506  13.690  68.528  0.00  0.00    +0.054 C 
BRANCH   6   7
ATOM      7  C   UNL     1      -8.462  12.316  68.000  0.00  0.00    -0.028 A 
ATOM      8  C   UNL     1      -9.573  11.779  67.387  0.00  0.00    -0.026 A 
ATOM      9  C   UNL     1     -10.729  12.639  66.983  0.00  0.00    +0.031 C 
ATOM     10  C   UNL     1      -9.405  10.551  66.765  0.00  0.00    +0.000 A 
ATOM     11  C   UNL     1      -8.243   9.842  66.991  0.00  0.00    +0.056 A 
ATOM     12  C   UNL     1      -7.407  10.178  68.025  0.00  0.00    +0.000 A 
ATOM     13  C   UNL     1      -7.549  11.449  68.563  0.00  0.00    -0.026 A 
ATOM     14  C   UNL     1      -6.485  11.897  69.490  0.00  0.00    +0.031 C 
BRANCH  11  15
ATOM     15  C   UNL     1      -7.966   8.553  66.346  0.00  0.00    +0.284 C 
ATOM     16  O   UNL     1      -8.156   7.542  67.088  0.00  0.00    -0.267 OA
ATOM     17  N   UNL     1      -8.457   8.409  65.007  0.00  0.00    -0.084 NA
ENDBRANCH  11  15
ENDBRANCH   6   7
ENDBRANCH   4   6
ENDBRANCH   2   4
BRANCH   1  18
ATOM     18  C   UNL     1      -9.947  17.589  66.702  0.00  0.00    +0.134 C 
ATOM     19  C   UNL     1     -10.563  18.845  67.625  0.00  0.00    +0.030 C 
BRANCH  18  20
ATOM     20  C   UNL     1      -8.413  18.158  66.865  0.00  0.00    +0.157 A 
ATOM     21  N   UNL     1      -7.695  18.402  65.750  0.00  0.00    -0.226 NA
ATOM     22  C   UNL     1      -6.699  19.215  66.186  0.00  0.00    +0.119 A 
ATOM     23  C   UNL     1      -7.147  19.854  67.338  0.00  0.00    +0.102 A 
ATOM     24  N   UNL     1      -8.418  19.386  67.452  0.00  0.00    -0.227 NA
BRANCH  23  25
ATOM     25  C   UNL     1      -6.334  20.441  68.418  0.00  0.00    +0.019 A 
ATOM     26  C   UNL     1      -5.009  20.814  68.218  0.00  0.00    +0.002 A 
ATOM     27  C   UNL     1      -3.985  20.379  69.051  0.00  0.00    +0.000 A 
ATOM     28  C   UNL     1      -4.311  19.908  70.318  0.00  0.00    +0.000 A 
ATOM     29  C   UNL     1      -5.632  19.980  70.689  0.00  0.00    +0.000 A 
ATOM     30  C   UNL     1      -6.629  20.064  69.723  0.00  0.00    +0.002 A 
ENDBRANCH  23  25
ENDBRANCH  18  20
ENDBRANCH   1  18
BRANCH   1  31
ATOM     31  C   UNL     1     -10.593  17.012  69.130  0.00  0.00    +0.121 C 
BRANCH  31  35
ATOM     32  C   UNL     1     -12.886  14.244  71.225  0.00  0.00    +0.145 A 
ATOM     33  C   UNL     1     -12.216  15.207  71.940  0.00  0.00    +0.113 A 
ATOM     34  C   UNL     1     -11.334  16.054  71.279  0.00  0.00    +0.007 A 
ATOM     35  C   UNL     1     -11.020  15.860  69.939  0.00  0.00    -0.002 A 
ATOM     36  C   UNL     1     -11.549  14.734  69.342  0.00  0.00    +0.001 A 
ATOM     37  C   UNL     1     -12.620  14.055  69.900  0.00  0.00    +0.037 A 
BRANCH  33  38
ATOM     38  C   UNL     1     -12.829  15.721  73.174  0.00  0.00    +0.391 C 
ATOM     39  O   UNL     1     -12.282  15.344  74.403  0.00  0.00    -0.240 OA
ATOM     40  O   UNL     1     -13.926  16.313  73.147  0.00  0.00    -0.240 OA
ENDBRANCH  33  38
BRANCH  32  42
ATOM     41  C   UNL     1     -13.563  12.758  72.125  0.00  0.00    +0.252 C 
ATOM     42  O   UNL     1     -13.500  13.232  71.960  0.00  0.00    -0.471 OA
ENDBRANCH  32  42
ENDBRANCH  31  35
ENDBRANCH   1  31
TORSDOF 11
ENDMDL
MODEL 9
REMARK VINA RESULT:      -7.0      2.528      4.589
REMARK  Name = 
REMARK  11 active torsions:
REMARK  status: ('A' for Active; 'I' for Inactive)
REMARK    1  A    between atoms: O_2  and  C_3
REMARK    2  A    between atoms: C_6  and  C_7
REMARK    3  A    between atoms: C_7  and  N_8
REMARK    4  A    between atoms: N_8  and  C_25
REMARK    5  A    between atoms: C_9  and  C_11
REMARK    6  A    between atoms: C_11  and  C_13
REMARK    7  A    between atoms: C_13  and  C_14
REMARK    8  A    between atoms: C_18  and  C_19
REMARK    9  A    between atoms: C_25  and  C_27
REMARK   10  A    between atoms: C_29  and  C_30
REMARK   11  A    between atoms: C_39  and  C_40
REMARK                            x       y       z     vdW  Elec       q    Type
REMARK                         _______ _______ _______ _____ _____    ______ ____
ROOT
ATOM      1  N   UNL     1     -11.311  14.677  66.667  0.00  0.00    -0.269 N 
ATOM      2  C   UNL     1     -10.885  15.826  67.333  0.00  0.00    +0.244 C 
ATOM      3  O   UNL     1     -11.187  15.931  68.564  0.00  0.00    -0.273 OA
ENDROOT
BRANCH   2   4
ATOM      4  C   UNL     1      -9.279  16.168  67.298  0.00  0.00    +0.172 C 
ATOM      5  N   UNL     1      -9.442  17.343  66.216  0.00  0.00    -0.123 NA
BRANCH   4   6
ATOM      6  C   UNL     1      -9.464  17.258  68.557  0.00  0.00    +0.054 C 
BRANCH   6   7
ATOM      7  C   UNL     1      -8.324  18.173  68.376  0.00  0.00    -0.028 A 
ATOM      8  C   UNL     1      -7.080  17.829  68.863  0.00  0.00    -0.026 A 
ATOM      9  C   UNL     1      -6.784  16.434  69.315  0.00  0.00    +0.031 C 
ATOM     10  C   UNL     1      -6.025  18.654  68.507  0.00  0.00    +0.000 A 
ATOM     11  C   UNL     1      -6.299  19.868  67.910  0.00  0.00    +0.056 A 
ATOM     12  C   UNL     1      -7.566  20.391  67.935  0.00  0.00    +0.000 A 
ATOM     13  C   UNL     1      -8.605  19.513  68.208  0.00  0.00    -0.026 A 
ATOM     14  C   UNL     1      -9.977  20.020  67.979  0.00  0.00    +0.031 C 
BRANCH  11  15
ATOM     15  C   UNL     1      -5.243  20.787  67.468  0.00  0.00    +0.284 C 
ATOM     16  O   UNL     1      -5.659  21.923  67.089  0.00  0.00    -0.267 OA
ATOM     17  N   UNL     1      -4.069  20.827  68.290  0.00  0.00    -0.084 NA
ENDBRANCH  11  15
ENDBRANCH   6   7
ENDBRANCH   4   6
ENDBRANCH   2   4
BRANCH   1  18
ATOM     18  C   UNL     1     -11.526  14.962  65.103  0.00  0.00    +0.134 C 
ATOM     19  C   UNL     1      -9.881  14.858  64.798  0.00  0.00    +0.030 C 
BRANCH  18  20
ATOM     20  C   UNL     1     -11.744  13.376  64.730  0.00  0.00    +0.157 A 
ATOM     21  N   UNL     1     -12.717  13.047  63.856  0.00  0.00    -0.226 NA
ATOM     22  C   UNL     1     -12.376  11.795  63.458  0.00  0.00    +0.119 A 
ATOM     23  C   UNL     1     -11.005  11.648  63.646  0.00  0.00    +0.102 A 
ATOM     24  N   UNL     1     -10.644  12.877  64.102  0.00  0.00    -0.227 NA
BRANCH  23  25
ATOM     25  C   UNL     1     -10.248  10.396  63.818  0.00  0.00    +0.019 A 
ATOM     26  C   UNL     1      -9.897   9.918  65.076  0.00  0.00    +0.002 A 
ATOM     27  C   UNL     1      -8.589   9.575  65.397  0.00  0.00    +0.000 A 
ATOM     28  C   UNL     1      -7.695   9.315  64.366  0.00  0.00    +0.000 A 
ATOM     29  C   UNL     1      -8.195   9.341  63.086  0.00  0.00    +0.000 A 
ATOM     30  C   UNL     1      -9.368  10.033  62.804  0.00  0.00    +0.002 A 
ENDBRANCH  23  25
ENDBRANCH  18  20
ENDBRANCH   1  18
BRANCH   1  31
ATOM     31  C   UNL     1     -12.143  13.680  67.252  0.00  0.00    +0.121 C 
BRANCH  31  35
ATOM     32  C   UNL     1     -10.843  10.597  69.725  0.00  0.00    +0.145 A 
ATOM     33  C   UNL     1     -11.781  11.472  70.217  0.00  0.00    +0.113 A 
ATOM     34  C   UNL     1     -12.127  12.589  69.465  0.00  0.00    +0.007 A 
ATOM     35  C   UNL     1     -11.450  12.905  68.293  0.00  0.00    -0.002 A 
ATOM     36  C   UNL     1     -10.364  12.113  67.980  0.00  0.00    +0.001 A 
ATOM     37  C   UNL     1     -10.187  10.867  68.560  0.00  0.00    +0.037 A 
BRANCH  33  38
ATOM     38  C   UNL     1     -12.793  10.965  71.155  0.00  0.00    +0.391 C 
ATOM     39  O   UNL     1     -13.442   9.765  70.859  0.00  0.00    -0.240 OA
ATOM     40  O   UNL     1     -13.214  11.677  72.089  0.00  0.00    -0.240 OA
ENDBRANCH  33  38
BRANCH  32  42
ATOM     41  C   UNL     1     -10.020   9.290  70.769  0.00  0.00    +0.252 C 
ATOM     42  O   UNL     1     -10.302   9.686  70.630  0.00  0.00    -0.471 OA
ENDBRANCH  32  42
ENDBRANCH  31  35
ENDBRANCH   1  31
TORSDOF 11
ENDMDL
