MODEL 1
REMARK VINA RESULT:      -5.7      0.000      0.000
REMARK  Name = 
REMARK  10 active torsions:
REMARK  status: ('A' for Active; 'I' for Inactive)
REMARK    1  A    between atoms: C_2  and  C_3
REMARK    2  A    between atoms: C_3  and  C_4
REMARK    3  A    between atoms: C_4  and  C_5
REMARK    4  A    between atoms: C_5  and  C_6
REMARK    5  A    between atoms: C_5  and  C_8
REMARK    6  A    between atoms: C_8  and  O_9
REMARK    7  A    between atoms: O_9  and  C_10
REMARK    8  A    between atoms: C_10  and  C_12
REMARK    9  A    between atoms: C_13  and  C_14
REMARK   10  A    between atoms: C_17  and  O_18
REMARK                            x       y       z     vdW  Elec       q    Type
REMARK                         _______ _______ _______ _____ _____    ______ ____
ROOT
ATOM      1  C   UNL     1     -10.682  16.818  69.272  0.00  0.00    +0.341 C 
ATOM      2  O   UNL     1     -10.935  17.441  68.192  0.00  0.00    -0.245 OA
ENDROOT
BRANCH   1   3
ATOM      3  C   UNL     1      -9.594  15.831  69.221  0.00  0.00    +0.082 C 
ATOM      4  C   UNL     1      -9.538  14.853  68.357  0.00  0.00    +0.007 C 
BRANCH   4   5
ATOM      5  C   UNL     1     -10.595  14.700  67.348  0.00  0.00    +0.000 A 
ATOM      6  C   UNL     1     -10.128  14.861  66.044  0.00  0.00    +0.003 A 
ATOM      7  C   UNL     1     -10.717  14.207  64.974  0.00  0.00    +0.037 A 
ATOM      8  C   UNL     1     -11.742  13.326  65.164  0.00  0.00    +0.139 A 
ATOM      9  C   UNL     1     -12.091  13.007  66.460  0.00  0.00    +0.037 A 
ATOM     10  C   UNL     1     -11.379  13.560  67.495  0.00  0.00    +0.003 A 
BRANCH   8  11
ATOM     11  O   UNL     1     -12.663  13.063  64.143  0.00  0.00    -0.471 OA
ATOM     12  C   UNL     1     -12.474  11.910  63.324  0.00  0.00    +0.252 C 
ENDBRANCH   8  11
ENDBRANCH   4   5
ENDBRANCH   1   3
BRANCH   1  13
ATOM     13  O   UNL     1     -11.867  16.316  69.835  0.00  0.00    -0.445 OA
BRANCH  13  14
ATOM     14  C   UNL     1     -11.959  15.887  71.169  0.00  0.00    +0.209 C 
BRANCH  14  15
ATOM     15  C   UNL     1     -13.290  14.932  71.064  0.00  0.00    +0.044 C 
BRANCH  15  16
ATOM     16  C   UNL     1     -13.423  14.799  72.694  0.00  0.00    +0.004 C 
ATOM     17  C   UNL     1     -12.201  15.570  73.171  0.00  0.00    +0.000 C 
ENDBRANCH  15  16
BRANCH  15  18
ATOM     18  C   UNL     1     -12.398  13.561  70.942  0.00  0.00    +0.004 C 
BRANCH  18  19
ATOM     19  C   UNL     1     -13.171  12.474  71.629  0.00  0.00    +0.000 C 
BRANCH  19  21
ATOM     20  C   UNL     1     -12.115  11.072  70.349  0.00  0.00    +0.000 C 
ATOM     21  C   UNL     1     -12.622  11.139  71.180  0.00  0.00    +0.000 C 
ENDBRANCH  19  21
ENDBRANCH  18  19
ENDBRANCH  15  18
ENDBRANCH  14  15
ENDBRANCH  13  14
ENDBRANCH   1  13
TORSDOF 10
ENDMDL
MODEL 2
REMARK VINA RESULT:      -5.5      2.055      4.742
REMARK  Name = 
REMARK  10 active torsions:
REMARK  status: ('A' for Active; 'I' for Inactive)
REMARK    1  A    between atoms: C_2  and  C_3
REMARK    2  A    between atoms: C_3  and  C_4
REMARK    3  A    between atoms: C_4  and  C_5
REMARK    4  A    between atoms: C_5  and  C_6
REMARK    5  A    between atoms: C_5  and  C_8
REMARK    6  A    between atoms: C_8  and  O_9
REMARK    7  A    between atoms: O_9  and  C_10
REMARK    8  A    between atoms: C_10  and  C_12
REMARK    9  A    between atoms: C_13  and  C_14
REMARK   10  A    between atoms: C_17  and  O_18
REMARK                            x       y       z     vdW  Elec       q    Type
REMARK                         _______ _______ _______ _____ _____    ______ ____
ROOT
ATOM      1  C   UNL     1     -12.151  13.934  66.137  0.00  0.00    +0.341 C 
ATOM      2  O   UNL     1     -13.350  13.954  65.715  0.00  0.00    -0.245 OA
ENDROOT
BRANCH   1   3
ATOM      3  C   UNL     1     -11.097  13.845  65.116  0.00  0.00    +0.082 C 
ATOM      4  C   UNL     1     -10.094  14.678  65.029  0.00  0.00    +0.007 C 
BRANCH   4   5
ATOM      5  C   UNL     1      -9.963  15.776  65.996  0.00  0.00    +0.000 A 
ATOM      6  C   UNL     1      -8.647  15.982  66.407  0.00  0.00    +0.003 A 
ATOM      7  C   UNL     1      -8.190  17.234  66.788  0.00  0.00    +0.037 A 
ATOM      8  C   UNL     1      -8.999  18.331  66.713  0.00  0.00    +0.139 A 
ATOM      9  C   UNL     1     -10.240  18.184  66.129  0.00  0.00    +0.037 A 
ATOM     10  C   UNL     1     -10.595  16.958  65.624  0.00  0.00    +0.003 A 
BRANCH   8  11
ATOM     11  O   UNL     1      -8.776  19.445  67.532  0.00  0.00    -0.471 OA
ATOM     12  C   UNL     1      -7.789  19.361  68.558  0.00  0.00    +0.252 C 
ENDBRANCH   8  11
ENDBRANCH   4   5
ENDBRANCH   1   3
BRANCH   1  13
ATOM     13  O   UNL     1     -12.012  12.991  67.168  0.00  0.00    -0.445 OA
BRANCH  13  14
ATOM     14  C   UNL     1     -11.181  13.192  68.283  0.00  0.00    +0.209 C 
BRANCH  14  15
ATOM     15  C   UNL     1     -11.915  14.503  68.946  0.00  0.00    +0.044 C 
BRANCH  15  16
ATOM     16  C   UNL     1     -10.502  15.104  69.523  0.00  0.00    +0.004 C 
ATOM     17  C   UNL     1     -10.767  16.602  69.500  0.00  0.00    +0.000 C 
ENDBRANCH  15  16
BRANCH  15  18
ATOM     18  C   UNL     1     -12.246  13.712  70.344  0.00  0.00    +0.004 C 
BRANCH  18  19
ATOM     19  C   UNL     1     -13.321  14.491  71.043  0.00  0.00    +0.000 C 
BRANCH  19  21
ATOM     20  C   UNL     1     -12.913  14.763  73.158  0.00  0.00    +0.000 C 
ATOM     21  C   UNL     1     -13.291  14.138  72.512  0.00  0.00    +0.000 C 
ENDBRANCH  19  21
ENDBRANCH  18  19
ENDBRANCH  15  18
ENDBRANCH  14  15
ENDBRANCH  13  14
ENDBRANCH   1  13
TORSDOF 10
ENDMDL
MODEL 3
REMARK VINA RESULT:      -5.4      2.095      5.940
REMARK  Name = 
REMARK  10 active torsions:
REMARK  status: ('A' for Active; 'I' for Inactive)
REMARK    1  A    between atoms: C_2  and  C_3
REMARK    2  A    between atoms: C_3  and  C_4
REMARK    3  A    between atoms: C_4  and  C_5
REMARK    4  A    between atoms: C_5  and  C_6
REMARK    5  A    between atoms: C_5  and  C_8
REMARK    6  A    between atoms: C_8  and  O_9
REMARK    7  A    between atoms: O_9  and  C_10
REMARK    8  A    between atoms: C_10  and  C_12
REMARK    9  A    between atoms: C_13  and  C_14
REMARK   10  A    between atoms: C_17  and  O_18
REMARK                            x       y       z     vdW  Elec       q    Type
REMARK                         _______ _______ _______ _____ _____    ______ ____
ROOT
ATOM      1  C   UNL     1     -10.459  16.042  65.763  0.00  0.00    +0.341 C 
ATOM      2  O   UNL     1     -10.502  17.229  65.311  0.00  0.00    -0.245 OA
ENDROOT
BRANCH   1   3
ATOM      3  C   UNL     1      -9.330  15.717  66.647  0.00  0.00    +0.082 C 
ATOM      4  C   UNL     1      -9.465  15.329  67.887  0.00  0.00    +0.007 C 
BRANCH   4   5
ATOM      5  C   UNL     1     -10.804  15.178  68.471  0.00  0.00    +0.000 A 
ATOM      6  C   UNL     1     -11.105  13.859  68.807  0.00  0.00    +0.003 A 
ATOM      7  C   UNL     1     -11.960  13.550  69.852  0.00  0.00    +0.037 A 
ATOM      8  C   UNL     1     -12.494  14.530  70.638  0.00  0.00    +0.139 A 
ATOM      9  C   UNL     1     -12.059  15.826  70.445  0.00  0.00    +0.037 A 
ATOM     10  C   UNL     1     -11.094  16.069  69.501  0.00  0.00    +0.003 A 
BRANCH   8  11
ATOM     11  O   UNL     1     -13.700  14.328  71.322  0.00  0.00    -0.471 OA
ATOM     12  C   UNL     1     -14.162  15.337  72.218  0.00  0.00    +0.252 C 
ENDBRANCH   8  11
ENDBRANCH   4   5
ENDBRANCH   1   3
BRANCH   1  13
ATOM     13  O   UNL     1     -10.638  15.116  64.722  0.00  0.00    -0.445 OA
BRANCH  13  14
ATOM     14  C   UNL     1     -11.462  13.985  64.837  0.00  0.00    +0.209 C 
BRANCH  14  15
ATOM     15  C   UNL     1     -10.320  12.805  64.843  0.00  0.00    +0.044 C 
BRANCH  15  16
ATOM     16  C   UNL     1     -10.868  12.154  63.441  0.00  0.00    +0.004 C 
ATOM     17  C   UNL     1     -12.373  12.149  63.666  0.00  0.00    +0.000 C 
ENDBRANCH  15  16
BRANCH  15  18
ATOM     18  C   UNL     1     -11.240  11.807  65.763  0.00  0.00    +0.004 C 
BRANCH  18  19
ATOM     19  C   UNL     1     -10.297  10.982  66.588  0.00  0.00    +0.000 C 
BRANCH  19  21
ATOM     20  C   UNL     1      -9.311   9.226  65.774  0.00  0.00    +0.000 C 
ATOM     21  C   UNL     1     -10.187   9.610  65.963  0.00  0.00    +0.000 C 
ENDBRANCH  19  21
ENDBRANCH  18  19
ENDBRANCH  15  18
ENDBRANCH  14  15
ENDBRANCH  13  14
ENDBRANCH   1  13
TORSDOF 10
ENDMDL
MODEL 4
REMARK VINA RESULT:      -5.4      2.622      4.374
REMARK  Name = 
REMARK  10 active torsions:
REMARK  status: ('A' for Active; 'I' for Inactive)
REMARK    1  A    between atoms: C_2  and  C_3
REMARK    2  A    between atoms: C_3  and  C_4
REMARK    3  A    between atoms: C_4  and  C_5
REMARK    4  A    between atoms: C_5  and  C_6
REMARK    5  A    between atoms: C_5  and  C_8
REMARK    6  A    between atoms: C_8  and  O_9
REMARK    7  A    between atoms: O_9  and  C_10
REMARK    8  A    between atoms: C_10  and  C_12
REMARK    9  A    between atoms: C_13  and  C_14
REMARK   10  A    between atoms: C_17  and  O_18
REMARK                            x       y       z     vdW  Elec       q    Type
REMARK                         _______ _______ _______ _____ _____    ______ ____
ROOT
ATOM      1  C   UNL     1     -10.919  15.243  65.123  0.00  0.00    +0.341 C 
ATOM      2  O   UNL     1     -10.976  16.391  64.579  0.00  0.00    -0.245 OA
ENDROOT
BRANCH   1   3
ATOM      3  C   UNL     1     -12.161  14.458  65.131  0.00  0.00    +0.082 C 
ATOM      4  C   UNL     1     -12.205  13.164  64.958  0.00  0.00    +0.007 C 
BRANCH   4   5
ATOM      5  C   UNL     1     -10.964  12.404  64.757  0.00  0.00    +0.000 A 
ATOM      6  C   UNL     1     -10.745  11.450  65.749  0.00  0.00    +0.003 A 
ATOM      7  C   UNL     1     -10.051  10.278  65.493  0.00  0.00    +0.037 A 
ATOM      8  C   UNL     1      -9.609   9.983  64.235  0.00  0.00    +0.139 A 
ATOM      9  C   UNL     1      -9.982  10.819  63.203  0.00  0.00    +0.037 A 
ATOM     10  C   UNL     1     -10.799  11.887  63.475  0.00  0.00    +0.003 A 
BRANCH   8  11
ATOM     11  O   UNL     1      -8.515   9.130  64.039  0.00  0.00    -0.471 OA
ATOM     12  C   UNL     1      -7.197   9.670  64.121  0.00  0.00    +0.252 C 
ENDBRANCH   8  11
ENDBRANCH   4   5
ENDBRANCH   1   3
BRANCH   1  13
ATOM     13  O   UNL     1     -10.305  15.331  66.384  0.00  0.00    -0.445 OA
BRANCH  13  14
ATOM     14  C   UNL     1     -11.020  15.573  67.568  0.00  0.00    +0.209 C 
BRANCH  14  15
ATOM     15  C   UNL     1     -10.440  14.351  68.500  0.00  0.00    +0.044 C 
BRANCH  15  16
ATOM     16  C   UNL     1     -11.941  13.764  68.806  0.00  0.00    +0.004 C 
ATOM     17  C   UNL     1     -11.646  12.306  69.130  0.00  0.00    +0.000 C 
ENDBRANCH  15  16
BRANCH  15  18
ATOM     18  C   UNL     1     -10.436  15.277  69.854  0.00  0.00    +0.004 C 
BRANCH  18  19
ATOM     19  C   UNL     1     -11.838  15.775  70.046  0.00  0.00    +0.000 C 
BRANCH  19  21
ATOM     20  C   UNL     1     -11.771  15.341  72.173  0.00  0.00    +0.000 C 
ATOM     21  C   UNL     1     -12.066  16.004  71.523  0.00  0.00    +0.000 C 
ENDBRANCH  19  21
ENDBRANCH  18  19
ENDBRANCH  15  18
ENDBRANCH  14  15
ENDBRANCH  13  14
ENDBRANCH   1  13
TORSDOF 10
ENDMDL
MODEL 5
REMARK VINA RESULT:      -5.4      2.629      4.613
REMARK  Name = 
REMARK  10 active torsions:
REMARK  status: ('A' for Active; 'I' for Inactive)
REMARK    1  A    between atoms: C_2  and  C_3
REMARK    2  A    between atoms: C_3  and  C_4
REMARK    3  A    between atoms: C_4  and  C_5
REMARK    4  A    between atoms: C_5  and  C_6
REMARK    5  A    between atoms: C_5  and  C_8
REMARK    6  A    between atoms: C_8  and  O_9
REMARK    7  A    between atoms: O_9  and  C_10
REMARK    8  A    between atoms: C_10  and  C_12
REMARK    9  A    between atoms: C_13  and  C_14
REMARK   10  A    between atoms: C_17  and  O_18
REMARK                            x       y       z     vdW  Elec       q    Type
REMARK                         _______ _______ _______ _____ _____    ______ ____
ROOT
ATOM      1  C   UNL     1     -11.122  15.534  64.822  0.00  0.00    +0.341 C 
ATOM      2  O   UNL     1     -11.263  16.623  64.181  0.00  0.00    -0.245 OA
ENDROOT
BRANCH   1   3
ATOM      3  C   UNL     1     -12.343  14.753  65.066  0.00  0.00    +0.082 C 
ATOM      4  C   UNL     1     -12.385  13.447  65.060  0.00  0.00    +0.007 C 
BRANCH   4   5
ATOM      5  C   UNL     1     -11.161  12.672  64.815  0.00  0.00    +0.000 A 
ATOM      6  C   UNL     1     -10.854  11.799  65.858  0.00  0.00    +0.003 A 
ATOM      7  C   UNL     1     -10.179  10.609  65.638  0.00  0.00    +0.037 A 
ATOM      8  C   UNL     1      -9.844  10.213  64.375  0.00  0.00    +0.139 A 
ATOM      9  C   UNL     1     -10.306  10.966  63.315  0.00  0.00    +0.037 A 
ATOM     10  C   UNL     1     -11.103  12.053  63.570  0.00  0.00    +0.003 A 
BRANCH   8  11
ATOM     11  O   UNL     1      -8.766   9.346  64.155  0.00  0.00    -0.471 OA
ATOM     12  C   UNL     1      -8.474   8.934  62.821  0.00  0.00    +0.252 C 
ENDBRANCH   8  11
ENDBRANCH   4   5
ENDBRANCH   1   3
BRANCH   1  13
ATOM     13  O   UNL     1     -10.353  15.745  65.978  0.00  0.00    -0.445 OA
BRANCH  13  14
ATOM     14  C   UNL     1      -9.806  16.993  66.318  0.00  0.00    +0.209 C 
BRANCH  14  15
ATOM     15  C   UNL     1     -10.765  17.382  67.592  0.00  0.00    +0.044 C 
BRANCH  15  16
ATOM     16  C   UNL     1      -9.594  18.287  68.302  0.00  0.00    +0.004 C 
ATOM     17  C   UNL     1     -10.081  19.701  68.025  0.00  0.00    +0.000 C 
ENDBRANCH  15  16
BRANCH  15  18
ATOM     18  C   UNL     1     -10.344  16.034  68.425  0.00  0.00    +0.004 C 
BRANCH  18  19
ATOM     19  C   UNL     1     -11.555  15.603  69.199  0.00  0.00    +0.000 C 
BRANCH  19  21
ATOM     20  C   UNL     1     -11.508  13.434  69.100  0.00  0.00    +0.000 C 
ATOM     21  C   UNL     1     -11.953  14.221  68.734  0.00  0.00    +0.000 C 
ENDBRANCH  19  21
ENDBRANCH  18  19
ENDBRANCH  15  18
ENDBRANCH  14  15
ENDBRANCH  13  14
ENDBRANCH   1  13
TORSDOF 10
ENDMDL
MODEL 6
REMARK VINA RESULT:      -5.4      2.252      6.336
REMARK  Name = 
REMARK  10 active torsions:
REMARK  status: ('A' for Active; 'I' for Inactive)
REMARK    1  A    between atoms: C_2  and  C_3
REMARK    2  A    between atoms: C_3  and  C_4
REMARK    3  A    between atoms: C_4  and  C_5
REMARK    4  A    between atoms: C_5  and  C_6
REMARK    5  A    between atoms: C_5  and  C_8
REMARK    6  A    between atoms: C_8  and  O_9
REMARK    7  A    between atoms: O_9  and  C_10
REMARK    8  A    between atoms: C_10  and  C_12
REMARK    9  A    between atoms: C_13  and  C_14
REMARK   10  A    between atoms: C_17  and  O_18
REMARK                            x       y       z     vdW  Elec       q    Type
REMARK                         _______ _______ _______ _____ _____    ______ ____
ROOT
ATOM      1  C   UNL     1      -9.586  11.872  68.328  0.00  0.00    +0.341 C 
ATOM      2  O   UNL     1      -8.570  11.197  68.688  0.00  0.00    -0.245 OA
ENDROOT
BRANCH   1   3
ATOM      3  C   UNL     1     -10.806  11.111  68.024  0.00  0.00    +0.082 C 
ATOM      4  C   UNL     1     -11.871  11.111  68.780  0.00  0.00    +0.007 C 
BRANCH   4   5
ATOM      5  C   UNL     1     -11.903  11.917  70.008  0.00  0.00    +0.000 A 
ATOM      6  C   UNL     1     -12.173  13.264  69.766  0.00  0.00    +0.003 A 
ATOM      7  C   UNL     1     -12.825  14.055  70.698  0.00  0.00    +0.037 A 
ATOM      8  C   UNL     1     -13.289  13.527  71.868  0.00  0.00    +0.139 A 
ATOM      9  C   UNL     1     -13.204  12.161  72.043  0.00  0.00    +0.037 A 
ATOM     10  C   UNL     1     -12.691  11.392  71.029  0.00  0.00    +0.003 A 
BRANCH   8  11
ATOM     11  O   UNL     1     -13.467  14.333  73.000  0.00  0.00    -0.471 OA
ATOM     12  C   UNL     1     -12.373  15.123  73.463  0.00  0.00    +0.252 C 
ENDBRANCH   8  11
ENDBRANCH   4   5
ENDBRANCH   1   3
BRANCH   1  13
ATOM     13  O   UNL     1      -9.232  12.786  67.322  0.00  0.00    -0.445 OA
BRANCH  13  14
ATOM     14  C   UNL     1      -9.747  14.091  67.257  0.00  0.00    +0.209 C 
BRANCH  14  15
ATOM     15  C   UNL     1     -10.217  14.129  65.684  0.00  0.00    +0.044 C 
BRANCH  15  16
ATOM     16  C   UNL     1     -10.104  15.764  65.605  0.00  0.00    +0.004 C 
ATOM     17  C   UNL     1     -10.390  16.167  67.045  0.00  0.00    +0.000 C 
ENDBRANCH  15  16
BRANCH  15  18
ATOM     18  C   UNL     1     -11.808  14.175  66.075  0.00  0.00    +0.004 C 
BRANCH  18  19
ATOM     19  C   UNL     1     -12.448  12.973  65.444  0.00  0.00    +0.000 C 
BRANCH  19  21
ATOM     20  C   UNL     1     -12.327  12.180  63.425  0.00  0.00    +0.000 C 
ATOM     21  C   UNL     1     -12.010  12.902  63.998  0.00  0.00    +0.000 C 
ENDBRANCH  19  21
ENDBRANCH  18  19
ENDBRANCH  15  18
ENDBRANCH  14  15
ENDBRANCH  13  14
ENDBRANCH   1  13
TORSDOF 10
ENDMDL
MODEL 7
REMARK VINA RESULT:      -5.4      3.879      6.756
REMARK  Name = 
REMARK  10 active torsions:
REMARK  status: ('A' for Active; 'I' for Inactive)
REMARK    1  A    between atoms: C_2  and  C_3
REMARK    2  A    between atoms: C_3  and  C_4
REMARK    3  A    between atoms: C_4  and  C_5
REMARK    4  A    between atoms: C_5  and  C_6
REMARK    5  A    between atoms: C_5  and  C_8
REMARK    6  A    between atoms: C_8  and  O_9
REMARK    7  A    between atoms: O_9  and  C_10
REMARK    8  A    between atoms: C_10  and  C_12
REMARK    9  A    between atoms: C_13  and  C_14
REMARK   10  A    between atoms: C_17  and  O_18
REMARK                            x       y       z     vdW  Elec       q    Type
REMARK                         _______ _______ _______ _____ _____    ______ ____
ROOT
ATOM      1  C   UNL     1     -10.187  18.172  68.167  0.00  0.00    +0.341 C 
ATOM      2  O   UNL     1     -11.016  18.904  67.539  0.00  0.00    -0.245 OA
ENDROOT
BRANCH   1   3
ATOM      3  C   UNL     1      -9.123  17.549  67.366  0.00  0.00    +0.082 C 
ATOM      4  C   UNL     1      -7.864  17.888  67.439  0.00  0.00    +0.007 C 
BRANCH   4   5
ATOM      5  C   UNL     1      -7.436  18.937  68.374  0.00  0.00    +0.000 A 
ATOM      6  C   UNL     1      -6.645  18.448  69.413  0.00  0.00    +0.003 A 
ATOM      7  C   UNL     1      -5.675  19.229  70.020  0.00  0.00    +0.037 A 
ATOM      8  C   UNL     1      -5.411  20.493  69.578  0.00  0.00    +0.139 A 
ATOM      9  C   UNL     1      -6.045  20.926  68.432  0.00  0.00    +0.037 A 
ATOM     10  C   UNL     1      -6.884  20.064  67.771  0.00  0.00    +0.003 A 
BRANCH   8  11
ATOM     11  O   UNL     1      -4.855  21.453  70.434  0.00  0.00    -0.471 OA
ATOM     12  C   UNL     1      -4.314  21.031  71.685  0.00  0.00    +0.252 C 
ENDBRANCH   8  11
ENDBRANCH   4   5
ENDBRANCH   1   3
BRANCH   1  13
ATOM     13  O   UNL     1     -10.867  17.265  68.996  0.00  0.00    -0.445 OA
BRANCH  13  14
ATOM     14  C   UNL     1     -11.296  16.001  68.558  0.00  0.00    +0.209 C 
BRANCH  14  15
ATOM     15  C   UNL     1     -10.936  15.107  69.888  0.00  0.00    +0.044 C 
BRANCH  15  16
ATOM     16  C   UNL     1     -11.993  13.922  69.477  0.00  0.00    +0.004 C 
ATOM     17  C   UNL     1     -11.864  13.899  67.961  0.00  0.00    +0.000 C 
ENDBRANCH  15  16
BRANCH  15  18
ATOM     18  C   UNL     1     -12.043  15.888  70.812  0.00  0.00    +0.004 C 
BRANCH  18  19
ATOM     19  C   UNL     1     -11.807  15.459  72.231  0.00  0.00    +0.000 C 
BRANCH  19  21
ATOM     20  C   UNL     1     -13.951  15.588  72.553  0.00  0.00    +0.000 C 
ATOM     21  C   UNL     1     -13.143  15.138  72.862  0.00  0.00    +0.000 C 
ENDBRANCH  19  21
ENDBRANCH  18  19
ENDBRANCH  15  18
ENDBRANCH  14  15
ENDBRANCH  13  14
ENDBRANCH   1  13
TORSDOF 10
ENDMDL
MODEL 8
REMARK VINA RESULT:      -5.4      3.504      5.562
REMARK  Name = 
REMARK  10 active torsions:
REMARK  status: ('A' for Active; 'I' for Inactive)
REMARK    1  A    between atoms: C_2  and  C_3
REMARK    2  A    between atoms: C_3  and  C_4
REMARK    3  A    between atoms: C_4  and  C_5
REMARK    4  A    between atoms: C_5  and  C_6
REMARK    5  A    between atoms: C_5  and  C_8
REMARK    6  A    between atoms: C_8  and  O_9
REMARK    7  A    between atoms: O_9  and  C_10
REMARK    8  A    between atoms: C_10  and  C_12
REMARK    9  A    between atoms: C_13  and  C_14
REMARK   10  A    between atoms: C_17  and  O_18
REMARK                            x       y       z     vdW  Elec       q    Type
REMARK                         _______ _______ _______ _____ _____    ______ ____
ROOT
ATOM      1  C   UNL     1     -11.222  15.540  64.758  0.00  0.00    +0.341 C 
ATOM      2  O   UNL     1     -11.337  16.614  64.088  0.00  0.00    -0.245 OA
ENDROOT
BRANCH   1   3
ATOM      3  C   UNL     1     -12.435  14.722  64.900  0.00  0.00    +0.082 C 
ATOM      4  C   UNL     1     -12.439  13.415  64.876  0.00  0.00    +0.007 C 
BRANCH   4   5
ATOM      5  C   UNL     1     -11.179  12.677  64.716  0.00  0.00    +0.000 A 
ATOM      6  C   UNL     1     -10.899  11.841  65.796  0.00  0.00    +0.003 A 
ATOM      7  C   UNL     1     -10.174  10.671  65.641  0.00  0.00    +0.037 A 
ATOM      8  C   UNL     1      -9.759  10.256  64.409  0.00  0.00    +0.139 A 
ATOM      9  C   UNL     1     -10.190  10.966  63.307  0.00  0.00    +0.037 A 
ATOM     10  C   UNL     1     -11.035  12.031  63.491  0.00  0.00    +0.003 A 
BRANCH   8  11
ATOM     11  O   UNL     1      -8.643   9.421  64.268  0.00  0.00    -0.471 OA
ATOM     12  C   UNL     1      -8.400   8.803  63.005  0.00  0.00    +0.252 C 
ENDBRANCH   8  11
ENDBRANCH   4   5
ENDBRANCH   1   3
BRANCH   1  13
ATOM     13  O   UNL     1     -10.571  15.791  65.977  0.00  0.00    -0.445 OA
BRANCH  13  14
ATOM     14  C   UNL     1      -9.183  15.975  66.081  0.00  0.00    +0.209 C 
BRANCH  14  15
ATOM     15  C   UNL     1      -9.044  16.141  67.709  0.00  0.00    +0.044 C 
BRANCH  15  16
ATOM     16  C   UNL     1      -9.947  14.804  68.004  0.00  0.00    +0.004 C 
ATOM     17  C   UNL     1      -8.877  13.744  68.219  0.00  0.00    +0.000 C 
ENDBRANCH  15  16
BRANCH  15  18
ATOM     18  C   UNL     1     -10.341  17.139  67.801  0.00  0.00    +0.004 C 
BRANCH  18  19
ATOM     19  C   UNL     1      -9.819  18.503  68.142  0.00  0.00    +0.000 C 
BRANCH  19  21
ATOM     20  C   UNL     1     -10.565  19.403  66.312  0.00  0.00    +0.000 C 
ATOM     21  C   UNL     1     -10.532  19.519  67.279  0.00  0.00    +0.000 C 
ENDBRANCH  19  21
ENDBRANCH  18  19
ENDBRANCH  15  18
ENDBRANCH  14  15
ENDBRANCH  13  14
ENDBRANCH   1  13
TORSDOF 10
ENDMDL
MODEL 9
REMARK VINA RESULT:      -5.4      2.581      4.876
REMARK  Name = 
REMARK  10 active torsions:
REMARK  status: ('A' for Active; 'I' for Inactive)
REMARK    1  A    between atoms: C_2  and  C_3
REMARK    2  A    between atoms: C_3  and  C_4
REMARK    3  A    between atoms: C_4  and  C_5
REMARK    4  A    between atoms: C_5  and  C_6
REMARK    5  A    between atoms: C_5  and  C_8
REMARK    6  A    between atoms: C_8  and  O_9
REMARK    7  A    between atoms: O_9  and  C_10
REMARK    8  A    between atoms: C_10  and  C_12
REMARK    9  A    between atoms: C_13  and  C_14
REMARK   10  A    between atoms: C_17  and  O_18
REMARK                            x       y       z     vdW  Elec       q    Type
REMARK                         _______ _______ _______ _____ _____    ______ ____
ROOT
ATOM      1  C   UNL     1     -11.303  16.173  68.971  0.00  0.00    +0.341 C 
ATOM      2  O   UNL     1     -12.307  15.994  69.732  0.00  0.00    -0.245 OA
ENDROOT
BRANCH   1   3
ATOM      3  C   UNL     1     -10.115  15.353  69.250  0.00  0.00    +0.082 C 
ATOM      4  C   UNL     1      -9.730  14.353  68.503  0.00  0.00    +0.007 C 
BRANCH   4   5
ATOM      5  C   UNL     1     -10.489  13.999  67.296  0.00  0.00    +0.000 A 
ATOM      6  C   UNL     1     -10.099  14.733  66.176  0.00  0.00    +0.003 A 
ATOM      7  C   UNL     1     -10.195  14.212  64.895  0.00  0.00    +0.037 A 
ATOM      8  C   UNL     1     -10.616  12.931  64.685  0.00  0.00    +0.139 A 
ATOM      9  C   UNL     1     -10.822  12.127  65.788  0.00  0.00    +0.037 A 
ATOM     10  C   UNL     1     -10.567  12.634  67.037  0.00  0.00    +0.003 A 
BRANCH   8  11
ATOM     11  O   UNL     1     -11.202  12.556  63.470  0.00  0.00    -0.471 OA
ATOM     12  C   UNL     1     -12.534  12.044  63.475  0.00  0.00    +0.252 C 
ENDBRANCH   8  11
ENDBRANCH   4   5
ENDBRANCH   1   3
BRANCH   1  13
ATOM     13  O   UNL     1     -11.021  17.543  68.849  0.00  0.00    -0.445 OA
BRANCH  13  14
ATOM     14  C   UNL     1     -10.389  18.098  67.725  0.00  0.00    +0.209 C 
BRANCH  14  15
ATOM     15  C   UNL     1      -9.453  19.230  68.460  0.00  0.00    +0.044 C 
BRANCH  15  16
ATOM     16  C   UNL     1      -9.881  20.397  67.388  0.00  0.00    +0.004 C 
ATOM     17  C   UNL     1     -10.197  19.578  66.144  0.00  0.00    +0.000 C 
ENDBRANCH  15  16
BRANCH  15  18
ATOM     18  C   UNL     1      -8.124  18.810  67.597  0.00  0.00    +0.004 C 
BRANCH  18  19
ATOM     19  C   UNL     1      -7.404  17.759  68.390  0.00  0.00    +0.000 C 
BRANCH  19  21
ATOM     20  C   UNL     1      -7.064  16.770  66.487  0.00  0.00    +0.000 C 
ATOM     21  C   UNL     1      -6.994  16.647  67.451  0.00  0.00    +0.000 C 
ENDBRANCH  19  21
ENDBRANCH  18  19
ENDBRANCH  15  18
ENDBRANCH  14  15
ENDBRANCH  13  14
ENDBRANCH   1  13
TORSDOF 10
ENDMDL
