MODEL 1
REMARK VINA RESULT:      -3.4      0.000      0.000
REMARK  Name = 
REMARK  0 active torsions:
REMARK  status: ('A' for Active; 'I' for Inactive)
REMARK                            x       y       z     vdW  Elec       q    Type
REMARK                         _______ _______ _______ _____ _____    ______ ____
ROOT
ATOM      1  C   UNL     1     -12.444  13.673  65.840  0.00  0.00    +0.058 C 
ATOM      2  C   UNL     1     -12.103  14.480  64.631  0.00  0.00    +0.087 C 
ATOM      3  N   UNL     1     -11.197  15.572  64.637  0.00  0.00    -0.203 NA
ATOM      4  O   UNL     1     -11.620  16.665  63.936  0.00  0.00    -0.403 OA
ATOM      5  O   UNL     1     -12.580  14.080  63.548  0.00  0.00    -0.540 OA
ENDROOT
TORSDOF 0
ENDMDL
MODEL 2
REMARK VINA RESULT:      -3.4      8.178      8.393
REMARK  Name = 
REMARK  0 active torsions:
REMARK  status: ('A' for Active; 'I' for Inactive)
REMARK                            x       y       z     vdW  Elec       q    Type
REMARK                         _______ _______ _______ _____ _____    ______ ____
ROOT
ATOM      1  C   UNL     1     -12.506  15.315  73.933  0.00  0.00    +0.058 C 
ATOM      2  C   UNL     1     -13.391  14.857  72.821  0.00  0.00    +0.087 C 
ATOM      3  N   UNL     1     -13.854  15.700  71.778  0.00  0.00    -0.203 NA
ATOM      4  O   UNL     1     -15.175  15.547  71.467  0.00  0.00    -0.403 OA
ATOM      5  O   UNL     1     -13.635  13.633  72.779  0.00  0.00    -0.540 OA
ENDROOT
TORSDOF 0
ENDMDL
MODEL 3
REMARK VINA RESULT:      -3.3      8.870      9.142
REMARK  Name = 
REMARK  0 active torsions:
REMARK  status: ('A' for Active; 'I' for Inactive)
REMARK                            x       y       z     vdW  Elec       q    Type
REMARK                         _______ _______ _______ _____ _____    ______ ____
ROOT
ATOM      1  C   UNL     1     -13.622  13.736  72.397  0.00  0.00    +0.058 C 
ATOM      2  C   UNL     1     -13.340  15.054  73.039  0.00  0.00    +0.087 C 
ATOM      3  N   UNL     1     -12.250  15.292  73.915  0.00  0.00    -0.203 NA
ATOM      4  O   UNL     1     -12.564  16.020  75.027  0.00  0.00    -0.403 OA
ATOM      5  O   UNL     1     -14.064  16.007  72.682  0.00  0.00    -0.540 OA
ENDROOT
TORSDOF 0
ENDMDL
MODEL 4
REMARK VINA RESULT:      -3.3      1.422      2.361
REMARK  Name = 
REMARK  0 active torsions:
REMARK  status: ('A' for Active; 'I' for Inactive)
REMARK                            x       y       z     vdW  Elec       q    Type
REMARK                         _______ _______ _______ _____ _____    ______ ____
ROOT
ATOM      1  C   UNL     1     -10.441  15.677  65.671  0.00  0.00    +0.058 C 
ATOM      2  C   UNL     1     -11.510  15.536  64.639  0.00  0.00    +0.087 C 
ATOM      3  N   UNL     1     -12.428  14.455  64.591  0.00  0.00    -0.203 NA
ATOM      4  O   UNL     1     -12.637  13.943  63.342  0.00  0.00    -0.403 OA
ATOM      5  O   UNL     1     -11.643  16.494  63.849  0.00  0.00    -0.540 OA
ENDROOT
TORSDOF 0
ENDMDL
MODEL 5
REMARK VINA RESULT:      -3.2      1.966      2.744
REMARK  Name = 
REMARK  0 active torsions:
REMARK  status: ('A' for Active; 'I' for Inactive)
REMARK                            x       y       z     vdW  Elec       q    Type
REMARK                         _______ _______ _______ _____ _____    ______ ____
ROOT
ATOM      1  C   UNL     1     -11.783  14.200  66.163  0.00  0.00    +0.058 C 
ATOM      2  C   UNL     1     -12.500  13.854  64.900  0.00  0.00    +0.087 C 
ATOM      3  N   UNL     1     -13.131  12.606  64.663  0.00  0.00    -0.203 NA
ATOM      4  O   UNL     1     -12.904  12.082  63.423  0.00  0.00    -0.403 OA
ATOM      5  O   UNL     1     -12.622  14.776  64.066  0.00  0.00    -0.540 OA
ENDROOT
TORSDOF 0
ENDMDL
MODEL 6
REMARK VINA RESULT:      -3.2     12.774     12.857
REMARK  Name = 
REMARK  0 active torsions:
REMARK  status: ('A' for Active; 'I' for Inactive)
REMARK                            x       y       z     vdW  Elec       q    Type
REMARK                         _______ _______ _______ _____ _____    ______ ____
ROOT
ATOM      1  C   UNL     1      -2.593  20.611  70.438  0.00  0.00    +0.058 C 
ATOM      2  C   UNL     1      -3.508  20.921  71.576  0.00  0.00    +0.087 C 
ATOM      3  N   UNL     1      -4.514  21.920  71.535  0.00  0.00    -0.203 NA
ATOM      4  O   UNL     1      -4.590  22.696  72.656  0.00  0.00    -0.403 OA
ATOM      5  O   UNL     1      -3.425  20.169  72.570  0.00  0.00    -0.540 OA
ENDROOT
TORSDOF 0
ENDMDL
MODEL 7
REMARK VINA RESULT:      -3.2      2.373      2.661
REMARK  Name = 
REMARK  0 active torsions:
REMARK  status: ('A' for Active; 'I' for Inactive)
REMARK                            x       y       z     vdW  Elec       q    Type
REMARK                         _______ _______ _______ _____ _____    ______ ____
ROOT
ATOM      1  C   UNL     1     -10.747  12.060  63.456  0.00  0.00    +0.058 C 
ATOM      2  C   UNL     1     -12.101  12.639  63.702  0.00  0.00    +0.087 C 
ATOM      3  N   UNL     1     -12.326  13.958  64.175  0.00  0.00    -0.203 NA
ATOM      4  O   UNL     1     -13.276  14.057  65.150  0.00  0.00    -0.403 OA
ATOM      5  O   UNL     1     -13.073  11.931  63.364  0.00  0.00    -0.540 OA
ENDROOT
TORSDOF 0
ENDMDL
MODEL 8
REMARK VINA RESULT:      -3.1      1.498      1.584
REMARK  Name = 
REMARK  0 active torsions:
REMARK  status: ('A' for Active; 'I' for Inactive)
REMARK                            x       y       z     vdW  Elec       q    Type
REMARK                         _______ _______ _______ _____ _____    ______ ____
ROOT
ATOM      1  C   UNL     1     -12.083  12.876  63.938  0.00  0.00    +0.058 C 
ATOM      2  C   UNL     1     -11.990  14.250  64.513  0.00  0.00    +0.087 C 
ATOM      3  N   UNL     1     -12.532  15.406  63.896  0.00  0.00    -0.203 NA
ATOM      4  O   UNL     1     -11.711  16.497  63.912  0.00  0.00    -0.403 OA
ATOM      5  O   UNL     1     -11.490  14.336  65.655  0.00  0.00    -0.540 OA
ENDROOT
TORSDOF 0
ENDMDL
MODEL 9
REMARK VINA RESULT:      -3.1      2.346      2.543
REMARK  Name = 
REMARK  0 active torsions:
REMARK  status: ('A' for Active; 'I' for Inactive)
REMARK                            x       y       z     vdW  Elec       q    Type
REMARK                         _______ _______ _______ _____ _____    ______ ____
ROOT
ATOM      1  C   UNL     1     -10.067  16.725  66.598  0.00  0.00    +0.058 C 
ATOM      2  C   UNL     1     -10.544  16.095  65.331  0.00  0.00    +0.087 C 
ATOM      3  N   UNL     1     -11.240  16.794  64.312  0.00  0.00    -0.203 NA
ATOM      4  O   UNL     1     -12.314  16.126  63.797  0.00  0.00    -0.403 OA
ATOM      5  O   UNL     1     -10.203  14.908  65.143  0.00  0.00    -0.540 OA
ENDROOT
TORSDOF 0
ENDMDL
