MODEL 1
REMARK VINA RESULT:      -4.2      0.000      0.000
REMARK  Name = 
REMARK  1 active torsions:
REMARK  status: ('A' for Active; 'I' for Inactive)
REMARK    1  A    between atoms: C_2  and  CA_4
REMARK                            x       y       z     vdW  Elec       q    Type
REMARK                         _______ _______ _______ _____ _____    ______ ____
ROOT
ATOM      1  CA  HYP A   1     -10.739  14.229  64.581  0.00  0.00    +0.178 C 
ATOM      2  N   HYP A   1     -12.247  13.749  64.516  0.00  0.00    -0.206 NA
ATOM      3  CD  HYP A   1     -12.779  14.071  65.719  0.00  0.00    +0.122 C 
ATOM      4  CG  HYP A   1     -11.819  13.029  66.594  0.00  0.00    +0.171 C 
ATOM      5  OD  HYP A   1     -11.682  11.961  65.491  0.00  0.00    -0.222 OA
ATOM      6  CB  HYP A   1     -10.465  13.852  66.157  0.00  0.00    +0.063 C 
ENDROOT
BRANCH   1   8
ATOM      7  O   HYP A   1      -9.986  16.246  65.371  0.00  0.00    -0.244 OA
ATOM      8  C   HYP A   1     -11.100  15.789  64.940  0.00  0.00    +0.380 C 
ATOM      9  OXT HYP A   1     -11.550  16.576  63.909  0.00  0.00    -0.244 OA
ENDBRANCH   1   8
TORSDOF 1
ENDMDL
MODEL 2
REMARK VINA RESULT:      -4.1      1.617      2.277
REMARK  Name = 
REMARK  1 active torsions:
REMARK  status: ('A' for Active; 'I' for Inactive)
REMARK    1  A    between atoms: C_2  and  CA_4
REMARK                            x       y       z     vdW  Elec       q    Type
REMARK                         _______ _______ _______ _____ _____    ______ ____
ROOT
ATOM      1  CA  HYP A   1     -12.776  14.086  65.538  0.00  0.00    +0.178 C 
ATOM      2  N   HYP A   1     -11.506  14.195  66.478  0.00  0.00    -0.206 NA
ATOM      3  CD  HYP A   1     -10.531  13.501  65.847  0.00  0.00    +0.122 C 
ATOM      4  CG  HYP A   1     -11.288  12.024  65.972  0.00  0.00    +0.171 C 
ATOM      5  OD  HYP A   1     -12.003  12.315  67.306  0.00  0.00    -0.222 OA
ATOM      6  CB  HYP A   1     -12.534  12.541  65.033  0.00  0.00    +0.063 C 
ENDROOT
BRANCH   1   8
ATOM      7  O   HYP A   1     -12.538  14.036  63.258  0.00  0.00    -0.244 OA
ATOM      8  C   HYP A   1     -12.031  14.713  64.217  0.00  0.00    +0.380 C 
ATOM      9  OXT HYP A   1     -12.213  16.053  63.979  0.00  0.00    -0.244 OA
ENDBRANCH   1   8
TORSDOF 1
ENDMDL
MODEL 3
REMARK VINA RESULT:      -4.0      6.164      7.073
REMARK  Name = 
REMARK  1 active torsions:
REMARK  status: ('A' for Active; 'I' for Inactive)
REMARK    1  A    between atoms: C_2  and  CA_4
REMARK                            x       y       z     vdW  Elec       q    Type
REMARK                         _______ _______ _______ _____ _____    ______ ____
ROOT
ATOM      1  CA  HYP A   1     -13.599  14.464  71.024  0.00  0.00    +0.178 C 
ATOM      2  N   HYP A   1     -12.904  15.872  71.230  0.00  0.00    -0.206 NA
ATOM      3  CD  HYP A   1     -11.908  15.654  72.121  0.00  0.00    +0.122 C 
ATOM      4  CG  HYP A   1     -12.916  15.251  73.383  0.00  0.00    +0.171 C 
ATOM      5  OD  HYP A   1     -14.087  16.160  72.959  0.00  0.00    -0.222 OA
ATOM      6  CB  HYP A   1     -13.466  13.931  72.572  0.00  0.00    +0.063 C 
ENDROOT
BRANCH   1   8
ATOM      7  O   HYP A   1     -12.452  12.481  70.904  0.00  0.00    -0.244 OA
ATOM      8  C   HYP A   1     -12.226  13.693  70.562  0.00  0.00    +0.380 C 
ATOM      9  OXT HYP A   1     -11.905  13.739  69.228  0.00  0.00    -0.244 OA
ENDBRANCH   1   8
TORSDOF 1
ENDMDL
MODEL 4
REMARK VINA RESULT:      -4.0      1.291      2.062
REMARK  Name = 
REMARK  1 active torsions:
REMARK  status: ('A' for Active; 'I' for Inactive)
REMARK    1  A    between atoms: C_2  and  CA_4
REMARK                            x       y       z     vdW  Elec       q    Type
REMARK                         _______ _______ _______ _____ _____    ______ ____
ROOT
ATOM      1  CA  HYP A   1     -11.610  14.869  65.807  0.00  0.00    +0.178 C 
ATOM      2  N   HYP A   1     -10.676  13.591  65.858  0.00  0.00    -0.206 NA
ATOM      3  CD  HYP A   1     -10.418  13.283  64.565  0.00  0.00    +0.122 C 
ATOM      4  CG  HYP A   1     -11.993  12.903  64.181  0.00  0.00    +0.171 C 
ATOM      5  OD  HYP A   1     -12.383  12.377  65.576  0.00  0.00    -0.222 OA
ATOM      6  CB  HYP A   1     -12.476  14.446  64.476  0.00  0.00    +0.063 C 
ENDROOT
BRANCH   1   8
ATOM      7  O   HYP A   1     -11.339  16.575  64.297  0.00  0.00    -0.244 OA
ATOM      8  C   HYP A   1     -10.563  15.778  64.929  0.00  0.00    +0.380 C 
ATOM      9  OXT HYP A   1      -9.632  16.504  65.629  0.00  0.00    -0.244 OA
ENDBRANCH   1   8
TORSDOF 1
ENDMDL
MODEL 5
REMARK VINA RESULT:      -4.0      6.090      7.038
REMARK  Name = 
REMARK  1 active torsions:
REMARK  status: ('A' for Active; 'I' for Inactive)
REMARK    1  A    between atoms: C_2  and  CA_4
REMARK                            x       y       z     vdW  Elec       q    Type
REMARK                         _______ _______ _______ _____ _____    ______ ____
ROOT
ATOM      1  CA  HYP A   1     -13.396  15.458  71.471  0.00  0.00    +0.178 C 
ATOM      2  N   HYP A   1     -13.021  14.617  70.183  0.00  0.00    -0.206 NA
ATOM      3  CD  HYP A   1     -11.790  14.112  70.429  0.00  0.00    +0.122 C 
ATOM      4  CG  HYP A   1     -11.023  15.589  70.469  0.00  0.00    +0.171 C 
ATOM      5  OD  HYP A   1     -11.949  16.285  69.452  0.00  0.00    -0.222 OA
ATOM      6  CB  HYP A   1     -11.895  16.048  71.784  0.00  0.00    +0.063 C 
ENDROOT
BRANCH   1   8
ATOM      7  O   HYP A   1     -13.055  14.801  73.642  0.00  0.00    -0.244 OA
ATOM      8  C   HYP A   1     -13.205  14.209  72.519  0.00  0.00    +0.380 C 
ATOM      9  OXT HYP A   1     -14.238  13.309  72.609  0.00  0.00    -0.244 OA
ENDBRANCH   1   8
TORSDOF 1
ENDMDL
MODEL 6
REMARK VINA RESULT:      -4.0      1.905      3.148
REMARK  Name = 
REMARK  1 active torsions:
REMARK  status: ('A' for Active; 'I' for Inactive)
REMARK    1  A    between atoms: C_2  and  CA_4
REMARK                            x       y       z     vdW  Elec       q    Type
REMARK                         _______ _______ _______ _____ _____    ______ ____
ROOT
ATOM      1  CA  HYP A   1     -12.031  12.627  65.292  0.00  0.00    +0.178 C 
ATOM      2  N   HYP A   1     -12.901  13.950  65.253  0.00  0.00    -0.206 NA
ATOM      3  CD  HYP A   1     -12.214  14.808  64.463  0.00  0.00    +0.122 C 
ATOM      4  CG  HYP A   1     -10.904  14.940  65.481  0.00  0.00    +0.171 C 
ATOM      5  OD  HYP A   1     -11.691  14.747  66.792  0.00  0.00    -0.222 OA
ATOM      6  CB  HYP A   1     -10.553  13.345  65.296  0.00  0.00    +0.063 C 
ENDROOT
BRANCH   1   8
ATOM      7  O   HYP A   1     -10.967  11.702  63.483  0.00  0.00    -0.244 OA
ATOM      8  C   HYP A   1     -12.009  12.421  63.664  0.00  0.00    +0.380 C 
ATOM      9  OXT HYP A   1     -13.097  11.801  63.102  0.00  0.00    -0.244 OA
ENDBRANCH   1   8
TORSDOF 1
ENDMDL
MODEL 7
REMARK VINA RESULT:      -3.9      6.022      6.413
REMARK  Name = 
REMARK  1 active torsions:
REMARK  status: ('A' for Active; 'I' for Inactive)
REMARK    1  A    between atoms: C_2  and  CA_4
REMARK                            x       y       z     vdW  Elec       q    Type
REMARK                         _______ _______ _______ _____ _____    ______ ____
ROOT
ATOM      1  CA  HYP A   1     -11.742  14.812  71.264  0.00  0.00    +0.178 C 
ATOM      2  N   HYP A   1     -13.163  14.130  71.411  0.00  0.00    -0.206 NA
ATOM      3  CD  HYP A   1     -14.052  15.151  71.430  0.00  0.00    +0.122 C 
ATOM      4  CG  HYP A   1     -13.508  15.801  72.863  0.00  0.00    +0.171 C 
ATOM      5  OD  HYP A   1     -13.068  14.467  73.496  0.00  0.00    -0.222 OA
ATOM      6  CB  HYP A   1     -12.040  16.129  72.200  0.00  0.00    +0.063 C 
ENDROOT
BRANCH   1   8
ATOM      7  O   HYP A   1     -11.331  16.630  69.928  0.00  0.00    -0.244 OA
ATOM      8  C   HYP A   1     -12.111  15.617  69.882  0.00  0.00    +0.380 C 
ATOM      9  OXT HYP A   1     -11.921  14.945  68.701  0.00  0.00    -0.244 OA
ENDBRANCH   1   8
TORSDOF 1
ENDMDL
MODEL 8
REMARK VINA RESULT:      -3.9      1.700      2.946
REMARK  Name = 
REMARK  1 active torsions:
REMARK  status: ('A' for Active; 'I' for Inactive)
REMARK    1  A    between atoms: C_2  and  CA_4
REMARK                            x       y       z     vdW  Elec       q    Type
REMARK                         _______ _______ _______ _____ _____    ______ ____
ROOT
ATOM      1  CA  HYP A   1     -10.774  13.827  64.990  0.00  0.00    +0.178 C 
ATOM      2  N   HYP A   1     -10.663  13.565  66.547  0.00  0.00    -0.206 NA
ATOM      3  CD  HYP A   1     -11.339  14.582  67.132  0.00  0.00    +0.122 C 
ATOM      4  CG  HYP A   1     -10.301  15.776  66.613  0.00  0.00    +0.171 C 
ATOM      5  OD  HYP A   1      -9.030  14.905  66.618  0.00  0.00    -0.222 OA
ATOM      6  CB  HYP A   1     -10.673  15.466  65.042  0.00  0.00    +0.063 C 
ENDROOT
BRANCH   1   8
ATOM      7  O   HYP A   1     -12.671  14.582  63.944  0.00  0.00    -0.244 OA
ATOM      8  C   HYP A   1     -12.415  13.855  64.966  0.00  0.00    +0.380 C 
ATOM      9  OXT HYP A   1     -13.056  12.648  64.841  0.00  0.00    -0.244 OA
ENDBRANCH   1   8
TORSDOF 1
ENDMDL
MODEL 9
REMARK VINA RESULT:      -3.9      2.028      2.886
REMARK  Name = 
REMARK  1 active torsions:
REMARK  status: ('A' for Active; 'I' for Inactive)
REMARK    1  A    between atoms: C_2  and  CA_4
REMARK                            x       y       z     vdW  Elec       q    Type
REMARK                         _______ _______ _______ _____ _____    ______ ____
ROOT
ATOM      1  CA  HYP A   1     -12.243  14.048  66.327  0.00  0.00    +0.178 C 
ATOM      2  N   HYP A   1     -10.823  14.744  66.244  0.00  0.00    -0.206 NA
ATOM      3  CD  HYP A   1      -9.971  13.773  65.839  0.00  0.00    +0.122 C 
ATOM      4  CG  HYP A   1     -10.141  12.840  67.208  0.00  0.00    +0.171 C 
ATOM      5  OD  HYP A   1     -10.391  14.010  68.178  0.00  0.00    -0.222 OA
ATOM      6  CB  HYP A   1     -11.732  12.588  66.883  0.00  0.00    +0.063 C 
ENDROOT
BRANCH   1   8
ATOM      7  O   HYP A   1     -13.070  12.560  64.790  0.00  0.00    -0.244 OA
ATOM      8  C   HYP A   1     -12.245  13.537  64.768  0.00  0.00    +0.380 C 
ATOM      9  OXT HYP A   1     -12.637  14.446  63.816  0.00  0.00    -0.244 OA
ENDBRANCH   1   8
TORSDOF 1
ENDMDL
