MODEL 1
REMARK VINA RESULT:      -5.8      0.000      0.000
REMARK  Name = 
REMARK  1 active torsions:
REMARK  status: ('A' for Active; 'I' for Inactive)
REMARK    1  A    between atoms: C_6  and  C_7
REMARK                            x       y       z     vdW  Elec       q    Type
REMARK                         _______ _______ _______ _____ _____    ______ ____
ROOT
ATOM      1  C   UNL     1      -9.990  19.451  66.311  0.00  0.00    +0.160 C 
ATOM      2  N   UNL     1     -10.512  18.135  66.039  0.00  0.00    -0.182 N 
ATOM      3  C   UNL     1     -10.594  17.234  67.048  0.00  0.00    +0.355 A 
ATOM      4  O   UNL     1     -10.739  17.619  68.244  0.00  0.00    -0.244 OA
ATOM      5  N   UNL     1     -10.685  15.921  66.813  0.00  0.00    -0.222 N 
ATOM      6  C   UNL     1     -10.822  15.520  65.526  0.00  0.00    +0.198 A 
ATOM      7  C   UNL     1     -11.113  14.162  65.565  0.00  0.00    +0.176 A 
ATOM      8  N   UNL     1     -10.954  13.787  66.857  0.00  0.00    -0.217 NA
ATOM      9  N   UNL     1     -11.008  16.468  64.602  0.00  0.00    -0.110 NA
ATOM     10  C   UNL     1     -10.965  14.885  67.631  0.00  0.00    +0.188 A 
ATOM     11  N   UNL     1     -11.022  17.771  64.877  0.00  0.00    -0.059 NA
ENDROOT
BRANCH   7  12
ATOM     12  C   UNL     1     -11.715  13.378  64.480  0.00  0.00    +0.305 C 
ATOM     13  O   UNL     1     -10.902  12.734  63.751  0.00  0.00    -0.265 OA
ATOM     14  N   UNL     1     -12.920  12.686  64.825  0.00  0.00    -0.082 NA
ENDBRANCH   7  12
TORSDOF 1
ENDMDL
MODEL 2
REMARK VINA RESULT:      -5.4      2.254      4.086
REMARK  Name = 
REMARK  1 active torsions:
REMARK  status: ('A' for Active; 'I' for Inactive)
REMARK    1  A    between atoms: C_6  and  C_7
REMARK                            x       y       z     vdW  Elec       q    Type
REMARK                         _______ _______ _______ _____ _____    ______ ____
ROOT
ATOM      1  C   UNL     1     -12.059  12.384  70.196  0.00  0.00    +0.160 C 
ATOM      2  N   UNL     1     -11.795  12.530  68.786  0.00  0.00    -0.182 N 
ATOM      3  C   UNL     1     -11.397  13.734  68.309  0.00  0.00    +0.355 A 
ATOM      4  O   UNL     1     -10.762  14.541  69.047  0.00  0.00    -0.244 OA
ATOM      5  N   UNL     1     -11.513  14.051  67.014  0.00  0.00    -0.222 N 
ATOM      6  C   UNL     1     -11.927  13.081  66.163  0.00  0.00    +0.198 A 
ATOM      7  C   UNL     1     -11.755  13.585  64.880  0.00  0.00    +0.176 A 
ATOM      8  N   UNL     1     -11.423  14.888  65.035  0.00  0.00    -0.217 NA
ATOM      9  N   UNL     1     -12.042  11.842  66.651  0.00  0.00    -0.110 NA
ATOM     10  C   UNL     1     -11.020  15.085  66.302  0.00  0.00    +0.188 A 
ATOM     11  N   UNL     1     -11.815  11.529  67.925  0.00  0.00    -0.059 NA
ENDROOT
BRANCH   7  12
ATOM     12  C   UNL     1     -11.696  12.794  63.645  0.00  0.00    +0.305 C 
ATOM     13  O   UNL     1     -10.599  12.200  63.424  0.00  0.00    -0.265 OA
ATOM     14  N   UNL     1     -12.879  12.044  63.345  0.00  0.00    -0.082 NA
ENDBRANCH   7  12
TORSDOF 1
ENDMDL
MODEL 3
REMARK VINA RESULT:      -5.3      1.872      4.895
REMARK  Name = 
REMARK  1 active torsions:
REMARK  status: ('A' for Active; 'I' for Inactive)
REMARK    1  A    between atoms: C_6  and  C_7
REMARK                            x       y       z     vdW  Elec       q    Type
REMARK                         _______ _______ _______ _____ _____    ______ ____
ROOT
ATOM      1  C   UNL     1     -12.162  14.349  64.277  0.00  0.00    +0.160 C 
ATOM      2  N   UNL     1     -11.320  15.432  64.722  0.00  0.00    -0.182 N 
ATOM      3  C   UNL     1     -10.346  15.183  65.629  0.00  0.00    +0.355 A 
ATOM      4  O   UNL     1      -9.810  14.039  65.701  0.00  0.00    -0.244 OA
ATOM      5  N   UNL     1      -9.805  16.159  66.366  0.00  0.00    -0.222 N 
ATOM      6  C   UNL     1     -10.172  17.434  66.089  0.00  0.00    +0.198 A 
ATOM      7  C   UNL     1      -9.325  18.255  66.823  0.00  0.00    +0.176 A 
ATOM      8  N   UNL     1      -8.623  17.430  67.636  0.00  0.00    -0.217 NA
ATOM      9  N   UNL     1     -10.927  17.636  65.005  0.00  0.00    -0.110 NA
ATOM     10  C   UNL     1      -8.721  16.175  67.168  0.00  0.00    +0.188 A 
ATOM     11  N   UNL     1     -11.366  16.653  64.221  0.00  0.00    -0.059 NA
ENDROOT
BRANCH   7  12
ATOM     12  C   UNL     1      -9.075  19.680  66.572  0.00  0.00    +0.305 C 
ATOM     13  O   UNL     1     -10.014  20.468  66.891  0.00  0.00    -0.265 OA
ATOM     14  N   UNL     1      -7.752  20.129  66.887  0.00  0.00    -0.082 NA
ENDBRANCH   7  12
TORSDOF 1
ENDMDL
MODEL 4
REMARK VINA RESULT:      -5.3      5.062      7.635
REMARK  Name = 
REMARK  1 active torsions:
REMARK  status: ('A' for Active; 'I' for Inactive)
REMARK    1  A    between atoms: C_6  and  C_7
REMARK                            x       y       z     vdW  Elec       q    Type
REMARK                         _______ _______ _______ _____ _____    ______ ____
ROOT
ATOM      1  C   UNL     1     -11.993   9.243  70.936  0.00  0.00    +0.160 C 
ATOM      2  N   UNL     1     -12.447  10.612  70.954  0.00  0.00    -0.182 N 
ATOM      3  C   UNL     1     -12.112  11.433  69.929  0.00  0.00    +0.355 A 
ATOM      4  O   UNL     1     -11.898  10.966  68.774  0.00  0.00    -0.244 OA
ATOM      5  N   UNL     1     -12.149  12.764  70.054  0.00  0.00    -0.222 N 
ATOM      6  C   UNL     1     -12.657  13.275  71.202  0.00  0.00    +0.198 A 
ATOM      7  C   UNL     1     -12.789  14.643  70.999  0.00  0.00    +0.176 A 
ATOM      8  N   UNL     1     -12.185  14.901  69.815  0.00  0.00    -0.217 NA
ATOM      9  N   UNL     1     -13.221  12.420  72.061  0.00  0.00    -0.110 NA
ATOM     10  C   UNL     1     -12.049  13.749  69.138  0.00  0.00    +0.188 A 
ATOM     11  N   UNL     1     -13.269  11.103  71.863  0.00  0.00    -0.059 NA
ENDROOT
BRANCH   7  12
ATOM     12  C   UNL     1     -13.631  15.553  71.785  0.00  0.00    +0.305 C 
ATOM     13  O   UNL     1     -14.875  15.492  71.549  0.00  0.00    -0.265 OA
ATOM     14  N   UNL     1     -13.266  15.682  73.164  0.00  0.00    -0.082 NA
ENDBRANCH   7  12
TORSDOF 1
ENDMDL
MODEL 5
REMARK VINA RESULT:      -5.3      3.144      3.832
REMARK  Name = 
REMARK  1 active torsions:
REMARK  status: ('A' for Active; 'I' for Inactive)
REMARK    1  A    between atoms: C_6  and  C_7
REMARK                            x       y       z     vdW  Elec       q    Type
REMARK                         _______ _______ _______ _____ _____    ______ ____
ROOT
ATOM      1  C   UNL     1     -11.709  15.934  71.561  0.00  0.00    +0.160 C 
ATOM      2  N   UNL     1     -11.929  15.298  70.285  0.00  0.00    -0.182 N 
ATOM      3  C   UNL     1     -12.033  13.948  70.228  0.00  0.00    +0.355 A 
ATOM      4  O   UNL     1     -12.462  13.293  71.222  0.00  0.00    -0.244 OA
ATOM      5  N   UNL     1     -11.844  13.276  69.088  0.00  0.00    -0.222 N 
ATOM      6  C   UNL     1     -11.668  13.996  67.954  0.00  0.00    +0.198 A 
ATOM      7  C   UNL     1     -11.714  13.091  66.901  0.00  0.00    +0.176 A 
ATOM      8  N   UNL     1     -11.732  11.862  67.470  0.00  0.00    -0.217 NA
ATOM      9  N   UNL     1     -11.847  15.319  68.030  0.00  0.00    -0.110 NA
ATOM     10  C   UNL     1     -12.080  11.988  68.762  0.00  0.00    +0.188 A 
ATOM     11  N   UNL     1     -12.143  15.957  69.161  0.00  0.00    -0.059 NA
ENDROOT
BRANCH   7  12
ATOM     12  C   UNL     1     -11.956  13.421  65.491  0.00  0.00    +0.305 C 
ATOM     13  O   UNL     1     -10.924  13.678  64.802  0.00  0.00    -0.265 OA
ATOM     14  N   UNL     1     -12.953  12.623  64.843  0.00  0.00    -0.082 NA
ENDBRANCH   7  12
TORSDOF 1
ENDMDL
MODEL 6
REMARK VINA RESULT:      -5.3      2.084      4.904
REMARK  Name = 
REMARK  1 active torsions:
REMARK  status: ('A' for Active; 'I' for Inactive)
REMARK    1  A    between atoms: C_6  and  C_7
REMARK                            x       y       z     vdW  Elec       q    Type
REMARK                         _______ _______ _______ _____ _____    ______ ____
ROOT
ATOM      1  C   UNL     1     -12.193  13.920  69.869  0.00  0.00    +0.160 C 
ATOM      2  N   UNL     1     -11.814  15.014  69.010  0.00  0.00    -0.182 N 
ATOM      3  C   UNL     1     -11.577  14.773  67.698  0.00  0.00    +0.355 A 
ATOM      4  O   UNL     1     -12.152  13.816  67.105  0.00  0.00    -0.244 OA
ATOM      5  N   UNL     1     -10.862  15.617  66.946  0.00  0.00    -0.222 N 
ATOM      6  C   UNL     1     -10.484  16.793  67.504  0.00  0.00    +0.198 A 
ATOM      7  C   UNL     1      -9.961  17.567  66.476  0.00  0.00    +0.176 A 
ATOM      8  N   UNL     1      -9.884  16.749  65.400  0.00  0.00    -0.217 NA
ATOM      9  N   UNL     1     -10.980  17.090  68.710  0.00  0.00    -0.110 NA
ATOM     10  C   UNL     1     -10.668  15.678  65.612  0.00  0.00    +0.188 A 
ATOM     11  N   UNL     1     -11.782  16.276  69.396  0.00  0.00    -0.059 NA
ENDROOT
BRANCH   7  12
ATOM     12  C   UNL     1      -9.780  19.023  66.500  0.00  0.00    +0.305 C 
ATOM     13  O   UNL     1     -10.845  19.710  66.521  0.00  0.00    -0.265 OA
ATOM     14  N   UNL     1      -8.723  19.491  67.346  0.00  0.00    -0.082 NA
ENDBRANCH   7  12
TORSDOF 1
ENDMDL
MODEL 7
REMARK VINA RESULT:      -5.2      4.470      6.397
REMARK  Name = 
REMARK  1 active torsions:
REMARK  status: ('A' for Active; 'I' for Inactive)
REMARK    1  A    between atoms: C_6  and  C_7
REMARK                            x       y       z     vdW  Elec       q    Type
REMARK                         _______ _______ _______ _____ _____    ______ ____
ROOT
ATOM      1  C   UNL     1     -11.052  14.449  66.872  0.00  0.00    +0.160 C 
ATOM      2  N   UNL     1     -11.397  14.625  68.261  0.00  0.00    -0.182 N 
ATOM      3  C   UNL     1     -11.698  13.538  69.011  0.00  0.00    +0.355 A 
ATOM      4  O   UNL     1     -11.204  12.407  68.733  0.00  0.00    -0.244 OA
ATOM      5  N   UNL     1     -12.390  13.639  70.151  0.00  0.00    -0.222 N 
ATOM      6  C   UNL     1     -12.675  14.884  70.606  0.00  0.00    +0.198 A 
ATOM      7  C   UNL     1     -13.191  14.726  71.886  0.00  0.00    +0.176 A 
ATOM      8  N   UNL     1     -13.357  13.393  72.056  0.00  0.00    -0.217 NA
ATOM      9  N   UNL     1     -12.117  15.917  69.966  0.00  0.00    -0.110 NA
ATOM     10  C   UNL     1     -12.631  12.744  71.131  0.00  0.00    +0.188 A 
ATOM     11  N   UNL     1     -11.340  15.784  68.892  0.00  0.00    -0.059 NA
ENDROOT
BRANCH   7  12
ATOM     12  C   UNL     1     -13.284  15.772  72.912  0.00  0.00    +0.305 C 
ATOM     13  O   UNL     1     -14.424  16.308  73.050  0.00  0.00    -0.265 OA
ATOM     14  N   UNL     1     -12.576  15.497  74.126  0.00  0.00    -0.082 NA
ENDBRANCH   7  12
TORSDOF 1
ENDMDL
MODEL 8
REMARK VINA RESULT:      -5.2      4.319      5.670
REMARK  Name = 
REMARK  1 active torsions:
REMARK  status: ('A' for Active; 'I' for Inactive)
REMARK    1  A    between atoms: C_6  and  C_7
REMARK                            x       y       z     vdW  Elec       q    Type
REMARK                         _______ _______ _______ _____ _____    ______ ____
ROOT
ATOM      1  C   UNL     1     -10.479  10.395  69.409  0.00  0.00    +0.160 C 
ATOM      2  N   UNL     1     -10.860  10.728  68.059  0.00  0.00    -0.182 N 
ATOM      3  C   UNL     1     -10.084  10.310  67.030  0.00  0.00    +0.355 A 
ATOM      4  O   UNL     1      -9.389   9.258  67.135  0.00  0.00    -0.244 OA
ATOM      5  N   UNL     1     -10.141  10.888  65.826  0.00  0.00    -0.222 N 
ATOM      6  C   UNL     1     -11.094  11.831  65.624  0.00  0.00    +0.198 A 
ATOM      7  C   UNL     1     -11.089  12.110  64.263  0.00  0.00    +0.176 A 
ATOM      8  N   UNL     1     -10.015  11.460  63.756  0.00  0.00    -0.217 NA
ATOM      9  N   UNL     1     -12.002  12.005  66.589  0.00  0.00    -0.110 NA
ATOM     10  C   UNL     1      -9.619  10.525  64.636  0.00  0.00    +0.188 A 
ATOM     11  N   UNL     1     -11.989  11.336  67.741  0.00  0.00    -0.059 NA
ENDROOT
BRANCH   7  12
ATOM     12  C   UNL     1     -12.171  12.759  63.513  0.00  0.00    +0.305 C 
ATOM     13  O   UNL     1     -13.200  12.049  63.307  0.00  0.00    -0.265 OA
ATOM     14  N   UNL     1     -12.419  14.126  63.863  0.00  0.00    -0.082 NA
ENDBRANCH   7  12
TORSDOF 1
ENDMDL
MODEL 9
REMARK VINA RESULT:      -5.1      1.697      4.874
REMARK  Name = 
REMARK  1 active torsions:
REMARK  status: ('A' for Active; 'I' for Inactive)
REMARK    1  A    between atoms: C_6  and  C_7
REMARK                            x       y       z     vdW  Elec       q    Type
REMARK                         _______ _______ _______ _____ _____    ______ ____
ROOT
ATOM      1  C   UNL     1     -11.679  11.611  67.273  0.00  0.00    +0.160 C 
ATOM      2  N   UNL     1     -11.479  13.028  67.096  0.00  0.00    -0.182 N 
ATOM      3  C   UNL     1     -11.852  13.608  65.929  0.00  0.00    +0.355 A 
ATOM      4  O   UNL     1     -12.795  13.122  65.241  0.00  0.00    -0.244 OA
ATOM      5  N   UNL     1     -11.357  14.789  65.541  0.00  0.00    -0.222 N 
ATOM      6  C   UNL     1     -10.562  15.455  66.413  0.00  0.00    +0.198 A 
ATOM      7  C   UNL     1     -10.364  16.721  65.876  0.00  0.00    +0.176 A 
ATOM      8  N   UNL     1     -10.897  16.683  64.631  0.00  0.00    -0.217 NA
ATOM      9  N   UNL     1     -10.452  14.960  67.649  0.00  0.00    -0.110 NA
ATOM     10  C   UNL     1     -11.718  15.623  64.545  0.00  0.00    +0.188 A 
ATOM     11  N   UNL     1     -11.044  13.835  68.047  0.00  0.00    -0.059 NA
ENDROOT
BRANCH   7  12
ATOM     12  C   UNL     1      -9.907  17.907  66.611  0.00  0.00    +0.305 C 
ATOM     13  O   UNL     1      -9.215  18.734  65.945  0.00  0.00    -0.265 OA
ATOM     14  N   UNL     1     -10.872  18.480  67.501  0.00  0.00    -0.082 NA
ENDBRANCH   7  12
TORSDOF 1
ENDMDL
