MODEL 1
REMARK VINA RESULT:      -6.9      0.000      0.000
REMARK  Name = 
REMARK  8 active torsions:
REMARK  status: ('A' for Active; 'I' for Inactive)
REMARK    1  A    between atoms: C_2  and  C_3
REMARK    2  A    between atoms: C_3  and  O_4
REMARK    3  A    between atoms: O_4  and  C_5
REMARK    4  A    between atoms: C_5  and  C_6
REMARK    5  A    between atoms: C_6  and  N_7
REMARK    6  A    between atoms: N_10  and  C_11
REMARK    7  A    between atoms: C_11  and  C_12
REMARK    8  A    between atoms: C_11  and  C_18
REMARK                            x       y       z     vdW  Elec       q    Type
REMARK                         _______ _______ _______ _____ _____    ______ ____
ROOT
ATOM      1  C   UNL     1     -11.323  13.989  70.154  0.00  0.00    +0.103 C 
ENDROOT
BRANCH   1   2
ATOM      2  C   UNL     1     -12.175  12.589  69.956  0.00  0.00    -0.004 A 
ATOM      3  C   UNL     1     -11.368  11.551  69.504  0.00  0.00    -0.002 A 
ATOM      4  C   UNL     1     -11.625  10.226  69.816  0.00  0.00    +0.011 A 
ATOM      5  C   UNL     1     -12.224  10.027  71.054  0.00  0.00    +0.058 A 
ATOM      6 CL   UNL     1     -12.126   8.382  71.672  0.00  0.00    -0.082 Cl
ATOM      7  C   UNL     1     -12.792  11.063  71.757  0.00  0.00    +0.011 A 
ATOM      8  C   UNL     1     -12.787  12.328  71.180  0.00  0.00    -0.002 A 
ENDBRANCH   1   2
BRANCH   1   9
ATOM      9  C   UNL     1     -12.325  14.516  71.349  0.00  0.00    -0.004 A 
ATOM     10  C   UNL     1     -13.563  14.888  70.967  0.00  0.00    -0.003 A 
ATOM     11  C   UNL     1     -14.394  15.408  71.953  0.00  0.00    -0.000 A 
ATOM     12  C   UNL     1     -13.800  15.935  73.093  0.00  0.00    -0.000 A 
ATOM     13  C   UNL     1     -12.429  15.855  73.284  0.00  0.00    -0.000 A 
ATOM     14  C   UNL     1     -11.663  15.124  72.387  0.00  0.00    -0.003 A 
ENDBRANCH   1   9
BRANCH   1  18
ATOM     15  N   UNL     1     -10.921  15.128  66.372  0.00  0.00    -0.268 NA
ATOM     16  C   UNL     1     -10.337  15.622  67.592  0.00  0.00    +0.090 C 
ATOM     17  C   UNL     1     -11.337  15.891  68.679  0.00  0.00    +0.090 C 
ATOM     18  N   UNL     1     -12.156  14.752  69.003  0.00  0.00    -0.264 NA
ATOM     19  C   UNL     1     -12.013  13.742  67.962  0.00  0.00    +0.090 C 
ATOM     20  C   UNL     1     -12.122  14.355  66.593  0.00  0.00    +0.090 C 
BRANCH  15  21
ATOM     21  C   UNL     1      -9.933  14.221  65.790  0.00  0.00    +0.105 C 
BRANCH  21  22
ATOM     22  C   UNL     1     -10.497  13.652  64.495  0.00  0.00    +0.160 C 
BRANCH  22  23
ATOM     23  O   UNL     1     -10.397  12.266  64.588  0.00  0.00    -0.350 OA
BRANCH  23  24
ATOM     24  C   UNL     1     -10.980  11.637  63.476  0.00  0.00    +0.178 C 
BRANCH  24  26
ATOM     25  O   UNL     1     -12.815  12.031  63.404  0.00  0.00    -0.218 OA
ATOM     26  C   UNL     1     -12.444  12.059  63.482  0.00  0.00    +0.214 C 
ENDBRANCH  24  26
ENDBRANCH  23  24
ENDBRANCH  22  23
ENDBRANCH  21  22
ENDBRANCH  15  21
ENDBRANCH   1  18
TORSDOF 8
ENDMDL
MODEL 2
REMARK VINA RESULT:      -6.8      2.397      4.407
REMARK  Name = 
REMARK  8 active torsions:
REMARK  status: ('A' for Active; 'I' for Inactive)
REMARK    1  A    between atoms: C_2  and  C_3
REMARK    2  A    between atoms: C_3  and  O_4
REMARK    3  A    between atoms: O_4  and  C_5
REMARK    4  A    between atoms: C_5  and  C_6
REMARK    5  A    between atoms: C_6  and  N_7
REMARK    6  A    between atoms: N_10  and  C_11
REMARK    7  A    between atoms: C_11  and  C_12
REMARK    8  A    between atoms: C_11  and  C_18
REMARK                            x       y       z     vdW  Elec       q    Type
REMARK                         _______ _______ _______ _____ _____    ______ ____
ROOT
ATOM      1  C   UNL     1     -10.341  15.135  68.163  0.00  0.00    +0.103 C 
ENDROOT
BRANCH   1   2
ATOM      2  C   UNL     1     -11.675  15.329  69.116  0.00  0.00    -0.004 A 
ATOM      3  C   UNL     1     -12.117  14.121  69.641  0.00  0.00    -0.002 A 
ATOM      4  C   UNL     1     -12.764  14.039  70.863  0.00  0.00    +0.011 A 
ATOM      5  C   UNL     1     -12.367  14.991  71.795  0.00  0.00    +0.058 A 
ATOM      6 CL   UNL     1     -12.801  14.628  73.461  0.00  0.00    -0.082 Cl
ATOM      7  C   UNL     1     -11.636  16.097  71.431  0.00  0.00    +0.011 A 
ATOM      8  C   UNL     1     -11.328  16.267  70.086  0.00  0.00    -0.002 A 
ENDBRANCH   1   2
BRANCH   1   9
ATOM      9  C   UNL     1      -9.865  16.695  68.384  0.00  0.00    -0.004 A 
ATOM     10  C   UNL     1     -10.588  17.636  67.743  0.00  0.00    -0.003 A 
ATOM     11  C   UNL     1     -10.151  18.950  67.859  0.00  0.00    -0.000 A 
ATOM     12  C   UNL     1      -8.820  19.165  68.195  0.00  0.00    -0.000 A 
ATOM     13  C   UNL     1      -7.981  18.105  68.502  0.00  0.00    -0.000 A 
ATOM     14  C   UNL     1      -8.515  16.828  68.601  0.00  0.00    -0.003 A 
ENDBRANCH   1   9
BRANCH   1  18
ATOM     15  N   UNL     1     -11.367  13.451  64.717  0.00  0.00    -0.268 NA
ATOM     16  C   UNL     1     -10.106  13.945  65.208  0.00  0.00    +0.090 C 
ATOM     17  C   UNL     1     -10.176  15.335  65.770  0.00  0.00    +0.090 C 
ATOM     18  N   UNL     1     -11.155  15.487  66.815  0.00  0.00    -0.264 NA
ATOM     19  C   UNL     1     -12.040  14.328  66.819  0.00  0.00    +0.090 C 
ATOM     20  C   UNL     1     -12.503  13.994  65.428  0.00  0.00    +0.090 C 
BRANCH  15  21
ATOM     21  C   UNL     1     -11.361  12.010  64.965  0.00  0.00    +0.105 C 
BRANCH  21  22
ATOM     22  C   UNL     1      -9.985  11.609  65.477  0.00  0.00    +0.160 C 
BRANCH  22  23
ATOM     23  O   UNL     1     -10.187  10.632  66.450  0.00  0.00    -0.350 OA
BRANCH  23  24
ATOM     24  C   UNL     1     -10.227  11.194  67.735  0.00  0.00    +0.178 C 
BRANCH  24  26
ATOM     25  O   UNL     1     -11.951  10.808  68.374  0.00  0.00    -0.218 OA
ATOM     26  C   UNL     1     -11.575  10.792  68.323  0.00  0.00    +0.214 C 
ENDBRANCH  24  26
ENDBRANCH  23  24
ENDBRANCH  22  23
ENDBRANCH  21  22
ENDBRANCH  15  21
ENDBRANCH   1  18
TORSDOF 8
ENDMDL
MODEL 3
REMARK VINA RESULT:      -6.7      3.818      7.170
REMARK  Name = 
REMARK  8 active torsions:
REMARK  status: ('A' for Active; 'I' for Inactive)
REMARK    1  A    between atoms: C_2  and  C_3
REMARK    2  A    between atoms: C_3  and  O_4
REMARK    3  A    between atoms: O_4  and  C_5
REMARK    4  A    between atoms: C_5  and  C_6
REMARK    5  A    between atoms: C_6  and  N_7
REMARK    6  A    between atoms: N_10  and  C_11
REMARK    7  A    between atoms: C_11  and  C_12
REMARK    8  A    between atoms: C_11  and  C_18
REMARK                            x       y       z     vdW  Elec       q    Type
REMARK                         _______ _______ _______ _____ _____    ______ ____
ROOT
ATOM      1  C   UNL     1     -10.783  16.039  67.200  0.00  0.00    +0.103 C 
ENDROOT
BRANCH   1   2
ATOM      2  C   UNL     1     -10.397  15.240  65.807  0.00  0.00    -0.004 A 
ATOM      3  C   UNL     1     -10.117  13.899  66.039  0.00  0.00    -0.002 A 
ATOM      4  C   UNL     1     -10.356  12.919  65.090  0.00  0.00    +0.011 A 
ATOM      5  C   UNL     1     -11.439  13.172  64.255  0.00  0.00    +0.058 A 
ATOM      6 CL   UNL     1     -12.050  11.771  63.384  0.00  0.00    -0.082 Cl
ATOM      7  C   UNL     1     -12.015  14.418  64.177  0.00  0.00    +0.011 A 
ATOM      8  C   UNL     1     -11.462  15.445  64.933  0.00  0.00    -0.002 A 
ENDBRANCH   1   2
BRANCH   1   9
ATOM      9  C   UNL     1      -9.293  16.729  67.303  0.00  0.00    -0.004 A 
ATOM     10  C   UNL     1      -9.257  18.011  67.720  0.00  0.00    -0.003 A 
ATOM     11  C   UNL     1      -8.013  18.631  67.737  0.00  0.00    -0.000 A 
ATOM     12  C   UNL     1      -7.014  18.106  66.927  0.00  0.00    -0.000 A 
ATOM     13  C   UNL     1      -7.221  16.943  66.201  0.00  0.00    -0.000 A 
ATOM     14  C   UNL     1      -8.395  16.228  66.391  0.00  0.00    -0.003 A 
ENDBRANCH   1   9
BRANCH   1  18
ATOM     15  N   UNL     1     -11.715  14.407  70.697  0.00  0.00    -0.268 NA
ATOM     16  C   UNL     1     -10.999  15.609  70.358  0.00  0.00    +0.090 C 
ATOM     17  C   UNL     1      -9.907  15.400  69.349  0.00  0.00    +0.090 C 
ATOM     18  N   UNL     1     -10.359  14.788  68.127  0.00  0.00    -0.264 NA
ATOM     19  C   UNL     1     -11.695  14.239  68.329  0.00  0.00    +0.090 C 
ATOM     20  C   UNL     1     -11.772  13.456  69.610  0.00  0.00    +0.090 C 
BRANCH  15  21
ATOM     21  C   UNL     1     -13.090  14.820  70.971  0.00  0.00    +0.105 C 
BRANCH  21  22
ATOM     22  C   UNL     1     -13.701  13.848  71.972  0.00  0.00    +0.160 C 
BRANCH  22  23
ATOM     23  O   UNL     1     -13.516  14.404  73.236  0.00  0.00    -0.350 OA
BRANCH  23  24
ATOM     24  C   UNL     1     -13.408  15.802  73.167  0.00  0.00    +0.178 C 
BRANCH  24  26
ATOM     25  O   UNL     1     -12.333  16.223  74.648  0.00  0.00    -0.218 OA
ATOM     26  C   UNL     1     -12.625  16.219  74.406  0.00  0.00    +0.214 C 
ENDBRANCH  24  26
ENDBRANCH  23  24
ENDBRANCH  22  23
ENDBRANCH  21  22
ENDBRANCH  15  21
ENDBRANCH   1  18
TORSDOF 8
ENDMDL
MODEL 4
REMARK VINA RESULT:      -6.7      2.332      3.235
REMARK  Name = 
REMARK  8 active torsions:
REMARK  status: ('A' for Active; 'I' for Inactive)
REMARK    1  A    between atoms: C_2  and  C_3
REMARK    2  A    between atoms: C_3  and  O_4
REMARK    3  A    between atoms: O_4  and  C_5
REMARK    4  A    between atoms: C_5  and  C_6
REMARK    5  A    between atoms: C_6  and  N_7
REMARK    6  A    between atoms: N_10  and  C_11
REMARK    7  A    between atoms: C_11  and  C_12
REMARK    8  A    between atoms: C_11  and  C_18
REMARK                            x       y       z     vdW  Elec       q    Type
REMARK                         _______ _______ _______ _____ _____    ______ ____
ROOT
ATOM      1  C   UNL     1     -11.270  13.883  70.122  0.00  0.00    +0.103 C 
ENDROOT
BRANCH   1   2
ATOM      2  C   UNL     1     -12.123  12.488  69.889  0.00  0.00    -0.004 A 
ATOM      3  C   UNL     1     -11.319  11.465  69.398  0.00  0.00    -0.002 A 
ATOM      4  C   UNL     1     -11.572  10.132  69.673  0.00  0.00    +0.011 A 
ATOM      5  C   UNL     1     -12.159   9.895  70.910  0.00  0.00    +0.058 A 
ATOM      6 CL   UNL     1     -12.055   8.232  71.477  0.00  0.00    -0.082 Cl
ATOM      7  C   UNL     1     -12.722  10.909  71.649  0.00  0.00    +0.011 A 
ATOM      8  C   UNL     1     -12.724  12.190  71.109  0.00  0.00    -0.002 A 
ENDBRANCH   1   2
BRANCH   1   9
ATOM      9  C   UNL     1     -12.319  14.418  71.272  0.00  0.00    -0.004 A 
ATOM     10  C   UNL     1     -13.545  14.775  70.841  0.00  0.00    -0.003 A 
ATOM     11  C   UNL     1     -14.415  15.301  71.789  0.00  0.00    -0.000 A 
ATOM     12  C   UNL     1     -13.865  15.849  72.942  0.00  0.00    -0.000 A 
ATOM     13  C   UNL     1     -12.502  15.783  73.183  0.00  0.00    -0.000 A 
ATOM     14  C   UNL     1     -11.698  15.046  72.325  0.00  0.00    -0.003 A 
ENDBRANCH   1   9
BRANCH   1  18
ATOM     15  N   UNL     1     -10.487  16.005  66.859  0.00  0.00    -0.268 NA
ATOM     16  C   UNL     1     -10.368  16.317  68.259  0.00  0.00    +0.090 C 
ATOM     17  C   UNL     1     -11.605  16.015  69.055  0.00  0.00    +0.090 C 
ATOM     18  N   UNL     1     -12.049  14.650  68.936  0.00  0.00    -0.264 NA
ATOM     19  C   UNL     1     -11.364  14.016  67.816  0.00  0.00    +0.090 C 
ATOM     20  C   UNL     1     -11.381  14.899  66.599  0.00  0.00    +0.090 C 
BRANCH  15  21
ATOM     21  C   UNL     1      -9.155  15.584  66.425  0.00  0.00    +0.105 C 
BRANCH  21  22
ATOM     22  C   UNL     1      -8.231  16.793  66.442  0.00  0.00    +0.160 C 
BRANCH  22  23
ATOM     23  O   UNL     1      -8.860  17.790  65.698  0.00  0.00    -0.350 OA
BRANCH  23  24
ATOM     24  C   UNL     1      -8.699  19.050  66.296  0.00  0.00    +0.178 C 
BRANCH  24  26
ATOM     25  O   UNL     1     -10.472  19.667  66.349  0.00  0.00    -0.218 OA
ATOM     26  C   UNL     1     -10.092  19.664  66.352  0.00  0.00    +0.214 C 
ENDBRANCH  24  26
ENDBRANCH  23  24
ENDBRANCH  22  23
ENDBRANCH  21  22
ENDBRANCH  15  21
ENDBRANCH   1  18
TORSDOF 8
ENDMDL
MODEL 5
REMARK VINA RESULT:      -6.6      2.414      4.294
REMARK  Name = 
REMARK  8 active torsions:
REMARK  status: ('A' for Active; 'I' for Inactive)
REMARK    1  A    between atoms: C_2  and  C_3
REMARK    2  A    between atoms: C_3  and  O_4
REMARK    3  A    between atoms: O_4  and  C_5
REMARK    4  A    between atoms: C_5  and  C_6
REMARK    5  A    between atoms: C_6  and  N_7
REMARK    6  A    between atoms: N_10  and  C_11
REMARK    7  A    between atoms: C_11  and  C_12
REMARK    8  A    between atoms: C_11  and  C_18
REMARK                            x       y       z     vdW  Elec       q    Type
REMARK                         _______ _______ _______ _____ _____    ______ ____
ROOT
ATOM      1  C   UNL     1     -10.259  15.172  68.100  0.00  0.00    +0.103 C 
ENDROOT
BRANCH   1   2
ATOM      2  C   UNL     1     -11.617  15.308  69.030  0.00  0.00    -0.004 A 
ATOM      3  C   UNL     1     -12.011  14.082  69.555  0.00  0.00    -0.002 A 
ATOM      4  C   UNL     1     -12.674  13.976  70.766  0.00  0.00    +0.011 A 
ATOM      5  C   UNL     1     -12.338  14.950  71.699  0.00  0.00    +0.058 A 
ATOM      6 CL   UNL     1     -12.783  14.575  73.360  0.00  0.00    -0.082 Cl
ATOM      7  C   UNL     1     -11.654  16.088  71.341  0.00  0.00    +0.011 A 
ATOM      8  C   UNL     1     -11.332  16.265  70.000  0.00  0.00    -0.002 A 
ENDBRANCH   1   2
BRANCH   1   9
ATOM      9  C   UNL     1      -9.859  16.752  68.327  0.00  0.00    -0.004 A 
ATOM     10  C   UNL     1     -10.593  17.657  67.649  0.00  0.00    -0.003 A 
ATOM     11  C   UNL     1     -10.216  18.989  67.770  0.00  0.00    -0.000 A 
ATOM     12  C   UNL     1      -8.910  19.262  68.157  0.00  0.00    -0.000 A 
ATOM     13  C   UNL     1      -8.041  18.241  68.507  0.00  0.00    -0.000 A 
ATOM     14  C   UNL     1      -8.525  16.943  68.596  0.00  0.00    -0.003 A 
ENDBRANCH   1   9
BRANCH   1  18
ATOM     15  N   UNL     1     -11.394  13.344  64.764  0.00  0.00    -0.268 NA
ATOM     16  C   UNL     1     -10.107  13.801  65.219  0.00  0.00    +0.090 C 
ATOM     17  C   UNL     1     -10.103  15.224  65.699  0.00  0.00    +0.090 C 
ATOM     18  N   UNL     1     -11.065  15.485  66.738  0.00  0.00    -0.264 NA
ATOM     19  C   UNL     1     -12.007  14.374  66.814  0.00  0.00    +0.090 C 
ATOM     20  C   UNL     1     -12.496  13.983  65.447  0.00  0.00    +0.090 C 
BRANCH  15  21
ATOM     21  C   UNL     1     -11.458  11.921  65.096  0.00  0.00    +0.105 C 
BRANCH  21  22
ATOM     22  C   UNL     1     -10.062  11.328  64.968  0.00  0.00    +0.160 C 
BRANCH  22  23
ATOM     23  O   UNL     1     -10.120  10.378  63.950  0.00  0.00    -0.350 OA
BRANCH  23  24
ATOM     24  C   UNL     1      -9.456  10.826  62.798  0.00  0.00    +0.178 C 
BRANCH  24  26
ATOM     25  O   UNL     1      -9.282   9.230  61.823  0.00  0.00    -0.218 OA
ATOM     26  C   UNL     1      -9.224   9.585  61.944  0.00  0.00    +0.214 C 
ENDBRANCH  24  26
ENDBRANCH  23  24
ENDBRANCH  22  23
ENDBRANCH  21  22
ENDBRANCH  15  21
ENDBRANCH   1  18
TORSDOF 8
ENDMDL
MODEL 6
REMARK VINA RESULT:      -6.5      3.630      6.029
REMARK  Name = 
REMARK  8 active torsions:
REMARK  status: ('A' for Active; 'I' for Inactive)
REMARK    1  A    between atoms: C_2  and  C_3
REMARK    2  A    between atoms: C_3  and  O_4
REMARK    3  A    between atoms: O_4  and  C_5
REMARK    4  A    between atoms: C_5  and  C_6
REMARK    5  A    between atoms: C_6  and  N_7
REMARK    6  A    between atoms: N_10  and  C_11
REMARK    7  A    between atoms: C_11  and  C_12
REMARK    8  A    between atoms: C_11  and  C_18
REMARK                            x       y       z     vdW  Elec       q    Type
REMARK                         _______ _______ _______ _____ _____    ______ ____
ROOT
ATOM      1  C   UNL     1     -10.512  15.576  67.800  0.00  0.00    +0.103 C 
ENDROOT
BRANCH   1   2
ATOM      2  C   UNL     1     -10.711  15.161  69.386  0.00  0.00    -0.004 A 
ATOM      3  C   UNL     1     -10.984  16.269  70.181  0.00  0.00    -0.002 A 
ATOM      4  C   UNL     1     -11.752  16.181  71.330  0.00  0.00    +0.011 A 
ATOM      5  C   UNL     1     -12.744  15.209  71.293  0.00  0.00    +0.058 A 
ATOM      6 CL   UNL     1     -14.009  15.389  72.503  0.00  0.00    -0.082 Cl
ATOM      7  C   UNL     1     -12.753  14.222  70.336  0.00  0.00    +0.011 A 
ATOM      8  C   UNL     1     -11.714  14.194  69.412  0.00  0.00    -0.002 A 
ENDBRANCH   1   2
BRANCH   1   9
ATOM      9  C   UNL     1     -11.007  14.097  67.275  0.00  0.00    -0.004 A 
ATOM     10  C   UNL     1     -10.090  13.110  67.319  0.00  0.00    -0.003 A 
ATOM     11  C   UNL     1     -10.472  11.876  66.807  0.00  0.00    -0.000 A 
ATOM     12  C   UNL     1     -11.523  11.846  65.898  0.00  0.00    -0.000 A 
ATOM     13  C   UNL     1     -12.232  12.996  65.591  0.00  0.00    -0.000 A 
ATOM     14  C   UNL     1     -11.971  14.161  66.297  0.00  0.00    -0.003 A 
ENDBRANCH   1   9
BRANCH   1  18
ATOM     15  N   UNL     1      -6.919  17.200  67.328  0.00  0.00    -0.268 NA
ATOM     16  C   UNL     1      -7.973  16.908  66.391  0.00  0.00    +0.090 C 
ATOM     17  C   UNL     1      -8.497  15.504  66.485  0.00  0.00    +0.090 C 
ATOM     18  N   UNL     1      -8.957  15.147  67.802  0.00  0.00    -0.264 NA
ATOM     19  C   UNL     1      -8.486  16.137  68.763  0.00  0.00    +0.090 C 
ATOM     20  C   UNL     1      -7.028  16.444  68.556  0.00  0.00    +0.090 C 
BRANCH  15  21
ATOM     21  C   UNL     1      -7.074  18.610  67.683  0.00  0.00    +0.105 C 
BRANCH  21  22
ATOM     22  C   UNL     1      -7.839  19.312  66.570  0.00  0.00    +0.160 C 
BRANCH  22  23
ATOM     23  O   UNL     1      -8.637  20.279  67.180  0.00  0.00    -0.350 OA
BRANCH  23  24
ATOM     24  C   UNL     1      -9.467  19.711  68.159  0.00  0.00    +0.178 C 
BRANCH  24  26
ATOM     25  O   UNL     1     -11.091  19.159  67.393  0.00  0.00    -0.218 OA
ATOM     26  C   UNL     1     -10.729  19.270  67.428  0.00  0.00    +0.214 C 
ENDBRANCH  24  26
ENDBRANCH  23  24
ENDBRANCH  22  23
ENDBRANCH  21  22
ENDBRANCH  15  21
ENDBRANCH   1  18
TORSDOF 8
ENDMDL
MODEL 7
REMARK VINA RESULT:      -6.5      3.531      6.524
REMARK  Name = 
REMARK  8 active torsions:
REMARK  status: ('A' for Active; 'I' for Inactive)
REMARK    1  A    between atoms: C_2  and  C_3
REMARK    2  A    between atoms: C_3  and  O_4
REMARK    3  A    between atoms: O_4  and  C_5
REMARK    4  A    between atoms: C_5  and  C_6
REMARK    5  A    between atoms: C_6  and  N_7
REMARK    6  A    between atoms: N_10  and  C_11
REMARK    7  A    between atoms: C_11  and  C_12
REMARK    8  A    between atoms: C_11  and  C_18
REMARK                            x       y       z     vdW  Elec       q    Type
REMARK                         _______ _______ _______ _____ _____    ______ ____
ROOT
ATOM      1  C   UNL     1     -11.594  14.242  66.816  0.00  0.00    +0.103 C 
ENDROOT
BRANCH   1   2
ATOM      2  C   UNL     1     -11.091  13.313  68.085  0.00  0.00    -0.004 A 
ATOM      3  C   UNL     1     -11.696  13.692  69.278  0.00  0.00    -0.002 A 
ATOM      4  C   UNL     1     -11.941  12.791  70.300  0.00  0.00    +0.011 A 
ATOM      5  C   UNL     1     -12.201  11.492  69.880  0.00  0.00    +0.058 A 
ATOM      6 CL   UNL     1     -12.969  10.460  71.081  0.00  0.00    -0.082 Cl
ATOM      7  C   UNL     1     -11.929  11.079  68.597  0.00  0.00    +0.011 A 
ATOM      8  C   UNL     1     -11.345  11.992  67.725  0.00  0.00    -0.002 A 
ENDBRANCH   1   2
BRANCH   1   9
ATOM      9  C   UNL     1     -11.455  12.995  65.752  0.00  0.00    -0.004 A 
ATOM     10  C   UNL     1     -10.205  12.692  65.349  0.00  0.00    -0.003 A 
ATOM     11  C   UNL     1     -10.079  11.693  64.391  0.00  0.00    -0.000 A 
ATOM     12  C   UNL     1     -11.183  11.412  63.596  0.00  0.00    -0.000 A 
ATOM     13  C   UNL     1     -12.399  12.039  63.817  0.00  0.00    -0.000 A 
ATOM     14  C   UNL     1     -12.546  12.857  64.928  0.00  0.00    -0.003 A 
ENDBRANCH   1   9
BRANCH   1  18
ATOM     15  N   UNL     1      -9.521  17.628  66.866  0.00  0.00    -0.268 NA
ATOM     16  C   UNL     1     -10.542  17.139  65.976  0.00  0.00    +0.090 C 
ATOM     17  C   UNL     1     -10.288  15.749  65.468  0.00  0.00    +0.090 C 
ATOM     18  N   UNL     1     -10.103  14.777  66.514  0.00  0.00    -0.264 NA
ATOM     19  C   UNL     1      -9.887  15.467  67.780  0.00  0.00    +0.090 C 
ATOM     20  C   UNL     1      -8.885  16.578  67.630  0.00  0.00    +0.090 C 
BRANCH  15  21
ATOM     21  C   UNL     1     -10.204  18.495  67.826  0.00  0.00    +0.105 C 
BRANCH  21  22
ATOM     22  C   UNL     1      -9.157  19.236  68.645  0.00  0.00    +0.160 C 
BRANCH  22  23
ATOM     23  O   UNL     1      -8.448  20.042  67.756  0.00  0.00    -0.350 OA
BRANCH  23  24
ATOM     24  C   UNL     1      -7.074  20.029  68.043  0.00  0.00    +0.178 C 
BRANCH  24  26
ATOM     25  O   UNL     1      -6.467  21.494  67.037  0.00  0.00    -0.218 OA
ATOM     26  C   UNL     1      -6.484  21.224  67.303  0.00  0.00    +0.214 C 
ENDBRANCH  24  26
ENDBRANCH  23  24
ENDBRANCH  22  23
ENDBRANCH  21  22
ENDBRANCH  15  21
ENDBRANCH   1  18
TORSDOF 8
ENDMDL
MODEL 8
REMARK VINA RESULT:      -6.4      3.603      5.907
REMARK  Name = 
REMARK  8 active torsions:
REMARK  status: ('A' for Active; 'I' for Inactive)
REMARK    1  A    between atoms: C_2  and  C_3
REMARK    2  A    between atoms: C_3  and  O_4
REMARK    3  A    between atoms: O_4  and  C_5
REMARK    4  A    between atoms: C_5  and  C_6
REMARK    5  A    between atoms: C_6  and  N_7
REMARK    6  A    between atoms: N_10  and  C_11
REMARK    7  A    between atoms: C_11  and  C_12
REMARK    8  A    between atoms: C_11  and  C_18
REMARK                            x       y       z     vdW  Elec       q    Type
REMARK                         _______ _______ _______ _____ _____    ______ ____
ROOT
ATOM      1  C   UNL     1     -11.228  12.939  67.347  0.00  0.00    +0.103 C 
ENDROOT
BRANCH   1   2
ATOM      2  C   UNL     1     -10.737  11.403  67.701  0.00  0.00    -0.004 A 
ATOM      3  C   UNL     1      -9.470  11.382  68.273  0.00  0.00    -0.002 A 
ATOM      4  C   UNL     1      -9.081  10.404  69.173  0.00  0.00    +0.011 A 
ATOM      5  C   UNL     1     -10.107   9.905  69.967  0.00  0.00    +0.058 A 
ATOM      6 CL   UNL     1      -9.582   9.040  71.406  0.00  0.00    -0.082 Cl
ATOM      7  C   UNL     1     -11.430  10.134  69.667  0.00  0.00    +0.011 A 
ATOM      8  C   UNL     1     -11.725  10.855  68.515  0.00  0.00    -0.002 A 
ENDBRANCH   1   2
BRANCH   1   9
ATOM      9  C   UNL     1     -11.256  12.636  65.730  0.00  0.00    -0.004 A 
ATOM     10  C   UNL     1     -12.449  12.777  65.118  0.00  0.00    -0.003 A 
ATOM     11  C   UNL     1     -12.504  12.449  63.768  0.00  0.00    -0.000 A 
ATOM     12  C   UNL     1     -11.530  11.595  63.266  0.00  0.00    -0.000 A 
ATOM     13  C   UNL     1     -10.481  11.163  64.063  0.00  0.00    -0.000 A 
ATOM     14  C   UNL     1     -10.334  11.697  65.335  0.00  0.00    -0.003 A 
ENDBRANCH   1   9
BRANCH   1  18
ATOM     15  N   UNL     1      -9.235  16.339  67.830  0.00  0.00    -0.268 NA
ATOM     16  C   UNL     1     -10.096  15.871  66.775  0.00  0.00    +0.090 C 
ATOM     17  C   UNL     1      -9.746  14.501  66.270  0.00  0.00    +0.090 C 
ATOM     18  N   UNL     1      -9.715  13.496  67.301  0.00  0.00    -0.264 NA
ATOM     19  C   UNL     1      -9.710  14.146  68.607  0.00  0.00    +0.090 C 
ATOM     20  C   UNL     1      -8.712  15.270  68.651  0.00  0.00    +0.090 C 
BRANCH  15  21
ATOM     21  C   UNL     1     -10.073  17.167  68.696  0.00  0.00    +0.105 C 
BRANCH  21  22
ATOM     22  C   UNL     1      -9.475  18.566  68.759  0.00  0.00    +0.160 C 
BRANCH  22  23
ATOM     23  O   UNL     1     -10.438  19.437  68.252  0.00  0.00    -0.350 OA
BRANCH  23  24
ATOM     24  C   UNL     1      -9.926  20.198  67.190  0.00  0.00    +0.178 C 
BRANCH  24  26
ATOM     25  O   UNL     1     -10.638  19.602  65.557  0.00  0.00    -0.218 OA
ATOM     26  C   UNL     1     -10.546  19.616  65.925  0.00  0.00    +0.214 C 
ENDBRANCH  24  26
ENDBRANCH  23  24
ENDBRANCH  22  23
ENDBRANCH  21  22
ENDBRANCH  15  21
ENDBRANCH   1  18
TORSDOF 8
ENDMDL
MODEL 9
REMARK VINA RESULT:      -6.3      4.392      6.947
REMARK  Name = 
REMARK  8 active torsions:
REMARK  status: ('A' for Active; 'I' for Inactive)
REMARK    1  A    between atoms: C_2  and  C_3
REMARK    2  A    between atoms: C_3  and  O_4
REMARK    3  A    between atoms: O_4  and  C_5
REMARK    4  A    between atoms: C_5  and  C_6
REMARK    5  A    between atoms: C_6  and  N_7
REMARK    6  A    between atoms: N_10  and  C_11
REMARK    7  A    between atoms: C_11  and  C_12
REMARK    8  A    between atoms: C_11  and  C_18
REMARK                            x       y       z     vdW  Elec       q    Type
REMARK                         _______ _______ _______ _____ _____    ______ ____
ROOT
ATOM      1  C   UNL     1     -10.704  15.667  67.751  0.00  0.00    +0.103 C 
ENDROOT
BRANCH   1   2
ATOM      2  C   UNL     1     -10.625  15.050  69.280  0.00  0.00    -0.004 A 
ATOM      3  C   UNL     1     -11.075  15.959  70.231  0.00  0.00    -0.002 A 
ATOM      4  C   UNL     1     -11.670  15.556  71.414  0.00  0.00    +0.011 A 
ATOM      5  C   UNL     1     -12.390  14.370  71.328  0.00  0.00    +0.058 A 
ATOM      6 CL   UNL     1     -13.523  14.090  72.645  0.00  0.00    -0.082 Cl
ATOM      7  C   UNL     1     -12.258  13.521  70.255  0.00  0.00    +0.011 A 
ATOM      8  C   UNL     1     -11.349  13.860  69.259  0.00  0.00    -0.002 A 
ENDBRANCH   1   2
BRANCH   1   9
ATOM      9  C   UNL     1     -11.012  14.191  67.092  0.00  0.00    -0.004 A 
ATOM     10  C   UNL     1      -9.937  13.438  66.789  0.00  0.00    -0.003 A 
ATOM     11  C   UNL     1     -10.179  12.221  66.161  0.00  0.00    -0.000 A 
ATOM     12  C   UNL     1     -11.384  12.068  65.485  0.00  0.00    -0.000 A 
ATOM     13  C   UNL     1     -12.353  13.058  65.521  0.00  0.00    -0.000 A 
ATOM     14  C   UNL     1     -12.167  14.156  66.349  0.00  0.00    -0.003 A 
ENDBRANCH   1   9
BRANCH   1  18
ATOM     15  N   UNL     1      -7.427  17.907  67.824  0.00  0.00    -0.268 NA
ATOM     16  C   UNL     1      -8.517  17.829  66.887  0.00  0.00    +0.090 C 
ATOM     17  C   UNL     1      -8.835  16.432  66.441  0.00  0.00    +0.090 C 
ATOM     18  N   UNL     1      -9.113  15.528  67.527  0.00  0.00    -0.264 NA
ATOM     19  C   UNL     1      -8.689  16.138  68.782  0.00  0.00    +0.090 C 
ATOM     20  C   UNL     1      -7.313  16.732  68.660  0.00  0.00    +0.090 C 
BRANCH  15  21
ATOM     21  C   UNL     1      -7.735  19.029  68.710  0.00  0.00    +0.105 C 
BRANCH  21  22
ATOM     22  C   UNL     1      -6.649  20.085  68.556  0.00  0.00    +0.160 C 
BRANCH  22  23
ATOM     23  O   UNL     1      -5.567  19.664  69.327  0.00  0.00    -0.350 OA
BRANCH  23  24
ATOM     24  C   UNL     1      -5.571  20.278  70.589  0.00  0.00    +0.178 C 
BRANCH  24  26
ATOM     25  O   UNL     1      -5.212  19.017  71.934  0.00  0.00    -0.218 OA
ATOM     26  C   UNL     1      -5.268  19.171  71.591  0.00  0.00    +0.214 C 
ENDBRANCH  24  26
ENDBRANCH  23  24
ENDBRANCH  22  23
ENDBRANCH  21  22
ENDBRANCH  15  21
ENDBRANCH   1  18
TORSDOF 8
ENDMDL
