MODEL 1
REMARK VINA RESULT:      -7.6      0.000      0.000
REMARK  Name = 
REMARK  4 active torsions:
REMARK  status: ('A' for Active; 'I' for Inactive)
REMARK    1  A    between atoms: C_2  and  C_3
REMARK    2  A    between atoms: C_8  and  N_9
REMARK    3  A    between atoms: C_12  and  N_13
REMARK    4  A    between atoms: C_28  and  C_29
REMARK                            x       y       z     vdW  Elec       q    Type
REMARK                         _______ _______ _______ _____ _____    ______ ____
ROOT
ATOM      1  C   UNL     1     -11.506  13.528  69.406  0.00  0.00    -0.009 A 
ATOM      2  C   UNL     1     -10.331  13.611  68.669  0.00  0.00    +0.043 A 
ATOM      3  C   UNL     1      -9.830  12.408  68.185  0.00  0.00    +0.010 A 
ATOM      4  C   UNL     1     -10.254  11.189  68.643  0.00  0.00    -0.013 A 
ATOM      5  C   UNL     1      -9.640   9.895  68.261  0.00  0.00    +0.054 C 
ATOM      6  C   UNL     1      -9.601   8.962  69.431  0.00  0.00    +0.065 A 
ATOM      7  C   UNL     1     -10.689   8.881  70.288  0.00  0.00    +0.054 A 
ATOM      8  C   UNL     1     -11.688   9.947  70.154  0.00  0.00    +0.196 C 
ATOM      9  O   UNL     1     -12.734   9.826  70.840  0.00  0.00    -0.287 OA
ATOM     10  C   UNL     1     -10.369   8.073  71.373  0.00  0.00    +0.022 A 
ATOM     11  C   UNL     1      -9.103   7.583  71.093  0.00  0.00    +0.082 A 
ATOM     12  C   UNL     1      -8.637   6.590  71.946  0.00  0.00    +0.029 A 
ATOM     13  C   UNL     1      -9.280   6.292  73.131  0.00  0.00    +0.070 A 
ATOM     14  C   UNL     1     -10.157   7.243  73.625  0.00  0.00    +0.010 A 
ATOM     15  C   UNL     1     -10.768   8.062  72.703  0.00  0.00    +0.002 A 
ATOM     16  N   UNL     1      -8.725   8.056  69.887  0.00  0.00    -0.249 NA
ATOM     17  C   UNL     1     -10.562   9.241  67.238  0.00  0.00    +0.010 C 
ATOM     18  C   UNL     1      -8.253  10.045  67.706  0.00  0.00    +0.010 C 
ATOM     19  C   UNL     1     -11.463  11.130  69.316  0.00  0.00    +0.035 A 
ATOM     20  C   UNL     1     -12.146  12.308  69.588  0.00  0.00    -0.000 A 
ENDROOT
BRANCH   2  21
ATOM     21  N   UNL     1     -10.059  14.789  67.901  0.00  0.00    -0.308 N 
ATOM     22  C   UNL     1     -10.353  14.702  66.484  0.00  0.00    +0.092 C 
ATOM     23  C   UNL     1     -10.100  15.985  65.750  0.00  0.00    +0.037 C 
ATOM     24  C   UNL     1      -8.775  16.624  66.125  0.00  0.00    +0.061 C 
ATOM     25  C   UNL     1      -8.029  15.606  66.981  0.00  0.00    +0.037 C 
ATOM     26  C   UNL     1      -8.837  15.499  68.270  0.00  0.00    +0.092 C 
BRANCH  24  27
ATOM     27  N   UNL     1      -9.104  17.722  67.031  0.00  0.00    -0.270 NA
ATOM     28  C   UNL     1      -8.022  18.673  66.939  0.00  0.00    +0.105 C 
ATOM     29  C   UNL     1      -8.371  19.971  67.622  0.00  0.00    +0.159 C 
ATOM     30  O   UNL     1      -9.556  20.469  67.075  0.00  0.00    -0.351 OA
ATOM     31  C   UNL     1     -10.563  19.561  67.423  0.00  0.00    +0.159 C 
ATOM     32  C   UNL     1     -10.386  18.273  66.672  0.00  0.00    +0.105 C 
ENDBRANCH  24  27
ENDBRANCH   2  21
BRANCH   1  34
ATOM     33  C   UNL     1     -12.436  14.394  71.457  0.00  0.00    +0.005 C 
ATOM     34  C   UNL     1     -11.990  14.780  70.056  0.00  0.00    +0.028 C 
ENDBRANCH   1  34
BRANCH  13  35
ATOM     35  C   UNL     1      -9.024   5.053  73.816  0.00  0.00    +0.100 C 
ATOM     36  N   UNL     1      -8.673   4.101  74.376  0.00  0.00    -0.191 NA
ENDBRANCH  13  35
TORSDOF 4
ENDMDL
MODEL 2
REMARK VINA RESULT:      -7.6      1.375      1.825
REMARK  Name = 
REMARK  4 active torsions:
REMARK  status: ('A' for Active; 'I' for Inactive)
REMARK    1  A    between atoms: C_2  and  C_3
REMARK    2  A    between atoms: C_8  and  N_9
REMARK    3  A    between atoms: C_12  and  N_13
REMARK    4  A    between atoms: C_28  and  C_29
REMARK                            x       y       z     vdW  Elec       q    Type
REMARK                         _______ _______ _______ _____ _____    ______ ____
ROOT
ATOM      1  C   UNL     1     -11.223  14.797  69.929  0.00  0.00    -0.009 A 
ATOM      2  C   UNL     1     -10.106  14.816  69.103  0.00  0.00    +0.043 A 
ATOM      3  C   UNL     1      -9.876  13.663  68.363  0.00  0.00    +0.010 A 
ATOM      4  C   UNL     1     -10.491  12.470  68.636  0.00  0.00    -0.013 A 
ATOM      5  C   UNL     1     -10.161  11.188  67.967  0.00  0.00    +0.054 C 
ATOM      6  C   UNL     1     -10.220  10.054  68.941  0.00  0.00    +0.065 A 
ATOM      7  C   UNL     1     -11.244   9.997  69.877  0.00  0.00    +0.054 A 
ATOM      8  C   UNL     1     -12.029  11.225  70.038  0.00  0.00    +0.196 C 
ATOM      9  O   UNL     1     -13.030  11.156  70.794  0.00  0.00    -0.287 OA
ATOM     10  C   UNL     1     -11.010   8.950  70.761  0.00  0.00    +0.022 A 
ATOM     11  C   UNL     1      -9.881   8.312  70.270  0.00  0.00    +0.082 A 
ATOM     12  C   UNL     1      -9.555   7.106  70.879  0.00  0.00    +0.029 A 
ATOM     13  C   UNL     1     -10.161   6.700  72.051  0.00  0.00    +0.070 A 
ATOM     14  C   UNL     1     -10.807   7.673  72.794  0.00  0.00    +0.010 A 
ATOM     15  C   UNL     1     -11.313   8.750  72.101  0.00  0.00    +0.002 A 
ATOM     16  N   UNL     1      -9.502   8.938  69.136  0.00  0.00    -0.249 NA
ATOM     17  C   UNL     1     -11.257  10.916  66.943  0.00  0.00    +0.010 C 
ATOM     18  C   UNL     1      -8.810  11.201  67.309  0.00  0.00    +0.010 C 
ATOM     19  C   UNL     1     -11.641  12.491  69.407  0.00  0.00    +0.035 A 
ATOM     20  C   UNL     1     -12.069  13.694  69.954  0.00  0.00    -0.000 A 
ENDROOT
BRANCH   2  21
ATOM     21  N   UNL     1      -9.669  16.056  68.534  0.00  0.00    -0.308 N 
ATOM     22  C   UNL     1     -10.713  16.916  68.012  0.00  0.00    +0.092 C 
ATOM     23  C   UNL     1     -10.193  18.219  67.483  0.00  0.00    +0.037 C 
ATOM     24  C   UNL     1      -8.961  18.051  66.613  0.00  0.00    +0.061 C 
ATOM     25  C   UNL     1      -8.793  16.552  66.384  0.00  0.00    +0.037 C 
ATOM     26  C   UNL     1      -8.438  15.976  67.751  0.00  0.00    +0.092 C 
BRANCH  24  27
ATOM     27  N   UNL     1      -7.826  18.442  67.446  0.00  0.00    -0.270 NA
ATOM     28  C   UNL     1      -6.789  18.890  66.548  0.00  0.00    +0.105 C 
ATOM     29  C   UNL     1      -5.669  19.569  67.296  0.00  0.00    +0.159 C 
ATOM     30  O   UNL     1      -6.198  20.618  68.052  0.00  0.00    -0.351 OA
ATOM     31  C   UNL     1      -7.018  20.030  69.023  0.00  0.00    +0.159 C 
ATOM     32  C   UNL     1      -8.248  19.450  68.387  0.00  0.00    +0.105 C 
ENDBRANCH  24  27
ENDBRANCH   2  21
BRANCH   1  34
ATOM     33  C   UNL     1     -11.843  15.395  72.182  0.00  0.00    +0.005 C 
ATOM     34  C   UNL     1     -11.417  15.962  70.839  0.00  0.00    +0.028 C 
ENDBRANCH   1  34
BRANCH  13  35
ATOM     35  C   UNL     1     -10.100   5.325  72.473  0.00  0.00    +0.100 C 
ATOM     36  N   UNL     1     -10.200   4.211  72.778  0.00  0.00    -0.191 NA
ENDBRANCH  13  35
TORSDOF 4
ENDMDL
MODEL 3
REMARK VINA RESULT:      -7.4      1.194      1.364
REMARK  Name = 
REMARK  4 active torsions:
REMARK  status: ('A' for Active; 'I' for Inactive)
REMARK    1  A    between atoms: C_2  and  C_3
REMARK    2  A    between atoms: C_8  and  N_9
REMARK    3  A    between atoms: C_12  and  N_13
REMARK    4  A    between atoms: C_28  and  C_29
REMARK                            x       y       z     vdW  Elec       q    Type
REMARK                         _______ _______ _______ _____ _____    ______ ____
ROOT
ATOM      1  C   UNL     1     -10.834  14.434  69.271  0.00  0.00    -0.009 A 
ATOM      2  C   UNL     1      -9.632  14.311  68.584  0.00  0.00    +0.043 A 
ATOM      3  C   UNL     1      -9.378  13.067  68.020  0.00  0.00    +0.010 A 
ATOM      4  C   UNL     1     -10.078  11.940  68.360  0.00  0.00    -0.013 A 
ATOM      5  C   UNL     1      -9.739  10.574  67.894  0.00  0.00    +0.054 C 
ATOM      6  C   UNL     1      -9.963   9.572  68.983  0.00  0.00    +0.065 A 
ATOM      7  C   UNL     1     -11.086   9.669  69.793  0.00  0.00    +0.054 A 
ATOM      8  C   UNL     1     -11.823  10.935  69.712  0.00  0.00    +0.196 C 
ATOM      9  O   UNL     1     -12.905  10.996  70.349  0.00  0.00    -0.287 OA
ATOM     10  C   UNL     1     -11.005   8.734  70.817  0.00  0.00    +0.022 A 
ATOM     11  C   UNL     1      -9.861   8.000  70.542  0.00  0.00    +0.082 A 
ATOM     12  C   UNL     1      -9.665   6.869  71.326  0.00  0.00    +0.029 A 
ATOM     13  C   UNL     1     -10.418   6.633  72.459  0.00  0.00    +0.070 A 
ATOM     14  C   UNL     1     -11.094   7.714  72.999  0.00  0.00    +0.010 A 
ATOM     15  C   UNL     1     -11.466   8.713  72.127  0.00  0.00    +0.002 A 
ATOM     16  N   UNL     1      -9.328   8.465  69.393  0.00  0.00    -0.249 NA
ATOM     17  C   UNL     1     -10.726  10.215  66.789  0.00  0.00    +0.010 C 
ATOM     18  C   UNL     1      -8.325  10.456  67.402  0.00  0.00    +0.010 C 
ATOM     19  C   UNL     1     -11.304  12.098  68.983  0.00  0.00    +0.035 A 
ATOM     20  C   UNL     1     -11.731  13.374  69.328  0.00  0.00    -0.000 A 
ENDROOT
BRANCH   2  21
ATOM     21  N   UNL     1      -9.073  15.454  67.926  0.00  0.00    -0.308 N 
ATOM     22  C   UNL     1      -9.137  15.444  66.478  0.00  0.00    +0.092 C 
ATOM     23  C   UNL     1      -8.586  16.692  65.855  0.00  0.00    +0.037 C 
ATOM     24  C   UNL     1      -7.266  17.121  66.468  0.00  0.00    +0.061 C 
ATOM     25  C   UNL     1      -6.823  15.985  67.385  0.00  0.00    +0.037 C 
ATOM     26  C   UNL     1      -7.841  15.968  68.520  0.00  0.00    +0.092 C 
BRANCH  24  27
ATOM     27  N   UNL     1      -7.582  18.234  67.361  0.00  0.00    -0.270 NA
ATOM     28  C   UNL     1      -6.346  18.943  67.593  0.00  0.00    +0.105 C 
ATOM     29  C   UNL     1      -6.589  20.263  68.280  0.00  0.00    +0.159 C 
ATOM     30  O   UNL     1      -7.490  21.012  67.519  0.00  0.00    -0.351 OA
ATOM     31  C   UNL     1      -8.707  20.322  67.556  0.00  0.00    +0.159 C 
ATOM     32  C   UNL     1      -8.610  19.049  66.764  0.00  0.00    +0.105 C 
ENDBRANCH  24  27
ENDBRANCH   2  21
BRANCH   1  34
ATOM     33  C   UNL     1     -12.383  15.543  70.751  0.00  0.00    +0.005 C 
ATOM     34  C   UNL     1     -11.070  15.710  70.005  0.00  0.00    +0.028 C 
ENDBRANCH   1  34
BRANCH  13  35
ATOM     35  C   UNL     1     -10.472   5.321  73.047  0.00  0.00    +0.100 C 
ATOM     36  N   UNL     1     -10.667   4.287  73.534  0.00  0.00    -0.191 NA
ENDBRANCH  13  35
TORSDOF 4
ENDMDL
MODEL 4
REMARK VINA RESULT:      -7.2      3.453      5.585
REMARK  Name = 
REMARK  4 active torsions:
REMARK  status: ('A' for Active; 'I' for Inactive)
REMARK    1  A    between atoms: C_2  and  C_3
REMARK    2  A    between atoms: C_8  and  N_9
REMARK    3  A    between atoms: C_12  and  N_13
REMARK    4  A    between atoms: C_28  and  C_29
REMARK                            x       y       z     vdW  Elec       q    Type
REMARK                         _______ _______ _______ _____ _____    ______ ____
ROOT
ATOM      1  C   UNL     1      -8.961  17.707  67.902  0.00  0.00    -0.009 A 
ATOM      2  C   UNL     1      -8.163  16.977  67.029  0.00  0.00    +0.043 A 
ATOM      3  C   UNL     1      -8.760  15.869  66.440  0.00  0.00    +0.010 A 
ATOM      4  C   UNL     1      -9.929  15.323  66.900  0.00  0.00    -0.013 A 
ATOM      5  C   UNL     1     -10.514  14.058  66.395  0.00  0.00    +0.054 C 
ATOM      6  C   UNL     1     -11.125  13.274  67.514  0.00  0.00    +0.065 A 
ATOM      7  C   UNL     1     -11.858  13.926  68.496  0.00  0.00    +0.054 A 
ATOM      8  C   UNL     1     -11.725  15.386  68.527  0.00  0.00    +0.196 C 
ATOM      9  O   UNL     1     -12.470  16.000  69.332  0.00  0.00    -0.287 OA
ATOM     10  C   UNL     1     -12.195  13.026  69.500  0.00  0.00    +0.022 A 
ATOM     11  C   UNL     1     -11.742  11.797  69.047  0.00  0.00    +0.082 A 
ATOM     12  C   UNL     1     -12.132  10.694  69.797  0.00  0.00    +0.029 A 
ATOM     13  C   UNL     1     -12.717  10.834  71.040  0.00  0.00    +0.070 A 
ATOM     14  C   UNL     1     -12.558  12.053  71.675  0.00  0.00    +0.010 A 
ATOM     15  C   UNL     1     -12.396  13.157  70.868  0.00  0.00    +0.002 A 
ATOM     16  N   UNL     1     -11.201  11.972  67.823  0.00  0.00    -0.249 NA
ATOM     17  C   UNL     1     -11.667  14.430  65.469  0.00  0.00    +0.010 C 
ATOM     18  C   UNL     1      -9.515  13.194  65.679  0.00  0.00    +0.010 C 
ATOM     19  C   UNL     1     -10.735  16.100  67.714  0.00  0.00    +0.035 A 
ATOM     20  C   UNL     1     -10.289  17.353  68.114  0.00  0.00    -0.000 A 
ENDROOT
BRANCH   2  21
ATOM     21  N   UNL     1      -7.142  17.646  66.279  0.00  0.00    -0.308 N 
ATOM     22  C   UNL     1      -5.796  17.539  66.807  0.00  0.00    +0.092 C 
ATOM     23  C   UNL     1      -4.770  18.212  65.946  0.00  0.00    +0.037 C 
ATOM     24  C   UNL     1      -5.205  19.591  65.484  0.00  0.00    +0.061 C 
ATOM     25  C   UNL     1      -6.479  19.925  66.253  0.00  0.00    +0.037 C 
ATOM     26  C   UNL     1      -7.527  18.946  65.734  0.00  0.00    +0.092 C 
BRANCH  24  27
ATOM     27  N   UNL     1      -5.625  19.433  64.093  0.00  0.00    -0.270 NA
ATOM     28  C   UNL     1      -5.838  20.761  63.571  0.00  0.00    +0.105 C 
ATOM     29  C   UNL     1      -6.015  20.742  62.074  0.00  0.00    +0.159 C 
ATOM     30  O   UNL     1      -4.906  20.121  61.493  0.00  0.00    -0.351 OA
ATOM     31  C   UNL     1      -4.940  18.785  61.908  0.00  0.00    +0.159 C 
ATOM     32  C   UNL     1      -4.625  18.685  63.373  0.00  0.00    +0.105 C 
ENDBRANCH  24  27
ENDBRANCH   2  21
BRANCH   1  34
ATOM     33  C   UNL     1      -9.394  19.839  68.943  0.00  0.00    +0.005 C 
ATOM     34  C   UNL     1      -8.309  18.816  68.655  0.00  0.00    +0.028 C 
ENDBRANCH   1  34
BRANCH  13  35
ATOM     35  C   UNL     1     -13.441   9.744  71.639  0.00  0.00    +0.100 C 
ATOM     36  N   UNL     1     -14.020   8.948  72.252  0.00  0.00    -0.191 NA
ENDBRANCH  13  35
TORSDOF 4
ENDMDL
MODEL 5
REMARK VINA RESULT:      -7.1      2.760      3.745
REMARK  Name = 
REMARK  4 active torsions:
REMARK  status: ('A' for Active; 'I' for Inactive)
REMARK    1  A    between atoms: C_2  and  C_3
REMARK    2  A    between atoms: C_8  and  N_9
REMARK    3  A    between atoms: C_12  and  N_13
REMARK    4  A    between atoms: C_28  and  C_29
REMARK                            x       y       z     vdW  Elec       q    Type
REMARK                         _______ _______ _______ _____ _____    ______ ____
ROOT
ATOM      1  C   UNL     1     -10.646  14.815  69.007  0.00  0.00    -0.009 A 
ATOM      2  C   UNL     1      -9.969  15.226  67.864  0.00  0.00    +0.043 A 
ATOM      3  C   UNL     1     -10.177  14.459  66.725  0.00  0.00    +0.010 A 
ATOM      4  C   UNL     1     -10.740  13.211  66.762  0.00  0.00    -0.013 A 
ATOM      5  C   UNL     1     -10.839  12.305  65.593  0.00  0.00    +0.054 C 
ATOM      6  C   UNL     1     -10.606  10.884  66.003  0.00  0.00    +0.065 A 
ATOM      7  C   UNL     1     -11.156  10.405  67.183  0.00  0.00    +0.054 A 
ATOM      8  C   UNL     1     -11.682  11.421  68.100  0.00  0.00    +0.196 C 
ATOM      9  O   UNL     1     -12.287  10.999  69.118  0.00  0.00    -0.287 OA
ATOM     10  C   UNL     1     -10.685   9.121  67.430  0.00  0.00    +0.022 A 
ATOM     11  C   UNL     1      -9.924   8.798  66.316  0.00  0.00    +0.082 A 
ATOM     12  C   UNL     1      -9.497   7.478  66.237  0.00  0.00    +0.029 A 
ATOM     13  C   UNL     1      -9.607   6.616  67.309  0.00  0.00    +0.070 A 
ATOM     14  C   UNL     1      -9.793   7.187  68.557  0.00  0.00    +0.010 A 
ATOM     15  C   UNL     1     -10.431   8.407  68.593  0.00  0.00    +0.002 A 
ATOM     16  N   UNL     1      -9.984   9.832  65.451  0.00  0.00    -0.249 NA
ATOM     17  C   UNL     1     -12.279  12.363  65.096  0.00  0.00    +0.010 C 
ATOM     18  C   UNL     1      -9.883  12.662  64.491  0.00  0.00    +0.010 C 
ATOM     19  C   UNL     1     -11.464  12.856  67.887  0.00  0.00    +0.035 A 
ATOM     20  C   UNL     1     -11.511  13.729  68.967  0.00  0.00    -0.000 A 
ENDROOT
BRANCH   2  21
ATOM     21  N   UNL     1      -9.684  16.617  67.673  0.00  0.00    -0.308 N 
ATOM     22  C   UNL     1     -10.746  17.536  68.033  0.00  0.00    +0.092 C 
ATOM     23  C   UNL     1     -10.362  18.975  67.861  0.00  0.00    +0.037 C 
ATOM     24  C   UNL     1      -9.658  19.242  66.544  0.00  0.00    +0.061 C 
ATOM     25  C   UNL     1      -9.778  17.964  65.720  0.00  0.00    +0.037 C 
ATOM     26  C   UNL     1      -8.933  16.932  66.460  0.00  0.00    +0.092 C 
BRANCH  24  27
ATOM     27  N   UNL     1      -8.238  19.361  66.866  0.00  0.00    -0.270 NA
ATOM     28  C   UNL     1      -7.629  20.103  65.789  0.00  0.00    +0.105 C 
ATOM     29  C   UNL     1      -6.222  20.521  66.134  0.00  0.00    +0.159 C 
ATOM     30  O   UNL     1      -6.244  21.248  67.327  0.00  0.00    -0.351 OA
ATOM     31  C   UNL     1      -6.644  20.354  68.327  0.00  0.00    +0.159 C 
ATOM     32  C   UNL     1      -8.090  19.991  68.154  0.00  0.00    +0.105 C 
ENDBRANCH  24  27
ENDBRANCH   2  21
BRANCH   1  34
ATOM     33  C   UNL     1     -11.636  15.616  71.055  0.00  0.00    +0.005 C 
ATOM     34  C   UNL     1     -10.335  15.532  70.276  0.00  0.00    +0.028 C 
ENDBRANCH   1  34
BRANCH  13  35
ATOM     35  C   UNL     1      -9.513   5.192  67.122  0.00  0.00    +0.100 C 
ATOM     36  N   UNL     1      -9.531   4.034  67.092  0.00  0.00    -0.191 NA
ENDBRANCH  13  35
TORSDOF 4
ENDMDL
MODEL 6
REMARK VINA RESULT:      -7.0      3.270      5.226
REMARK  Name = 
REMARK  4 active torsions:
REMARK  status: ('A' for Active; 'I' for Inactive)
REMARK    1  A    between atoms: C_2  and  C_3
REMARK    2  A    between atoms: C_8  and  N_9
REMARK    3  A    between atoms: C_12  and  N_13
REMARK    4  A    between atoms: C_28  and  C_29
REMARK                            x       y       z     vdW  Elec       q    Type
REMARK                         _______ _______ _______ _____ _____    ______ ____
ROOT
ATOM      1  C   UNL     1      -9.065  17.463  68.131  0.00  0.00    -0.009 A 
ATOM      2  C   UNL     1      -7.907  16.771  67.795  0.00  0.00    +0.043 A 
ATOM      3  C   UNL     1      -8.086  15.468  67.346  0.00  0.00    +0.010 A 
ATOM      4  C   UNL     1      -9.258  14.780  67.510  0.00  0.00    -0.013 A 
ATOM      5  C   UNL     1      -9.436  13.345  67.181  0.00  0.00    +0.054 C 
ATOM      6  C   UNL     1     -10.315  12.676  68.192  0.00  0.00    +0.065 A 
ATOM      7  C   UNL     1     -11.444  13.328  68.668  0.00  0.00    +0.054 A 
ATOM      8  C   UNL     1     -11.527  14.761  68.366  0.00  0.00    +0.196 C 
ATOM      9  O   UNL     1     -12.595  15.341  68.687  0.00  0.00    -0.287 OA
ATOM     10  C   UNL     1     -12.012  12.586  69.697  0.00  0.00    +0.022 A 
ATOM     11  C   UNL     1     -11.262  11.421  69.754  0.00  0.00    +0.082 A 
ATOM     12  C   UNL     1     -11.757  10.424  70.586  0.00  0.00    +0.029 A 
ATOM     13  C   UNL     1     -12.780  10.668  71.480  0.00  0.00    +0.070 A 
ATOM     14  C   UNL     1     -13.035  11.992  71.796  0.00  0.00    +0.010 A 
ATOM     15  C   UNL     1     -12.729  12.930  70.835  0.00  0.00    +0.002 A 
ATOM     16  N   UNL     1     -10.329  11.472  68.781  0.00  0.00    -0.249 NA
ATOM     17  C   UNL     1     -10.193  13.274  65.860  0.00  0.00    +0.010 C 
ATOM     18  C   UNL     1      -8.136  12.598  67.089  0.00  0.00    +0.010 C 
ATOM     19  C   UNL     1     -10.407  15.504  67.778  0.00  0.00    +0.035 A 
ATOM     20  C   UNL     1     -10.315  16.877  67.968  0.00  0.00    -0.000 A 
ENDROOT
BRANCH   2  21
ATOM     21  N   UNL     1      -6.777  17.490  67.286  0.00  0.00    -0.308 N 
ATOM     22  C   UNL     1      -6.800  17.781  65.866  0.00  0.00    +0.092 C 
ATOM     23  C   UNL     1      -5.616  18.582  65.411  0.00  0.00    +0.037 C 
ATOM     24  C   UNL     1      -4.305  18.063  65.971  0.00  0.00    +0.061 C 
ATOM     25  C   UNL     1      -4.618  16.733  66.650  0.00  0.00    +0.037 C 
ATOM     26  C   UNL     1      -5.489  17.093  67.850  0.00  0.00    +0.092 C 
BRANCH  24  27
ATOM     27  N   UNL     1      -3.945  18.973  67.056  0.00  0.00    -0.270 NA
ATOM     28  C   UNL     1      -2.539  18.779  67.312  0.00  0.00    +0.105 C 
ATOM     29  C   UNL     1      -1.991  19.848  68.224  0.00  0.00    +0.159 C 
ATOM     30  O   UNL     1      -2.256  21.100  67.666  0.00  0.00    -0.351 OA
ATOM     31  C   UNL     1      -3.647  21.251  67.676  0.00  0.00    +0.159 C 
ATOM     32  C   UNL     1      -4.281  20.323  66.680  0.00  0.00    +0.105 C 
ENDBRANCH  24  27
ENDBRANCH   2  21
BRANCH   1  34
ATOM     33  C   UNL     1      -9.745  19.769  67.927  0.00  0.00    +0.005 C 
ATOM     34  C   UNL     1      -8.898  18.810  68.747  0.00  0.00    +0.028 C 
ENDBRANCH   1  34
BRANCH  13  35
ATOM     35  C   UNL     1     -13.526   9.583  72.060  0.00  0.00    +0.100 C 
ATOM     36  N   UNL     1     -14.231   8.814  72.566  0.00  0.00    -0.191 NA
ENDBRANCH  13  35
TORSDOF 4
ENDMDL
MODEL 7
REMARK VINA RESULT:      -7.0      1.532      2.266
REMARK  Name = 
REMARK  4 active torsions:
REMARK  status: ('A' for Active; 'I' for Inactive)
REMARK    1  A    between atoms: C_2  and  C_3
REMARK    2  A    between atoms: C_8  and  N_9
REMARK    3  A    between atoms: C_12  and  N_13
REMARK    4  A    between atoms: C_28  and  C_29
REMARK                            x       y       z     vdW  Elec       q    Type
REMARK                         _______ _______ _______ _____ _____    ______ ____
ROOT
ATOM      1  C   UNL     1     -11.891  11.555  70.191  0.00  0.00    -0.009 A 
ATOM      2  C   UNL     1     -10.794  11.635  69.340  0.00  0.00    +0.043 A 
ATOM      3  C   UNL     1     -10.222  10.424  68.970  0.00  0.00    +0.010 A 
ATOM      4  C   UNL     1     -10.487   9.247  69.619  0.00  0.00    -0.013 A 
ATOM      5  C   UNL     1      -9.785   7.969  69.350  0.00  0.00    +0.054 C 
ATOM      6  C   UNL     1      -9.559   7.213  70.621  0.00  0.00    +0.065 A 
ATOM      7  C   UNL     1     -10.559   7.158  71.582  0.00  0.00    +0.054 A 
ATOM      8  C   UNL     1     -11.663   8.107  71.407  0.00  0.00    +0.196 C 
ATOM      9  O   UNL     1     -12.632   7.993  72.200  0.00  0.00    -0.287 OA
ATOM     10  C   UNL     1     -10.073   6.536  72.726  0.00  0.00    +0.022 A 
ATOM     11  C   UNL     1      -8.793   6.121  72.392  0.00  0.00    +0.082 A 
ATOM     12  C   UNL     1      -8.163   5.297  73.317  0.00  0.00    +0.029 A 
ATOM     13  C   UNL     1      -8.674   5.111  74.587  0.00  0.00    +0.070 A 
ATOM     14  C   UNL     1      -9.595   6.043  75.036  0.00  0.00    +0.010 A 
ATOM     15  C   UNL     1     -10.357   6.674  74.078  0.00  0.00    +0.002 A 
ATOM     16  N   UNL     1      -8.564   6.455  71.105  0.00  0.00    -0.249 NA
ATOM     17  C   UNL     1     -10.721   7.106  68.512  0.00  0.00    +0.010 C 
ATOM     18  C   UNL     1      -8.469   8.159  68.650  0.00  0.00    +0.010 C 
ATOM     19  C   UNL     1     -11.624   9.179  70.406  0.00  0.00    +0.035 A 
ATOM     20  C   UNL     1     -12.393  10.321  70.588  0.00  0.00    -0.000 A 
ENDROOT
BRANCH   2  21
ATOM     21  N   UNL     1     -10.703  12.715  68.404  0.00  0.00    -0.308 N 
ATOM     22  C   UNL     1     -11.645  12.680  67.303  0.00  0.00    +0.092 C 
ATOM     23  C   UNL     1     -11.533  13.867  66.394  0.00  0.00    +0.037 C 
ATOM     24  C   UNL     1     -10.095  14.201  66.039  0.00  0.00    +0.061 C 
ATOM     25  C   UNL     1      -9.240  13.053  66.565  0.00  0.00    +0.037 C 
ATOM     26  C   UNL     1      -9.342  13.141  68.084  0.00  0.00    +0.092 C 
BRANCH  24  27
ATOM     27  N   UNL     1      -9.738  15.355  66.863  0.00  0.00    -0.270 NA
ATOM     28  C   UNL     1      -8.677  16.044  66.171  0.00  0.00    +0.105 C 
ATOM     29  C   UNL     1      -8.406  17.395  66.784  0.00  0.00    +0.159 C 
ATOM     30  O   UNL     1      -9.592  18.134  66.798  0.00  0.00    -0.351 OA
ATOM     31  C   UNL     1     -10.459  17.472  67.674  0.00  0.00    +0.159 C 
ATOM     32  C   UNL     1     -10.908  16.168  67.080  0.00  0.00    +0.105 C 
ENDBRANCH  24  27
ENDBRANCH   2  21
BRANCH   1  34
ATOM     33  C   UNL     1     -13.238  12.488  71.961  0.00  0.00    +0.005 C 
ATOM     34  C   UNL     1     -12.438  12.838  70.717  0.00  0.00    +0.028 C 
ENDBRANCH   1  34
BRANCH  13  35
ATOM     35  C   UNL     1      -8.244   4.003  75.398  0.00  0.00    +0.100 C 
ATOM     36  N   UNL     1      -8.038   3.052  76.028  0.00  0.00    -0.191 NA
ENDBRANCH  13  35
TORSDOF 4
ENDMDL
MODEL 8
REMARK VINA RESULT:      -6.7      1.907      2.389
REMARK  Name = 
REMARK  4 active torsions:
REMARK  status: ('A' for Active; 'I' for Inactive)
REMARK    1  A    between atoms: C_2  and  C_3
REMARK    2  A    between atoms: C_8  and  N_9
REMARK    3  A    between atoms: C_12  and  N_13
REMARK    4  A    between atoms: C_28  and  C_29
REMARK                            x       y       z     vdW  Elec       q    Type
REMARK                         _______ _______ _______ _____ _____    ______ ____
ROOT
ATOM      1  C   UNL     1     -10.545  12.791  67.212  0.00  0.00    -0.009 A 
ATOM      2  C   UNL     1      -9.516  13.378  67.940  0.00  0.00    +0.043 A 
ATOM      3  C   UNL     1      -8.500  12.525  68.353  0.00  0.00    +0.010 A 
ATOM      4  C   UNL     1      -8.624  11.161  68.341  0.00  0.00    -0.013 A 
ATOM      5  C   UNL     1      -7.624  10.227  68.912  0.00  0.00    +0.054 C 
ATOM      6  C   UNL     1      -8.301   9.069  69.575  0.00  0.00    +0.065 A 
ATOM      7  C   UNL     1      -9.403   8.475  68.977  0.00  0.00    +0.054 A 
ATOM      8  C   UNL     1     -10.012   9.228  67.875  0.00  0.00    +0.196 C 
ATOM      9  O   UNL     1     -10.937   8.654  67.247  0.00  0.00    -0.287 OA
ATOM     10  C   UNL     1      -9.949   7.531  69.837  0.00  0.00    +0.022 A 
ATOM     11  C   UNL     1      -9.085   7.492  70.921  0.00  0.00    +0.082 A 
ATOM     12  C   UNL     1      -9.314   6.476  71.841  0.00  0.00    +0.029 A 
ATOM     13  C   UNL     1     -10.467   5.717  71.810  0.00  0.00    +0.070 A 
ATOM     14  C   UNL     1     -11.539   6.232  71.100  0.00  0.00    +0.010 A 
ATOM     15  C   UNL     1     -11.241   7.066  70.045  0.00  0.00    +0.002 A 
ATOM     16  N   UNL     1      -8.069   8.347  70.682  0.00  0.00    -0.249 NA
ATOM     17  C   UNL     1      -6.837   9.638  67.747  0.00  0.00    +0.010 C 
ATOM     18  C   UNL     1      -6.701  10.887  69.897  0.00  0.00    +0.010 C 
ATOM     19  C   UNL     1      -9.617  10.604  67.554  0.00  0.00    +0.035 A 
ATOM     20  C   UNL     1     -10.506  11.440  66.890  0.00  0.00    -0.000 A 
ENDROOT
BRANCH   2  21
ATOM     21  N   UNL     1      -9.163  14.743  67.689  0.00  0.00    -0.308 N 
ATOM     22  C   UNL     1      -7.982  14.952  66.875  0.00  0.00    +0.092 C 
ATOM     23  C   UNL     1      -7.701  16.400  66.605  0.00  0.00    +0.037 C 
ATOM     24  C   UNL     1      -7.824  17.263  67.848  0.00  0.00    +0.061 C 
ATOM     25  C   UNL     1      -7.980  16.308  69.026  0.00  0.00    +0.037 C 
ATOM     26  C   UNL     1      -9.339  15.645  68.826  0.00  0.00    +0.092 C 
BRANCH  24  27
ATOM     27  N   UNL     1      -9.110  17.948  67.734  0.00  0.00    -0.270 NA
ATOM     28  C   UNL     1      -9.022  19.134  68.551  0.00  0.00    +0.105 C 
ATOM     29  C   UNL     1     -10.187  20.059  68.306  0.00  0.00    +0.159 C 
ATOM     30  O   UNL     1     -10.248  20.362  66.943  0.00  0.00    -0.351 OA
ATOM     31  C   UNL     1     -10.553  19.166  66.286  0.00  0.00    +0.159 C 
ATOM     32  C   UNL     1      -9.385  18.224  66.346  0.00  0.00    +0.105 C 
ENDBRANCH  24  27
ENDBRANCH   2  21
BRANCH   1  34
ATOM     33  C   UNL     1     -12.259  13.142  65.551  0.00  0.00    +0.005 C 
ATOM     34  C   UNL     1     -11.716  13.650  66.877  0.00  0.00    +0.028 C 
ENDBRANCH   1  34
BRANCH  13  35
ATOM     35  C   UNL     1     -10.539   4.459  72.505  0.00  0.00    +0.100 C 
ATOM     36  N   UNL     1     -10.686   3.518  73.167  0.00  0.00    -0.191 NA
ENDBRANCH  13  35
TORSDOF 4
ENDMDL
MODEL 9
REMARK VINA RESULT:      -6.6      5.061      6.673
REMARK  Name = 
REMARK  4 active torsions:
REMARK  status: ('A' for Active; 'I' for Inactive)
REMARK    1  A    between atoms: C_2  and  C_3
REMARK    2  A    between atoms: C_8  and  N_9
REMARK    3  A    between atoms: C_12  and  N_13
REMARK    4  A    between atoms: C_28  and  C_29
REMARK                            x       y       z     vdW  Elec       q    Type
REMARK                         _______ _______ _______ _____ _____    ______ ____
ROOT
ATOM      1  C   UNL     1      -7.265  14.606  68.207  0.00  0.00    -0.009 A 
ATOM      2  C   UNL     1      -7.804  15.648  67.461  0.00  0.00    +0.043 A 
ATOM      3  C   UNL     1      -8.936  15.340  66.716  0.00  0.00    +0.010 A 
ATOM      4  C   UNL     1      -9.330  14.054  66.460  0.00  0.00    -0.013 A 
ATOM      5  C   UNL     1     -10.440  13.687  65.548  0.00  0.00    +0.054 C 
ATOM      6  C   UNL     1     -10.103  12.450  64.776  0.00  0.00    +0.065 A 
ATOM      7  C   UNL     1      -9.470  11.390  65.408  0.00  0.00    +0.054 A 
ATOM      8  C   UNL     1      -8.903  11.682  66.728  0.00  0.00    +0.196 C 
ATOM      9  O   UNL     1      -8.429  10.707  67.364  0.00  0.00    -0.287 OA
ATOM     10  C   UNL     1      -9.125  10.425  64.469  0.00  0.00    +0.022 A 
ATOM     11  C   UNL     1      -9.663  10.879  63.275  0.00  0.00    +0.082 A 
ATOM     12  C   UNL     1      -9.616   9.986  62.211  0.00  0.00    +0.029 A 
ATOM     13  C   UNL     1      -8.866   8.828  62.270  0.00  0.00    +0.070 A 
ATOM     14  C   UNL     1      -7.879   8.769  63.239  0.00  0.00    +0.010 A 
ATOM     15  C   UNL     1      -8.086   9.508  64.383  0.00  0.00    +0.002 A 
ATOM     16  N   UNL     1     -10.318  12.034  63.519  0.00  0.00    -0.249 NA
ATOM     17  C   UNL     1     -11.638  13.321  66.417  0.00  0.00    +0.010 C 
ATOM     18  C   UNL     1     -10.797  14.785  64.586  0.00  0.00    +0.010 C 
ATOM     19  C   UNL     1      -8.827  13.046  67.264  0.00  0.00    +0.035 A 
ATOM     20  C   UNL     1      -7.874  13.357  68.226  0.00  0.00    -0.000 A 
ENDROOT
BRANCH   2  21
ATOM     21  N   UNL     1      -7.677  16.995  67.932  0.00  0.00    -0.308 N 
ATOM     22  C   UNL     1      -8.921  17.703  68.165  0.00  0.00    +0.092 C 
ATOM     23  C   UNL     1      -8.717  19.085  68.710  0.00  0.00    +0.037 C 
ATOM     24  C   UNL     1      -7.632  19.852  67.976  0.00  0.00    +0.061 C 
ATOM     25  C   UNL     1      -7.257  19.015  66.758  0.00  0.00    +0.037 C 
ATOM     26  C   UNL     1      -6.594  17.762  67.323  0.00  0.00    +0.092 C 
BRANCH  24  27
ATOM     27  N   UNL     1      -6.458  19.815  68.846  0.00  0.00    -0.270 NA
ATOM     28  C   UNL     1      -5.593  20.888  68.420  0.00  0.00    +0.105 C 
ATOM     29  C   UNL     1      -4.477  21.120  69.407  0.00  0.00    +0.159 C 
ATOM     30  O   UNL     1      -5.029  21.359  70.668  0.00  0.00    -0.351 OA
ATOM     31  C   UNL     1      -5.654  20.169  71.057  0.00  0.00    +0.159 C 
ATOM     32  C   UNL     1      -6.877  19.924  70.221  0.00  0.00    +0.105 C 
ENDBRANCH  24  27
ENDBRANCH   2  21
BRANCH   1  34
ATOM     33  C   UNL     1      -4.890  14.209  68.066  0.00  0.00    +0.005 C 
ATOM     34  C   UNL     1      -5.974  14.867  68.904  0.00  0.00    +0.028 C 
ENDBRANCH   1  34
BRANCH  13  35
ATOM     35  C   UNL     1      -9.102   7.750  61.347  0.00  0.00    +0.100 C 
ATOM     36  N   UNL     1      -9.414   6.962  60.556  0.00  0.00    -0.191 NA
ENDBRANCH  13  35
TORSDOF 4
ENDMDL
