MODEL 1
REMARK VINA RESULT:      -6.6      0.000      0.000
REMARK  Name = 
REMARK  4 active torsions:
REMARK  status: ('A' for Active; 'I' for Inactive)
REMARK    1  A    between atoms: O_2  and  C_3
REMARK    2  A    between atoms: C_19  and  C_20
REMARK    3  A    between atoms: C_20  and  O_21
REMARK    4  A    between atoms: O_21  and  C_22
REMARK                            x       y       z     vdW  Elec       q    Type
REMARK                         _______ _______ _______ _____ _____    ______ ____
ROOT
ATOM      1  C   UNL     1     -10.901  12.794  66.756  0.00  0.00    +0.177 C 
ATOM      2  C   UNL     1     -11.084  14.369  66.862  0.00  0.00    +0.115 C 
ATOM      3  C   UNL     1     -11.042  14.383  68.472  0.00  0.00    +0.042 C 
ATOM      4  C   UNL     1     -11.705  15.491  69.270  0.00  0.00    +0.210 C 
ATOM      5  C   UNL     1     -12.121  15.271  70.658  0.00  0.00    +0.127 C 
ATOM      6  C   UNL     1     -12.456  14.049  71.032  0.00  0.00    +0.038 C 
ATOM      7  C   UNL     1     -12.291  12.989  70.016  0.00  0.00    +0.206 C 
ATOM      8  O   UNL     1     -12.750  11.872  70.305  0.00  0.00    -0.286 OA
ATOM      9  C   UNL     1     -12.800  13.774  72.440  0.00  0.00    +0.036 C 
ATOM     10  N   UNL     1     -11.876  16.312  71.609  0.00  0.00    -0.125 NA
ATOM     11  O   UNL     1     -11.573  16.659  68.925  0.00  0.00    -0.285 OA
ATOM     12  C   UNL     1     -11.321  13.174  68.908  0.00  0.00    +0.088 C 
ATOM     13  N   UNL     1     -10.666  12.291  68.024  0.00  0.00    -0.284 N 
ATOM     14  C   UNL     1     -10.790  10.928  67.552  0.00  0.00    +0.112 C 
ATOM     15  C   UNL     1      -9.665  10.807  66.370  0.00  0.00    +0.113 C 
ATOM     16  N   UNL     1      -8.590  11.859  67.143  0.00  0.00    -0.212 NA
ATOM     17  C   UNL     1      -9.594  12.423  65.893  0.00  0.00    +0.133 C 
ENDROOT
BRANCH   1  19
ATOM     18  C   UNL     1     -12.446  12.571  65.433  0.00  0.00    +0.176 C 
ATOM     19  O   UNL     1     -12.018  12.301  66.077  0.00  0.00    -0.337 OA
ENDBRANCH   1  19
BRANCH   2  20
ATOM     20  C   UNL     1      -9.496  14.744  66.692  0.00  0.00    +0.219 C 
BRANCH  20  21
ATOM     21  O   UNL     1      -9.521  15.494  65.470  0.00  0.00    -0.432 OA
BRANCH  21  22
ATOM     22  C   UNL     1     -10.505  16.507  65.409  0.00  0.00    +0.441 C 
ATOM     23  O   UNL     1     -10.105  17.603  65.938  0.00  0.00    -0.223 OA
ATOM     24  N   UNL     1     -11.336  16.712  64.284  0.00  0.00    -0.048 NA
ENDBRANCH  21  22
ENDBRANCH  20  21
ENDBRANCH   2  20
TORSDOF 4
ENDMDL
MODEL 2
REMARK VINA RESULT:      -6.6      1.880      4.304
REMARK  Name = 
REMARK  4 active torsions:
REMARK  status: ('A' for Active; 'I' for Inactive)
REMARK    1  A    between atoms: O_2  and  C_3
REMARK    2  A    between atoms: C_19  and  C_20
REMARK    3  A    between atoms: C_20  and  O_21
REMARK    4  A    between atoms: O_21  and  C_22
REMARK                            x       y       z     vdW  Elec       q    Type
REMARK                         _______ _______ _______ _____ _____    ______ ____
ROOT
ATOM      1  C   UNL     1     -10.354  14.026  67.244  0.00  0.00    +0.177 C 
ATOM      2  C   UNL     1     -10.620  12.707  68.089  0.00  0.00    +0.115 C 
ATOM      3  C   UNL     1     -11.757  13.385  69.006  0.00  0.00    +0.042 C 
ATOM      4  C   UNL     1     -12.069  12.859  70.397  0.00  0.00    +0.210 C 
ATOM      5  C   UNL     1     -12.687  13.724  71.404  0.00  0.00    +0.127 C 
ATOM      6  C   UNL     1     -12.461  15.025  71.348  0.00  0.00    +0.038 C 
ATOM      7  C   UNL     1     -11.663  15.497  70.198  0.00  0.00    +0.206 C 
ATOM      8  O   UNL     1     -11.313  16.688  70.221  0.00  0.00    -0.286 OA
ATOM      9  C   UNL     1     -13.132  15.934  72.295  0.00  0.00    +0.036 C 
ATOM     10  N   UNL     1     -13.723  13.172  72.223  0.00  0.00    -0.125 NA
ATOM     11  O   UNL     1     -12.162  11.653  70.589  0.00  0.00    -0.285 OA
ATOM     12  C   UNL     1     -11.617  14.691  68.952  0.00  0.00    +0.088 C 
ATOM     13  N   UNL     1     -11.285  14.982  67.611  0.00  0.00    -0.284 N 
ATOM     14  C   UNL     1     -10.597  16.006  66.854  0.00  0.00    +0.112 C 
ATOM     15  C   UNL     1     -10.546  15.414  65.330  0.00  0.00    +0.113 C 
ATOM     16  N   UNL     1     -12.041  14.636  65.471  0.00  0.00    -0.212 NA
ATOM     17  C   UNL     1     -10.597  13.764  65.675  0.00  0.00    +0.133 C 
ENDROOT
BRANCH   1  19
ATOM     18  C   UNL     1      -8.343  13.916  67.607  0.00  0.00    +0.176 C 
ATOM     19  O   UNL     1      -9.007  14.356  67.420  0.00  0.00    -0.337 OA
ENDBRANCH   1  19
BRANCH   2  20
ATOM     20  C   UNL     1     -11.687  12.036  67.040  0.00  0.00    +0.219 C 
BRANCH  20  21
ATOM     21  O   UNL     1     -11.684  10.672  67.481  0.00  0.00    -0.432 OA
BRANCH  21  22
ATOM     22  C   UNL     1     -10.570   9.910  67.058  0.00  0.00    +0.441 C 
ATOM     23  O   UNL     1     -10.563   8.738  67.573  0.00  0.00    -0.223 OA
ATOM     24  N   UNL     1     -10.078   9.930  65.733  0.00  0.00    -0.048 NA
ENDBRANCH  21  22
ENDBRANCH  20  21
ENDBRANCH   2  20
TORSDOF 4
ENDMDL
MODEL 3
REMARK VINA RESULT:      -6.6      6.610      8.624
REMARK  Name = 
REMARK  4 active torsions:
REMARK  status: ('A' for Active; 'I' for Inactive)
REMARK    1  A    between atoms: O_2  and  C_3
REMARK    2  A    between atoms: C_19  and  C_20
REMARK    3  A    between atoms: C_20  and  O_21
REMARK    4  A    between atoms: O_21  and  C_22
REMARK                            x       y       z     vdW  Elec       q    Type
REMARK                         _______ _______ _______ _____ _____    ______ ____
ROOT
ATOM      1  C   UNL     1      -6.713  19.616  68.002  0.00  0.00    +0.177 C 
ATOM      2  C   UNL     1      -6.543  19.457  69.574  0.00  0.00    +0.115 C 
ATOM      3  C   UNL     1      -5.451  18.279  69.453  0.00  0.00    +0.042 C 
ATOM      4  C   UNL     1      -5.249  17.271  70.570  0.00  0.00    +0.210 C 
ATOM      5  C   UNL     1      -4.675  15.951  70.295  0.00  0.00    +0.127 C 
ATOM      6  C   UNL     1      -4.859  15.417  69.101  0.00  0.00    +0.038 C 
ATOM      7  C   UNL     1      -5.565  16.260  68.113  0.00  0.00    +0.206 C 
ATOM      8  O   UNL     1      -5.881  15.711  67.045  0.00  0.00    -0.286 OA
ATOM      9  C   UNL     1      -4.228  14.128  68.761  0.00  0.00    +0.036 C 
ATOM     10  N   UNL     1      -3.714  15.428  71.217  0.00  0.00    -0.125 NA
ATOM     11  O   UNL     1      -5.204  17.647  71.735  0.00  0.00    -0.285 OA
ATOM     12  C   UNL     1      -5.550  17.737  68.260  0.00  0.00    +0.088 C 
ATOM     13  N   UNL     1      -5.782  18.809  67.373  0.00  0.00    -0.284 N 
ATOM     14  C   UNL     1      -6.387  19.046  66.079  0.00  0.00    +0.112 C 
ATOM     15  C   UNL     1      -6.352  20.672  65.910  0.00  0.00    +0.113 C 
ATOM     16  N   UNL     1      -4.894  20.833  66.749  0.00  0.00    -0.212 NA
ATOM     17  C   UNL     1      -6.373  21.119  67.535  0.00  0.00    +0.133 C 
ENDROOT
BRANCH   1  19
ATOM     18  C   UNL     1      -8.743  19.412  68.160  0.00  0.00    +0.176 C 
ATOM     19  O   UNL     1      -8.059  19.372  67.713  0.00  0.00    -0.337 OA
ENDBRANCH   1  19
BRANCH   2  20
ATOM     20  C   UNL     1      -5.427  20.645  69.754  0.00  0.00    +0.219 C 
BRANCH  20  21
ATOM     21  O   UNL     1      -5.503  20.881  71.166  0.00  0.00    -0.432 OA
BRANCH  21  22
ATOM     22  C   UNL     1      -4.284  21.258  71.775  0.00  0.00    +0.441 C 
ATOM     23  O   UNL     1      -4.375  22.379  72.387  0.00  0.00    -0.223 OA
ATOM     24  N   UNL     1      -3.433  20.341  72.434  0.00  0.00    -0.048 NA
ENDBRANCH  21  22
ENDBRANCH  20  21
ENDBRANCH   2  20
TORSDOF 4
ENDMDL
MODEL 4
REMARK VINA RESULT:      -6.4      1.824      2.237
REMARK  Name = 
REMARK  4 active torsions:
REMARK  status: ('A' for Active; 'I' for Inactive)
REMARK    1  A    between atoms: O_2  and  C_3
REMARK    2  A    between atoms: C_19  and  C_20
REMARK    3  A    between atoms: C_20  and  O_21
REMARK    4  A    between atoms: O_21  and  C_22
REMARK                            x       y       z     vdW  Elec       q    Type
REMARK                         _______ _______ _______ _____ _____    ______ ____
ROOT
ATOM      1  C   UNL     1     -10.903  14.010  67.238  0.00  0.00    +0.177 C 
ATOM      2  C   UNL     1     -11.703  15.097  68.077  0.00  0.00    +0.115 C 
ATOM      3  C   UNL     1     -11.700  14.224  69.430  0.00  0.00    +0.042 C 
ATOM      4  C   UNL     1     -12.766  14.412  70.495  0.00  0.00    +0.210 C 
ATOM      5  C   UNL     1     -13.084  13.336  71.437  0.00  0.00    +0.127 C 
ATOM      6  C   UNL     1     -12.908  12.084  71.052  0.00  0.00    +0.038 C 
ATOM      7  C   UNL     1     -12.314  11.893  69.713  0.00  0.00    +0.206 C 
ATOM      8  O   UNL     1     -12.293  10.730  69.280  0.00  0.00    -0.286 OA
ATOM      9  C   UNL     1     -13.140  10.979  72.001  0.00  0.00    +0.036 C 
ATOM     10  N   UNL     1     -13.295  13.682  72.810  0.00  0.00    -0.125 NA
ATOM     11  O   UNL     1     -13.107  15.540  70.828  0.00  0.00    -0.285 OA
ATOM     12  C   UNL     1     -11.479  12.966  69.117  0.00  0.00    +0.088 C 
ATOM     13  N   UNL     1     -10.509  12.994  68.092  0.00  0.00    -0.284 N 
ATOM     14  C   UNL     1     -10.068  12.175  66.984  0.00  0.00    +0.112 C 
ATOM     15  C   UNL     1      -8.968  13.104  66.209  0.00  0.00    +0.113 C 
ATOM     16  N   UNL     1      -8.419  13.826  67.636  0.00  0.00    -0.212 NA
ATOM     17  C   UNL     1      -9.541  14.629  66.644  0.00  0.00    +0.133 C 
ENDROOT
BRANCH   1  19
ATOM     18  C   UNL     1     -12.333  14.025  65.775  0.00  0.00    +0.176 C 
ATOM     19  O   UNL     1     -11.716  13.649  66.160  0.00  0.00    -0.337 OA
ENDBRANCH   1  19
BRANCH   2  20
ATOM     20  C   UNL     1     -10.396  15.991  68.502  0.00  0.00    +0.219 C 
BRANCH  20  21
ATOM     21  O   UNL     1     -10.961  17.309  68.522  0.00  0.00    -0.432 OA
BRANCH  21  22
ATOM     22  C   UNL     1     -10.483  18.181  67.517  0.00  0.00    +0.441 C 
ATOM     23  O   UNL     1     -11.029  19.337  67.579  0.00  0.00    -0.223 OA
ATOM     24  N   UNL     1      -9.127  18.235  67.121  0.00  0.00    -0.048 NA
ENDBRANCH  21  22
ENDBRANCH  20  21
ENDBRANCH   2  20
TORSDOF 4
ENDMDL
MODEL 5
REMARK VINA RESULT:      -6.4      1.998      4.461
REMARK  Name = 
REMARK  4 active torsions:
REMARK  status: ('A' for Active; 'I' for Inactive)
REMARK    1  A    between atoms: O_2  and  C_3
REMARK    2  A    between atoms: C_19  and  C_20
REMARK    3  A    between atoms: C_20  and  O_21
REMARK    4  A    between atoms: O_21  and  C_22
REMARK                            x       y       z     vdW  Elec       q    Type
REMARK                         _______ _______ _______ _____ _____    ______ ____
ROOT
ATOM      1  C   UNL     1     -11.076  14.270  67.283  0.00  0.00    +0.177 C 
ATOM      2  C   UNL     1     -12.051  14.080  68.524  0.00  0.00    +0.115 C 
ATOM      3  C   UNL     1     -11.255  12.804  69.101  0.00  0.00    +0.042 C 
ATOM      4  C   UNL     1     -11.946  11.770  69.973  0.00  0.00    +0.210 C 
ATOM      5  C   UNL     1     -11.425  10.405  70.072  0.00  0.00    +0.127 C 
ATOM      6  C   UNL     1     -10.765   9.902  69.044  0.00  0.00    +0.038 C 
ATOM      7  C   UNL     1     -10.537  10.818  67.907  0.00  0.00    +0.206 C 
ATOM      8  O   UNL     1     -10.062  10.312  66.878  0.00  0.00    -0.286 OA
ATOM      9  C   UNL     1     -10.157   8.562  69.138  0.00  0.00    +0.036 C 
ATOM     10  N   UNL     1     -11.404   9.783  71.361  0.00  0.00    -0.125 NA
ATOM     11  O   UNL     1     -12.695  12.130  70.873  0.00  0.00    -0.285 OA
ATOM     12  C   UNL     1     -10.535  12.285  68.131  0.00  0.00    +0.088 C 
ATOM     13  N   UNL     1     -10.021  13.384  67.410  0.00  0.00    -0.284 N 
ATOM     14  C   UNL     1      -9.548  13.689  66.076  0.00  0.00    +0.112 C 
ATOM     15  C   UNL     1      -9.303  15.306  66.097  0.00  0.00    +0.113 C 
ATOM     16  N   UNL     1      -8.824  15.318  67.718  0.00  0.00    -0.212 NA
ATOM     17  C   UNL     1     -10.414  15.737  67.290  0.00  0.00    +0.133 C 
ENDROOT
BRANCH   1  19
ATOM     18  C   UNL     1     -12.664  14.066  66.008  0.00  0.00    +0.176 C 
ATOM     19  O   UNL     1     -11.860  14.159  66.131  0.00  0.00    -0.337 OA
ENDBRANCH   1  19
BRANCH   2  20
ATOM     20  C   UNL     1     -11.297  15.154  69.508  0.00  0.00    +0.219 C 
BRANCH  20  21
ATOM     21  O   UNL     1     -12.412  15.915  69.989  0.00  0.00    -0.432 OA
BRANCH  21  22
ATOM     22  C   UNL     1     -12.767  15.670  71.336  0.00  0.00    +0.441 C 
ATOM     23  O   UNL     1     -12.000  16.283  72.158  0.00  0.00    -0.223 OA
ATOM     24  N   UNL     1     -14.107  15.603  71.783  0.00  0.00    -0.048 NA
ENDBRANCH  21  22
ENDBRANCH  20  21
ENDBRANCH   2  20
TORSDOF 4
ENDMDL
MODEL 6
REMARK VINA RESULT:      -6.4      2.832      4.989
REMARK  Name = 
REMARK  4 active torsions:
REMARK  status: ('A' for Active; 'I' for Inactive)
REMARK    1  A    between atoms: O_2  and  C_3
REMARK    2  A    between atoms: C_19  and  C_20
REMARK    3  A    between atoms: C_20  and  O_21
REMARK    4  A    between atoms: O_21  and  C_22
REMARK                            x       y       z     vdW  Elec       q    Type
REMARK                         _______ _______ _______ _____ _____    ______ ____
ROOT
ATOM      1  C   UNL     1     -10.755  12.798  66.075  0.00  0.00    +0.177 C 
ATOM      2  C   UNL     1      -9.833  11.504  66.112  0.00  0.00    +0.115 C 
ATOM      3  C   UNL     1     -10.735  10.750  67.212  0.00  0.00    +0.042 C 
ATOM      4  C   UNL     1     -10.147   9.687  68.123  0.00  0.00    +0.210 C 
ATOM      5  C   UNL     1     -10.768   9.378  69.413  0.00  0.00    +0.127 C 
ATOM      6  C   UNL     1     -11.433  10.331  70.042  0.00  0.00    +0.038 C 
ATOM      7  C   UNL     1     -11.561  11.616  69.323  0.00  0.00    +0.206 C 
ATOM      8  O   UNL     1     -12.043  12.562  69.967  0.00  0.00    -0.286 OA
ATOM      9  C   UNL     1     -12.139  10.034  71.302  0.00  0.00    +0.036 C 
ATOM     10  N   UNL     1     -10.872   8.003  69.800  0.00  0.00    -0.125 NA
ATOM     11  O   UNL     1      -9.400   8.832  67.664  0.00  0.00    -0.285 OA
ATOM     12  C   UNL     1     -11.463  11.646  67.843  0.00  0.00    +0.088 C 
ATOM     13  N   UNL     1     -11.875  12.565  66.854  0.00  0.00    -0.284 N 
ATOM     14  C   UNL     1     -12.286  13.949  66.753  0.00  0.00    +0.112 C 
ATOM     15  C   UNL     1     -12.413  14.215  65.144  0.00  0.00    +0.113 C 
ATOM     16  N   UNL     1     -12.937  12.641  64.819  0.00  0.00    -0.212 NA
ATOM     17  C   UNL     1     -11.309  13.069  64.588  0.00  0.00    +0.133 C 
ENDROOT
BRANCH   1  19
ATOM     18  C   UNL     1      -9.138  13.977  66.504  0.00  0.00    +0.176 C 
ATOM     19  O   UNL     1      -9.949  13.881  66.436  0.00  0.00    -0.337 OA
ENDBRANCH   1  19
BRANCH   2  20
ATOM     20  C   UNL     1     -10.535  10.750  64.835  0.00  0.00    +0.219 C 
BRANCH  20  21
ATOM     21  O   UNL     1      -9.421  10.023  64.300  0.00  0.00    -0.432 OA
BRANCH  21  22
ATOM     22  C   UNL     1      -9.357   9.981  62.888  0.00  0.00    +0.441 C 
ATOM     23  O   UNL     1      -9.072  11.122  62.382  0.00  0.00    -0.223 OA
ATOM     24  N   UNL     1      -8.784   8.905  62.172  0.00  0.00    -0.048 NA
ENDBRANCH  21  22
ENDBRANCH  20  21
ENDBRANCH   2  20
TORSDOF 4
ENDMDL
MODEL 7
REMARK VINA RESULT:      -6.2      4.326      6.420
REMARK  Name = 
REMARK  4 active torsions:
REMARK  status: ('A' for Active; 'I' for Inactive)
REMARK    1  A    between atoms: O_2  and  C_3
REMARK    2  A    between atoms: C_19  and  C_20
REMARK    3  A    between atoms: C_20  and  O_21
REMARK    4  A    between atoms: O_21  and  C_22
REMARK                            x       y       z     vdW  Elec       q    Type
REMARK                         _______ _______ _______ _____ _____    ______ ____
ROOT
ATOM      1  C   UNL     1      -8.409  18.507  66.730  0.00  0.00    +0.177 C 
ATOM      2  C   UNL     1      -8.211  17.002  66.260  0.00  0.00    +0.115 C 
ATOM      3  C   UNL     1      -7.826  16.471  67.731  0.00  0.00    +0.042 C 
ATOM      4  C   UNL     1      -6.979  15.225  67.925  0.00  0.00    +0.210 C 
ATOM      5  C   UNL     1      -6.211  15.025  69.156  0.00  0.00    +0.127 C 
ATOM      6  C   UNL     1      -5.783  16.086  69.816  0.00  0.00    +0.038 C 
ATOM      7  C   UNL     1      -6.207  17.398  69.283  0.00  0.00    +0.206 C 
ATOM      8  O   UNL     1      -5.683  18.398  69.799  0.00  0.00    -0.286 OA
ATOM      9  C   UNL     1      -5.078  15.924  71.101  0.00  0.00    +0.036 C 
ATOM     10  N   UNL     1      -6.200  13.717  69.738  0.00  0.00    -0.125 NA
ATOM     11  O   UNL     1      -7.203  14.223  67.258  0.00  0.00    -0.285 OA
ATOM     12  C   UNL     1      -7.437  17.496  68.458  0.00  0.00    +0.088 C 
ATOM     13  N   UNL     1      -8.298  18.558  68.109  0.00  0.00    -0.284 N 
ATOM     14  C   UNL     1      -8.298  20.005  68.099  0.00  0.00    +0.112 C 
ATOM     15  C   UNL     1      -9.695  20.403  67.346  0.00  0.00    +0.113 C 
ATOM     16  N   UNL     1     -10.531  19.073  67.971  0.00  0.00    -0.212 NA
ATOM     17  C   UNL     1      -9.896  19.025  66.396  0.00  0.00    +0.133 C 
ENDROOT
BRANCH   1  19
ATOM     18  C   UNL     1      -6.935  19.100  65.441  0.00  0.00    +0.176 C 
ATOM     19  O   UNL     1      -7.509  19.284  65.995  0.00  0.00    -0.337 OA
ENDBRANCH   1  19
BRANCH   2  20
ATOM     20  C   UNL     1      -9.789  16.570  66.380  0.00  0.00    +0.219 C 
BRANCH  20  21
ATOM     21  O   UNL     1      -9.956  15.807  65.178  0.00  0.00    -0.432 OA
BRANCH  21  22
ATOM     22  C   UNL     1     -11.290  15.696  64.720  0.00  0.00    +0.441 C 
ATOM     23  O   UNL     1     -11.596  16.626  63.894  0.00  0.00    -0.223 OA
ATOM     24  N   UNL     1     -11.899  14.460  64.406  0.00  0.00    -0.048 NA
ENDBRANCH  21  22
ENDBRANCH  20  21
ENDBRANCH   2  20
TORSDOF 4
ENDMDL
MODEL 8
REMARK VINA RESULT:      -6.2      2.833      5.780
REMARK  Name = 
REMARK  4 active torsions:
REMARK  status: ('A' for Active; 'I' for Inactive)
REMARK    1  A    between atoms: O_2  and  C_3
REMARK    2  A    between atoms: C_19  and  C_20
REMARK    3  A    between atoms: C_20  and  O_21
REMARK    4  A    between atoms: O_21  and  C_22
REMARK                            x       y       z     vdW  Elec       q    Type
REMARK                         _______ _______ _______ _____ _____    ______ ____
ROOT
ATOM      1  C   UNL     1      -9.893  16.053  67.218  0.00  0.00    +0.177 C 
ATOM      2  C   UNL     1      -9.425  14.627  67.739  0.00  0.00    +0.115 C 
ATOM      3  C   UNL     1      -9.705  13.893  66.333  0.00  0.00    +0.042 C 
ATOM      4  C   UNL     1      -9.995  12.403  66.263  0.00  0.00    +0.210 C 
ATOM      5  C   UNL     1     -10.732  11.836  65.132  0.00  0.00    +0.127 C 
ATOM      6  C   UNL     1     -11.611  12.595  64.502  0.00  0.00    +0.038 C 
ATOM      7  C   UNL     1     -11.700  13.999  64.956  0.00  0.00    +0.206 C 
ATOM      8  O   UNL     1     -12.628  14.674  64.482  0.00  0.00    -0.286 OA
ATOM      9  C   UNL     1     -12.311  12.084  63.309  0.00  0.00    +0.036 C 
ATOM     10  N   UNL     1     -10.274  10.596  64.582  0.00  0.00    -0.125 NA
ATOM     11  O   UNL     1      -9.325  11.617  66.921  0.00  0.00    -0.285 OA
ATOM     12  C   UNL     1     -10.540  14.629  65.634  0.00  0.00    +0.088 C 
ATOM     13  N   UNL     1     -10.148  15.966  65.860  0.00  0.00    -0.284 N 
ATOM     14  C   UNL     1     -10.727  17.292  65.840  0.00  0.00    +0.112 C 
ATOM     15  C   UNL     1      -9.542  18.259  66.420  0.00  0.00    +0.113 C 
ATOM     16  N   UNL     1      -8.306  17.332  65.732  0.00  0.00    -0.212 NA
ATOM     17  C   UNL     1      -8.714  17.138  67.370  0.00  0.00    +0.133 C 
ENDROOT
BRANCH   1  19
ATOM     18  C   UNL     1     -11.191  16.243  68.789  0.00  0.00    +0.176 C 
ATOM     19  O   UNL     1     -10.954  16.455  68.034  0.00  0.00    -0.337 OA
ENDBRANCH   1  19
BRANCH   2  20
ATOM     20  C   UNL     1      -7.826  14.848  67.449  0.00  0.00    +0.219 C 
BRANCH  20  21
ATOM     21  O   UNL     1      -7.259  13.765  68.198  0.00  0.00    -0.432 OA
BRANCH  21  22
ATOM     22  C   UNL     1      -5.968  13.363  67.784  0.00  0.00    +0.441 C 
ATOM     23  O   UNL     1      -6.010  12.448  66.889  0.00  0.00    -0.223 OA
ATOM     24  N   UNL     1      -4.900  14.268  67.594  0.00  0.00    -0.048 NA
ENDBRANCH  21  22
ENDBRANCH  20  21
ENDBRANCH   2  20
TORSDOF 4
ENDMDL
MODEL 9
REMARK VINA RESULT:      -6.1      2.175      4.403
REMARK  Name = 
REMARK  4 active torsions:
REMARK  status: ('A' for Active; 'I' for Inactive)
REMARK    1  A    between atoms: O_2  and  C_3
REMARK    2  A    between atoms: C_19  and  C_20
REMARK    3  A    between atoms: C_20  and  O_21
REMARK    4  A    between atoms: O_21  and  C_22
REMARK                            x       y       z     vdW  Elec       q    Type
REMARK                         _______ _______ _______ _____ _____    ______ ____
ROOT
ATOM      1  C   UNL     1     -10.482  13.346  66.899  0.00  0.00    +0.177 C 
ATOM      2  C   UNL     1     -10.233  11.906  67.522  0.00  0.00    +0.115 C 
ATOM      3  C   UNL     1     -11.496  11.990  68.517  0.00  0.00    +0.042 C 
ATOM      4  C   UNL     1     -11.545  11.182  69.802  0.00  0.00    +0.210 C 
ATOM      5  C   UNL     1     -12.385  11.608  70.925  0.00  0.00    +0.127 C 
ATOM      6  C   UNL     1     -12.632  12.897  71.078  0.00  0.00    +0.038 C 
ATOM      7  C   UNL     1     -12.098  13.790  70.028  0.00  0.00    +0.206 C 
ATOM      8  O   UNL     1     -12.187  15.010  70.245  0.00  0.00    -0.286 OA
ATOM      9  C   UNL     1     -13.538  13.355  72.147  0.00  0.00    +0.036 C 
ATOM     10  N   UNL     1     -13.125  10.608  71.631  0.00  0.00    -0.125 NA
ATOM     11  O   UNL     1     -11.201  10.007  69.800  0.00  0.00    -0.285 OA
ATOM     12  C   UNL     1     -11.825  13.253  68.672  0.00  0.00    +0.088 C 
ATOM     13  N   UNL     1     -11.673  13.844  67.399  0.00  0.00    -0.284 N 
ATOM     14  C   UNL     1     -11.420  15.147  66.823  0.00  0.00    +0.112 C 
ATOM     15  C   UNL     1     -11.229  14.852  65.226  0.00  0.00    +0.113 C 
ATOM     16  N   UNL     1     -12.349  13.586  65.220  0.00  0.00    -0.212 NA
ATOM     17  C   UNL     1     -10.684  13.259  65.305  0.00  0.00    +0.133 C 
ENDROOT
BRANCH   1  19
ATOM     18  C   UNL     1      -8.551  13.897  67.291  0.00  0.00    +0.176 C 
ATOM     19  O   UNL     1      -9.331  14.099  67.145  0.00  0.00    -0.337 OA
ENDBRANCH   1  19
BRANCH   2  20
ATOM     20  C   UNL     1     -11.041  11.070  66.364  0.00  0.00    +0.219 C 
BRANCH  20  21
ATOM     21  O   UNL     1     -10.446   9.773  66.497  0.00  0.00    -0.432 OA
BRANCH  21  22
ATOM     22  C   UNL     1      -9.516   9.434  65.488  0.00  0.00    +0.441 C 
ATOM     23  O   UNL     1      -9.828   9.939  64.353  0.00  0.00    -0.223 OA
ATOM     24  N   UNL     1      -8.119   9.394  65.705  0.00  0.00    -0.048 NA
ENDBRANCH  21  22
ENDBRANCH  20  21
ENDBRANCH   2  20
TORSDOF 4
ENDMDL
