MODEL 1
REMARK VINA RESULT:      -6.0      0.000      0.000
REMARK  Name = 
REMARK  4 active torsions:
REMARK  status: ('A' for Active; 'I' for Inactive)
REMARK    1  A    between atoms: N_2  and  C_4
REMARK    2  A    between atoms: C_4  and  C_5
REMARK    3  A    between atoms: C_5  and  C_6
REMARK    4  A    between atoms: C_5  and  C_13
REMARK                            x       y       z     vdW  Elec       q    Type
REMARK                         _______ _______ _______ _____ _____    ______ ____
ROOT
ATOM      1  C   UNL     1      -9.839  15.880  67.362  0.00  0.00    +0.066 C 
ENDROOT
BRANCH   1   2
ATOM      2  C   UNL     1      -9.966  17.397  66.731  0.00  0.00    +0.132 C 
ATOM      3  C   UNL     1     -10.706  18.243  67.689  0.00  0.00    +0.031 C 
ATOM      4  C   UNL     1      -9.955  19.459  68.177  0.00  0.00    +0.003 C 
ATOM      5  C   UNL     1      -9.422  20.166  66.950  0.00  0.00    +0.000 C 
ATOM      6  C   UNL     1      -8.481  19.248  66.215  0.00  0.00    +0.003 C 
ATOM      7  C   UNL     1      -8.504  17.832  66.781  0.00  0.00    +0.031 C 
ATOM      8  O   UNL     1     -10.357  17.355  65.458  0.00  0.00    -0.225 OA
ENDBRANCH   1   2
BRANCH   1   9
ATOM      9  C   UNL     1     -10.694  15.148  66.194  0.00  0.00    -0.019 A 
ATOM     10  C   UNL     1      -9.899  14.235  65.502  0.00  0.00    -0.001 A 
ATOM     11  C   UNL     1     -10.538  13.419  64.573  0.00  0.00    +0.042 A 
ATOM     12  C   UNL     1     -11.913  13.448  64.461  0.00  0.00    +0.196 A 
ATOM     13  O   UNL     1     -12.597  13.154  63.285  0.00  0.00    -0.287 OA
ATOM     14  C   UNL     1     -12.583  13.925  65.577  0.00  0.00    +0.042 A 
ATOM     15  C   UNL     1     -11.893  14.583  66.591  0.00  0.00    -0.001 A 
ENDBRANCH   1   9
BRANCH   1  16
ATOM     16  C   UNL     1     -11.164  16.074  68.338  0.00  0.00    +0.079 C 
BRANCH  16  18
ATOM     17  C   UNL     1      -9.622  15.364  69.655  0.00  0.00    +0.090 C 
ATOM     18  N   UNL     1     -10.661  15.421  69.544  0.00  0.00    -0.270 NA
ATOM     19  C   UNL     1     -11.454  15.943  70.651  0.00  0.00    +0.090 C 
ENDBRANCH  16  18
ENDBRANCH   1  16
TORSDOF 4
ENDMDL
MODEL 2
REMARK VINA RESULT:      -5.9      2.562      4.471
REMARK  Name = 
REMARK  4 active torsions:
REMARK  status: ('A' for Active; 'I' for Inactive)
REMARK    1  A    between atoms: N_2  and  C_4
REMARK    2  A    between atoms: C_4  and  C_5
REMARK    3  A    between atoms: C_5  and  C_6
REMARK    4  A    between atoms: C_5  and  C_13
REMARK                            x       y       z     vdW  Elec       q    Type
REMARK                         _______ _______ _______ _____ _____    ______ ____
ROOT
ATOM      1  C   UNL     1     -10.738  14.063  68.882  0.00  0.00    +0.066 C 
ENDROOT
BRANCH   1   2
ATOM      2  C   UNL     1     -11.838  14.930  69.750  0.00  0.00    +0.132 C 
ATOM      3  C   UNL     1     -12.876  14.005  70.247  0.00  0.00    +0.031 C 
ATOM      4  C   UNL     1     -13.030  13.968  71.749  0.00  0.00    +0.003 C 
ATOM      5  C   UNL     1     -13.151  15.404  72.212  0.00  0.00    +0.000 C 
ATOM      6  C   UNL     1     -11.896  16.153  71.848  0.00  0.00    +0.003 C 
ATOM      7  C   UNL     1     -10.980  15.330  70.947  0.00  0.00    +0.031 C 
ATOM      8  O   UNL     1     -12.202  16.032  69.096  0.00  0.00    -0.225 OA
ENDBRANCH   1   2
BRANCH   1   9
ATOM      9  C   UNL     1     -11.049  14.784  67.462  0.00  0.00    -0.019 A 
ATOM     10  C   UNL     1      -9.883  15.322  66.919  0.00  0.00    -0.001 A 
ATOM     11  C   UNL     1      -9.968  15.836  65.628  0.00  0.00    +0.042 A 
ATOM     12  C   UNL     1     -11.131  15.686  64.901  0.00  0.00    +0.196 A 
ATOM     13  O   UNL     1     -11.542  16.574  63.911  0.00  0.00    -0.287 OA
ATOM     14  C   UNL     1     -11.952  14.648  65.314  0.00  0.00    +0.042 A 
ATOM     15  C   UNL     1     -11.737  14.019  66.537  0.00  0.00    -0.001 A 
ENDBRANCH   1   9
BRANCH   1  16
ATOM     16  C   UNL     1     -11.802  12.826  68.592  0.00  0.00    +0.079 C 
BRANCH  16  18
ATOM     17  C   UNL     1     -11.509  10.797  69.236  0.00  0.00    +0.090 C 
ATOM     18  N   UNL     1     -11.020  11.717  69.131  0.00  0.00    -0.270 NA
ATOM     19  C   UNL     1      -9.736  11.749  68.439  0.00  0.00    +0.090 C 
ENDBRANCH  16  18
ENDBRANCH   1  16
TORSDOF 4
ENDMDL
MODEL 3
REMARK VINA RESULT:      -5.6      1.389      1.642
REMARK  Name = 
REMARK  4 active torsions:
REMARK  status: ('A' for Active; 'I' for Inactive)
REMARK    1  A    between atoms: N_2  and  C_4
REMARK    2  A    between atoms: C_4  and  C_5
REMARK    3  A    between atoms: C_5  and  C_6
REMARK    4  A    between atoms: C_5  and  C_13
REMARK                            x       y       z     vdW  Elec       q    Type
REMARK                         _______ _______ _______ _____ _____    ______ ____
ROOT
ATOM      1  C   UNL     1      -9.065  15.871  66.390  0.00  0.00    +0.066 C 
ENDROOT
BRANCH   1   2
ATOM      2  C   UNL     1      -9.861  17.313  66.417  0.00  0.00    +0.132 C 
ATOM      3  C   UNL     1     -10.455  17.497  67.756  0.00  0.00    +0.031 C 
ATOM      4  C   UNL     1      -9.998  18.734  68.491  0.00  0.00    +0.003 C 
ATOM      5  C   UNL     1     -10.159  19.896  67.535  0.00  0.00    +0.000 C 
ATOM      6  C   UNL     1      -9.289  19.672  66.326  0.00  0.00    +0.003 C 
ATOM      7  C   UNL     1      -8.679  18.273  66.312  0.00  0.00    +0.031 C 
ATOM      8  O   UNL     1     -10.627  17.456  65.336  0.00  0.00    -0.225 OA
ENDBRANCH   1   2
BRANCH   1   9
ATOM      9  C   UNL     1     -10.349  14.986  65.943  0.00  0.00    -0.019 A 
ATOM     10  C   UNL     1      -9.984  14.039  64.986  0.00  0.00    -0.001 A 
ATOM     11  C   UNL     1     -10.950  13.105  64.623  0.00  0.00    +0.042 A 
ATOM     12  C   UNL     1     -12.157  13.066  65.291  0.00  0.00    +0.196 A 
ATOM     13  O   UNL     1     -13.344  12.623  64.713  0.00  0.00    -0.287 OA
ATOM     14  C   UNL     1     -12.145  13.629  66.557  0.00  0.00    +0.042 A 
ATOM     15  C   UNL     1     -11.076  14.416  66.974  0.00  0.00    -0.001 A 
ENDBRANCH   1   9
BRANCH   1  16
ATOM     16  C   UNL     1      -9.321  15.594  68.005  0.00  0.00    +0.079 C 
BRANCH  16  18
ATOM     17  C   UNL     1      -7.555  15.871  69.197  0.00  0.00    +0.090 C 
ATOM     18  N   UNL     1      -7.948  15.304  68.410  0.00  0.00    -0.270 NA
ATOM     19  C   UNL     1      -7.842  13.850  68.477  0.00  0.00    +0.090 C 
ENDBRANCH  16  18
ENDBRANCH   1  16
TORSDOF 4
ENDMDL
MODEL 4
REMARK VINA RESULT:      -5.5      2.825      4.947
REMARK  Name = 
REMARK  4 active torsions:
REMARK  status: ('A' for Active; 'I' for Inactive)
REMARK    1  A    between atoms: N_2  and  C_4
REMARK    2  A    between atoms: C_4  and  C_5
REMARK    3  A    between atoms: C_5  and  C_6
REMARK    4  A    between atoms: C_5  and  C_13
REMARK                            x       y       z     vdW  Elec       q    Type
REMARK                         _______ _______ _______ _____ _____    ______ ____
ROOT
ATOM      1  C   UNL     1     -11.754  15.202  69.186  0.00  0.00    +0.066 C 
ENDROOT
BRANCH   1   2
ATOM      2  C   UNL     1     -12.148  14.654  70.689  0.00  0.00    +0.132 C 
ATOM      3  C   UNL     1     -11.296  15.343  71.679  0.00  0.00    +0.031 C 
ATOM      4  C   UNL     1     -12.046  16.128  72.728  0.00  0.00    +0.003 C 
ATOM      5  C   UNL     1     -13.100  15.204  73.297  0.00  0.00    +0.000 C 
ATOM      6  C   UNL     1     -14.045  14.789  72.200  0.00  0.00    +0.003 C 
ATOM      7  C   UNL     1     -13.555  15.232  70.825  0.00  0.00    +0.031 C 
ATOM      8  O   UNL     1     -12.228  13.324  70.707  0.00  0.00    -0.225 OA
ENDBRANCH   1   2
BRANCH   1   9
ATOM      9  C   UNL     1     -11.440  13.740  68.558  0.00  0.00    -0.019 A 
ATOM     10  C   UNL     1     -12.032  13.609  67.301  0.00  0.00    -0.001 A 
ATOM     11  C   UNL     1     -11.719  12.464  66.574  0.00  0.00    +0.042 A 
ATOM     12  C   UNL     1     -10.766  11.585  67.047  0.00  0.00    +0.196 A 
ATOM     13  O   UNL     1     -10.763  10.223  66.759  0.00  0.00    -0.287 OA
ATOM     14  C   UNL     1      -9.867  12.126  67.953  0.00  0.00    +0.042 A 
ATOM     15  C   UNL     1     -10.109  13.366  68.537  0.00  0.00    -0.001 A 
ENDBRANCH   1   9
BRANCH   1  16
ATOM     16  C   UNL     1     -10.170  15.466  69.597  0.00  0.00    +0.079 C 
BRANCH  16  18
ATOM     17  C   UNL     1     -10.486  17.353  68.621  0.00  0.00    +0.090 C 
ATOM     18  N   UNL     1      -9.853  16.520  68.637  0.00  0.00    -0.270 NA
ATOM     19  C   UNL     1      -8.414  16.738  68.730  0.00  0.00    +0.090 C 
ENDBRANCH  16  18
ENDBRANCH   1  16
TORSDOF 4
ENDMDL
MODEL 5
REMARK VINA RESULT:      -5.4      2.259      5.436
REMARK  Name = 
REMARK  4 active torsions:
REMARK  status: ('A' for Active; 'I' for Inactive)
REMARK    1  A    between atoms: N_2  and  C_4
REMARK    2  A    between atoms: C_4  and  C_5
REMARK    3  A    between atoms: C_5  and  C_6
REMARK    4  A    between atoms: C_5  and  C_13
REMARK                            x       y       z     vdW  Elec       q    Type
REMARK                         _______ _______ _______ _____ _____    ______ ____
ROOT
ATOM      1  C   UNL     1     -10.060  15.256  68.201  0.00  0.00    +0.066 C 
ENDROOT
BRANCH   1   2
ATOM      2  C   UNL     1     -11.400  15.239  69.161  0.00  0.00    +0.132 C 
ATOM      3  C   UNL     1     -12.031  13.908  69.059  0.00  0.00    +0.031 C 
ATOM      4  C   UNL     1     -12.162  13.163  70.366  0.00  0.00    +0.003 C 
ATOM      5  C   UNL     1     -12.795  14.119  71.354  0.00  0.00    +0.000 C 
ATOM      6  C   UNL     1     -11.897  15.315  71.537  0.00  0.00    +0.003 C 
ATOM      7  C   UNL     1     -10.745  15.323  70.537  0.00  0.00    +0.031 C 
ATOM      8  O   UNL     1     -12.139  16.330  68.970  0.00  0.00    -0.225 OA
ENDBRANCH   1   2
BRANCH   1   9
ATOM      9  C   UNL     1     -10.081  16.854  67.924  0.00  0.00    -0.019 A 
ATOM     10  C   UNL     1      -8.946  17.461  68.461  0.00  0.00    -0.001 A 
ATOM     11  C   UNL     1      -8.751  18.807  68.165  0.00  0.00    +0.042 A 
ATOM     12  C   UNL     1      -9.590  19.446  67.275  0.00  0.00    +0.196 A 
ATOM     13  O   UNL     1      -9.865  20.810  67.317  0.00  0.00    -0.287 OA
ATOM     14  C   UNL     1     -10.260  18.609  66.396  0.00  0.00    +0.042 A 
ATOM     15  C   UNL     1     -10.290  17.234  66.610  0.00  0.00    -0.001 A 
ENDBRANCH   1   9
BRANCH   1  16
ATOM     16  C   UNL     1     -10.924  14.913  66.829  0.00  0.00    +0.079 C 
BRANCH  16  18
ATOM     17  C   UNL     1      -9.459  13.353  66.643  0.00  0.00    +0.090 C 
ATOM     18  N   UNL     1      -9.921  14.128  66.114  0.00  0.00    -0.270 NA
ATOM     19  C   UNL     1     -10.491  13.837  64.803  0.00  0.00    +0.090 C 
ENDBRANCH  16  18
ENDBRANCH   1  16
TORSDOF 4
ENDMDL
MODEL 6
REMARK VINA RESULT:      -5.4      3.783      5.540
REMARK  Name = 
REMARK  4 active torsions:
REMARK  status: ('A' for Active; 'I' for Inactive)
REMARK    1  A    between atoms: N_2  and  C_4
REMARK    2  A    between atoms: C_4  and  C_5
REMARK    3  A    between atoms: C_5  and  C_6
REMARK    4  A    between atoms: C_5  and  C_13
REMARK                            x       y       z     vdW  Elec       q    Type
REMARK                         _______ _______ _______ _____ _____    ______ ____
ROOT
ATOM      1  C   UNL     1     -10.561  12.880  68.320  0.00  0.00    +0.066 C 
ENDROOT
BRANCH   1   2
ATOM      2  C   UNL     1     -11.401  12.625  66.926  0.00  0.00    +0.132 C 
ATOM      3  C   UNL     1     -12.140  13.859  66.591  0.00  0.00    +0.031 C 
ATOM      4  C   UNL     1     -11.805  14.458  65.247  0.00  0.00    +0.003 C 
ATOM      5  C   UNL     1     -11.900  13.339  64.233  0.00  0.00    +0.000 C 
ATOM      6  C   UNL     1     -10.898  12.268  64.577  0.00  0.00    +0.003 C 
ATOM      7  C   UNL     1     -10.246  12.509  65.934  0.00  0.00    +0.031 C 
ATOM      8  O   UNL     1     -12.051  11.463  66.964  0.00  0.00    -0.225 OA
ENDBRANCH   1   2
BRANCH   1   9
ATOM      9  C   UNL     1     -11.321  11.732  69.178  0.00  0.00    -0.019 A 
ATOM     10  C   UNL     1     -10.433  10.718  69.536  0.00  0.00    -0.001 A 
ATOM     11  C   UNL     1     -10.908   9.743  70.408  0.00  0.00    +0.042 A 
ATOM     12  C   UNL     1     -12.161   9.873  70.972  0.00  0.00    +0.196 A 
ATOM     13  O   UNL     1     -12.946   8.793  71.365  0.00  0.00    -0.287 OA
ATOM     14  C   UNL     1     -12.657  11.167  71.006  0.00  0.00    +0.042 A 
ATOM     15  C   UNL     1     -12.052  12.178  70.265  0.00  0.00    -0.001 A 
ENDBRANCH   1   9
BRANCH   1  16
ATOM     16  C   UNL     1     -11.591  14.074  68.832  0.00  0.00    +0.079 C 
BRANCH  16  18
ATOM     17  C   UNL     1      -9.793  15.240  68.978  0.00  0.00    +0.090 C 
ATOM     18  N   UNL     1     -10.630  14.929  69.524  0.00  0.00    -0.270 NA
ATOM     19  C   UNL     1     -11.415  15.933  70.233  0.00  0.00    +0.090 C 
ENDBRANCH  16  18
ENDBRANCH   1  16
TORSDOF 4
ENDMDL
MODEL 7
REMARK VINA RESULT:      -5.4      2.738      5.562
REMARK  Name = 
REMARK  4 active torsions:
REMARK  status: ('A' for Active; 'I' for Inactive)
REMARK    1  A    between atoms: N_2  and  C_4
REMARK    2  A    between atoms: C_4  and  C_5
REMARK    3  A    between atoms: C_5  and  C_6
REMARK    4  A    between atoms: C_5  and  C_13
REMARK                            x       y       z     vdW  Elec       q    Type
REMARK                         _______ _______ _______ _____ _____    ______ ____
ROOT
ATOM      1  C   UNL     1     -10.495  13.616  67.787  0.00  0.00    +0.066 C 
ENDROOT
BRANCH   1   2
ATOM      2  C   UNL     1     -11.497  12.906  66.688  0.00  0.00    +0.132 C 
ATOM      3  C   UNL     1     -12.347  13.952  66.085  0.00  0.00    +0.031 C 
ATOM      4  C   UNL     1     -12.232  14.081  64.586  0.00  0.00    +0.003 C 
ATOM      5  C   UNL     1     -12.393  12.690  64.012  0.00  0.00    +0.000 C 
ATOM      6  C   UNL     1     -11.292  11.805  64.533  0.00  0.00    +0.003 C 
ATOM      7  C   UNL     1     -10.480  12.487  65.630  0.00  0.00    +0.031 C 
ATOM      8  O   UNL     1     -12.064  11.813  67.195  0.00  0.00    -0.225 OA
ENDBRANCH   1   2
BRANCH   1   9
ATOM      9  C   UNL     1     -11.661  13.986  68.853  0.00  0.00    -0.019 A 
ATOM     10  C   UNL     1     -11.685  13.059  69.895  0.00  0.00    -0.001 A 
ATOM     11  C   UNL     1     -12.531  13.336  70.965  0.00  0.00    +0.042 A 
ATOM     12  C   UNL     1     -13.202  14.541  71.019  0.00  0.00    +0.196 A 
ATOM     13  O   UNL     1     -14.426  14.713  71.661  0.00  0.00    -0.287 OA
ATOM     14  C   UNL     1     -12.639  15.561  70.270  0.00  0.00    +0.042 A 
ATOM     15  C   UNL     1     -11.654  15.286  69.326  0.00  0.00    -0.001 A 
ENDBRANCH   1   9
BRANCH   1  16
ATOM     16  C   UNL     1     -10.577  15.096  67.045  0.00  0.00    +0.079 C 
BRANCH  16  18
ATOM     17  C   UNL     1      -8.914  16.106  66.134  0.00  0.00    +0.090 C 
ATOM     18  N   UNL     1      -9.183  15.223  66.628  0.00  0.00    -0.270 NA
ATOM     19  C   UNL     1      -8.376  14.784  67.761  0.00  0.00    +0.090 C 
ENDBRANCH  16  18
ENDBRANCH   1  16
TORSDOF 4
ENDMDL
MODEL 8
REMARK VINA RESULT:      -5.2      1.800      4.989
REMARK  Name = 
REMARK  4 active torsions:
REMARK  status: ('A' for Active; 'I' for Inactive)
REMARK    1  A    between atoms: N_2  and  C_4
REMARK    2  A    between atoms: C_4  and  C_5
REMARK    3  A    between atoms: C_5  and  C_6
REMARK    4  A    between atoms: C_5  and  C_13
REMARK                            x       y       z     vdW  Elec       q    Type
REMARK                         _______ _______ _______ _____ _____    ______ ____
ROOT
ATOM      1  C   UNL     1     -11.459  15.755  68.227  0.00  0.00    +0.066 C 
ENDROOT
BRANCH   1   2
ATOM      2  C   UNL     1     -11.025  14.536  67.206  0.00  0.00    +0.132 C 
ATOM      3  C   UNL     1     -12.223  13.728  66.904  0.00  0.00    +0.031 C 
ATOM      4  C   UNL     1     -12.583  13.644  65.440  0.00  0.00    +0.003 C 
ATOM      5  C   UNL     1     -11.322  13.253  64.701  0.00  0.00    +0.000 C 
ATOM      6  C   UNL     1     -10.273  14.314  64.907  0.00  0.00    +0.003 C 
ATOM      7  C   UNL     1     -10.697  15.342  65.951  0.00  0.00    +0.031 C 
ATOM      8  O   UNL     1      -9.916  13.931  67.628  0.00  0.00    -0.225 OA
ENDBRANCH   1   2
BRANCH   1   9
ATOM      9  C   UNL     1     -10.161  16.682  67.932  0.00  0.00    -0.019 A 
ATOM     10  C   UNL     1     -10.537  18.017  67.776  0.00  0.00    -0.001 A 
ATOM     11  C   UNL     1      -9.511  18.952  67.672  0.00  0.00    +0.042 A 
ATOM     12  C   UNL     1      -8.200  18.560  67.849  0.00  0.00    +0.196 A 
ATOM     13  O   UNL     1      -7.117  19.198  67.251  0.00  0.00    -0.287 OA
ATOM     14  C   UNL     1      -8.029  17.387  68.568  0.00  0.00    +0.042 A 
ATOM     15  C   UNL     1      -9.111  16.548  68.822  0.00  0.00    -0.001 A 
ENDBRANCH   1   9
BRANCH   1  16
ATOM     16  C   UNL     1     -10.756  15.029  69.541  0.00  0.00    +0.079 C 
BRANCH  16  18
ATOM     17  C   UNL     1     -12.192  13.948  70.718  0.00  0.00    +0.090 C 
ATOM     18  N   UNL     1     -11.934  14.910  70.397  0.00  0.00    -0.270 NA
ATOM     19  C   UNL     1     -11.825  15.972  71.391  0.00  0.00    +0.090 C 
ENDBRANCH  16  18
ENDBRANCH   1  16
TORSDOF 4
ENDMDL
MODEL 9
REMARK VINA RESULT:      -5.2      2.380      5.633
REMARK  Name = 
REMARK  4 active torsions:
REMARK  status: ('A' for Active; 'I' for Inactive)
REMARK    1  A    between atoms: N_2  and  C_4
REMARK    2  A    between atoms: C_4  and  C_5
REMARK    3  A    between atoms: C_5  and  C_6
REMARK    4  A    between atoms: C_5  and  C_13
REMARK                            x       y       z     vdW  Elec       q    Type
REMARK                         _______ _______ _______ _____ _____    ______ ____
ROOT
ATOM      1  C   UNL     1     -11.705  13.652  67.224  0.00  0.00    +0.066 C 
ENDROOT
BRANCH   1   2
ATOM      2  C   UNL     1     -11.189  13.436  65.674  0.00  0.00    +0.132 C 
ATOM      3  C   UNL     1     -10.163  12.374  65.664  0.00  0.00    +0.031 C 
ATOM      4  C   UNL     1     -10.486  11.184  64.793  0.00  0.00    +0.003 C 
ATOM      5  C   UNL     1     -10.882  11.729  63.437  0.00  0.00    +0.000 C 
ATOM      6  C   UNL     1     -12.103  12.598  63.586  0.00  0.00    +0.003 C 
ATOM      7  C   UNL     1     -12.452  12.849  65.050  0.00  0.00    +0.031 C 
ATOM      8  O   UNL     1     -10.926  14.605  65.091  0.00  0.00    -0.225 OA
ENDBRANCH   1   2
BRANCH   1   9
ATOM      9  C   UNL     1     -10.685  14.866  67.566  0.00  0.00    -0.019 A 
ATOM     10  C   UNL     1     -11.349  15.888  68.244  0.00  0.00    -0.001 A 
ATOM     11  C   UNL     1     -10.566  16.927  68.740  0.00  0.00    +0.042 A 
ATOM     12  C   UNL     1      -9.190  16.853  68.660  0.00  0.00    +0.196 A 
ATOM     13  O   UNL     1      -8.361  17.968  68.584  0.00  0.00    -0.287 OA
ATOM     14  C   UNL     1      -8.678  15.572  68.526  0.00  0.00    +0.042 A 
ATOM     15  C   UNL     1      -9.513  14.505  68.207  0.00  0.00    -0.001 A 
ENDBRANCH   1   9
BRANCH   1  16
ATOM     16  C   UNL     1     -10.678  12.497  67.824  0.00  0.00    +0.079 C 
BRANCH  16  18
ATOM     17  C   UNL     1     -11.492  10.625  68.493  0.00  0.00    +0.090 C 
ATOM     18  N   UNL     1     -11.653  11.659  68.517  0.00  0.00    -0.270 NA
ATOM     19  C   UNL     1     -11.898  12.297  69.806  0.00  0.00    +0.090 C 
ENDBRANCH  16  18
ENDBRANCH   1  16
TORSDOF 4
ENDMDL
