MODEL 1
REMARK VINA RESULT:      -8.3      0.000      0.000
REMARK  Name = 
REMARK  0 active torsions:
REMARK  status: ('A' for Active; 'I' for Inactive)
REMARK                            x       y       z     vdW  Elec       q    Type
REMARK                         _______ _______ _______ _____ _____    ______ ____
ROOT
ATOM      1  C   UNL     1     -12.023  12.605  63.332  0.00  0.00    +0.090 C 
ATOM      2  N   UNL     1     -11.653  13.413  64.466  0.00  0.00    -0.265 NA
ATOM      3  C   UNL     1     -12.591  13.328  65.555  0.00  0.00    +0.124 C 
ATOM      4  C   UNL     1     -12.112  14.283  66.637  0.00  0.00    +0.220 C 
ATOM      5  N   UNL     1     -10.895  13.703  67.196  0.00  0.00    -0.188 N 
ATOM      6  C   UNL     1     -10.931  13.390  68.587  0.00  0.00    +0.327 C 
ATOM      7  C   UNL     1     -11.167  11.993  68.964  0.00  0.00    +0.117 A 
ATOM      8  C   UNL     1     -11.909  11.445  70.004  0.00  0.00    +0.153 A 
ATOM      9  C   UNL     1     -11.700  10.106  70.315  0.00  0.00    +0.039 A 
ATOM     10  C   UNL     1     -10.926   9.338  69.459  0.00  0.00    +0.015 A 
ATOM     11  C   UNL     1     -10.657   9.818  68.186  0.00  0.00    +0.058 A 
ATOM     12 CL   UNL     1     -10.409   8.674  66.884  0.00  0.00    -0.082 Cl
ATOM     13  O   UNL     1     -12.614  12.127  70.999  0.00  0.00    -0.449 OA
ATOM     14  C   UNL     1     -12.594  13.501  71.255  0.00  0.00    +0.188 A 
ATOM     15  C   UNL     1     -11.773  14.447  70.651  0.00  0.00    +0.227 A 
ATOM     16  C   UNL     1     -11.931  15.748  71.075  0.00  0.00    +0.050 A 
ATOM     17  C   UNL     1     -12.680  16.033  72.209  0.00  0.00    +0.004 A 
ATOM     18  C   UNL     1     -13.742  15.172  72.457  0.00  0.00    +0.003 A 
ATOM     19  C   UNL     1     -13.767  13.915  71.876  0.00  0.00    +0.041 A 
ATOM     20  C   UNL     1     -10.674  11.188  67.964  0.00  0.00    +0.022 A 
ATOM     21  N   UNL     1     -11.092  14.398  69.392  0.00  0.00    -0.037 NA
ATOM     22  C   UNL     1     -10.143  12.833  66.322  0.00  0.00    +0.220 C 
ATOM     23  C   UNL     1     -10.284  13.232  64.878  0.00  0.00    +0.124 C 
ENDROOT
TORSDOF 0
ENDMDL
MODEL 2
REMARK VINA RESULT:      -7.6      3.349      6.009
REMARK  Name = 
REMARK  0 active torsions:
REMARK  status: ('A' for Active; 'I' for Inactive)
REMARK                            x       y       z     vdW  Elec       q    Type
REMARK                         _______ _______ _______ _____ _____    ______ ____
ROOT
ATOM      1  C   UNL     1      -7.855  18.936  68.743  0.00  0.00    +0.090 C 
ATOM      2  N   UNL     1      -8.554  18.261  67.679  0.00  0.00    -0.265 NA
ATOM      3  C   UNL     1      -8.283  16.847  67.627  0.00  0.00    +0.124 C 
ATOM      4  C   UNL     1      -9.023  16.292  66.421  0.00  0.00    +0.220 C 
ATOM      5  N   UNL     1     -10.445  16.349  66.741  0.00  0.00    -0.188 N 
ATOM      6  C   UNL     1     -11.136  15.102  66.754  0.00  0.00    +0.327 C 
ATOM      7  C   UNL     1     -11.384  14.474  68.056  0.00  0.00    +0.117 A 
ATOM      8  C   UNL     1     -11.348  13.141  68.444  0.00  0.00    +0.153 A 
ATOM      9  C   UNL     1     -11.934  12.801  69.658  0.00  0.00    +0.039 A 
ATOM     10  C   UNL     1     -12.341  13.819  70.507  0.00  0.00    +0.015 A 
ATOM     11  C   UNL     1     -11.874  15.105  70.282  0.00  0.00    +0.058 A 
ATOM     12 CL   UNL     1     -11.690  16.190  71.645  0.00  0.00    -0.082 Cl
ATOM     13  O   UNL     1     -11.083  12.027  67.642  0.00  0.00    -0.449 OA
ATOM     14  C   UNL     1     -10.955  12.001  66.250  0.00  0.00    +0.188 A 
ATOM     15  C   UNL     1     -11.188  13.055  65.375  0.00  0.00    +0.227 A 
ATOM     16  C   UNL     1     -11.001  12.788  64.037  0.00  0.00    +0.050 A 
ATOM     17  C   UNL     1     -10.842  11.480  63.597  0.00  0.00    +0.004 A 
ATOM     18  C   UNL     1     -10.217  10.620  64.490  0.00  0.00    +0.003 A 
ATOM     19  C   UNL     1     -10.163  10.936  65.837  0.00  0.00    +0.041 A 
ATOM     20  C   UNL     1     -11.488  15.469  69.000  0.00  0.00    +0.022 A 
ATOM     21  N   UNL     1     -11.184  14.467  65.620  0.00  0.00    -0.037 NA
ATOM     22  C   UNL     1     -10.844  17.358  67.695  0.00  0.00    +0.220 C 
ATOM     23  C   UNL     1      -9.960  18.574  67.627  0.00  0.00    +0.124 C 
ENDROOT
TORSDOF 0
ENDMDL
MODEL 3
REMARK VINA RESULT:      -7.4      3.519      4.715
REMARK  Name = 
REMARK  0 active torsions:
REMARK  status: ('A' for Active; 'I' for Inactive)
REMARK                            x       y       z     vdW  Elec       q    Type
REMARK                         _______ _______ _______ _____ _____    ______ ____
ROOT
ATOM      1  C   UNL     1     -12.568  11.949  63.723  0.00  0.00    +0.090 C 
ATOM      2  N   UNL     1     -11.483  12.868  63.953  0.00  0.00    -0.265 NA
ATOM      3  C   UNL     1     -11.913  14.135  64.485  0.00  0.00    +0.124 C 
ATOM      4  C   UNL     1     -10.680  15.016  64.603  0.00  0.00    +0.220 C 
ATOM      5  N   UNL     1      -9.870  14.458  65.680  0.00  0.00    -0.188 N 
ATOM      6  C   UNL     1      -9.625  15.317  66.791  0.00  0.00    +0.327 C 
ATOM      7  C   UNL     1     -10.445  15.128  67.992  0.00  0.00    +0.117 A 
ATOM      8  C   UNL     1     -10.990  16.051  68.876  0.00  0.00    +0.153 A 
ATOM      9  C   UNL     1     -11.454  15.582  70.100  0.00  0.00    +0.039 A 
ATOM     10  C   UNL     1     -11.539  14.213  70.299  0.00  0.00    +0.015 A 
ATOM     11  C   UNL     1     -11.473  13.372  69.198  0.00  0.00    +0.058 A 
ATOM     12 CL   UNL     1     -12.313  11.836  69.254  0.00  0.00    -0.082 Cl
ATOM     13  O   UNL     1     -10.854  17.442  68.847  0.00  0.00    -0.449 OA
ATOM     14  C   UNL     1     -10.012  18.189  68.017  0.00  0.00    +0.188 A 
ATOM     15  C   UNL     1      -9.053  17.692  67.142  0.00  0.00    +0.227 A 
ATOM     16  C   UNL     1      -8.338  18.628  66.429  0.00  0.00    +0.050 A 
ATOM     17  C   UNL     1      -8.407  19.974  66.768  0.00  0.00    +0.004 A 
ATOM     18  C   UNL     1      -9.620  20.397  67.294  0.00  0.00    +0.003 A 
ATOM     19  C   UNL     1     -10.505  19.475  67.829  0.00  0.00    +0.041 A 
ATOM     20  C   UNL     1     -10.815  13.805  68.055  0.00  0.00    +0.022 A 
ATOM     21  N   UNL     1      -8.950  16.398  66.536  0.00  0.00    -0.037 NA
ATOM     22  C   UNL     1     -10.033  13.045  65.935  0.00  0.00    +0.220 C 
ATOM     23  C   UNL     1     -10.384  12.287  64.683  0.00  0.00    +0.124 C 
ENDROOT
TORSDOF 0
ENDMDL
MODEL 4
REMARK VINA RESULT:      -7.1      2.305      4.146
REMARK  Name = 
REMARK  0 active torsions:
REMARK  status: ('A' for Active; 'I' for Inactive)
REMARK                            x       y       z     vdW  Elec       q    Type
REMARK                         _______ _______ _______ _____ _____    ______ ____
ROOT
ATOM      1  C   UNL     1      -7.644   8.553  66.843  0.00  0.00    +0.090 C 
ATOM      2  N   UNL     1      -8.649   9.009  67.771  0.00  0.00    -0.265 NA
ATOM      3  C   UNL     1      -8.535  10.409  68.089  0.00  0.00    +0.124 C 
ATOM      4  C   UNL     1      -9.602  10.723  69.125  0.00  0.00    +0.220 C 
ATOM      5  N   UNL     1     -10.887  10.639  68.439  0.00  0.00    -0.188 N 
ATOM      6  C   UNL     1     -11.668  11.831  68.421  0.00  0.00    +0.327 C 
ATOM      7  C   UNL     1     -11.642  12.644  67.200  0.00  0.00    +0.117 A 
ATOM      8  C   UNL     1     -11.636  14.022  67.025  0.00  0.00    +0.153 A 
ATOM      9  C   UNL     1     -11.930  14.517  65.759  0.00  0.00    +0.039 A 
ATOM     10  C   UNL     1     -12.013  13.627  64.700  0.00  0.00    +0.015 A 
ATOM     11  C   UNL     1     -11.497  12.350  64.857  0.00  0.00    +0.058 A 
ATOM     12 CL   UNL     1     -10.876  11.508  63.452  0.00  0.00    -0.082 Cl
ATOM     13  O   UNL     1     -11.687  15.007  68.016  0.00  0.00    -0.449 OA
ATOM     14  C   UNL     1     -11.915  14.817  69.382  0.00  0.00    +0.188 A 
ATOM     15  C   UNL     1     -12.258  13.625  70.009  0.00  0.00    +0.227 A 
ATOM     16  C   UNL     1     -12.438  13.686  71.374  0.00  0.00    +0.050 A 
ATOM     17  C   UNL     1     -12.519  14.914  72.018  0.00  0.00    +0.004 A 
ATOM     18  C   UNL     1     -11.775  15.939  71.449  0.00  0.00    +0.003 A 
ATOM     19  C   UNL     1     -11.356  15.845  70.132  0.00  0.00    +0.041 A 
ATOM     20  C   UNL     1     -11.411  11.808  66.132  0.00  0.00    +0.022 A 
ATOM     21  N   UNL     1     -12.058  12.273  69.579  0.00  0.00    -0.037 NA
ATOM     22  C   UNL     1     -10.937   9.774  67.283  0.00  0.00    +0.220 C 
ATOM     23  C   UNL     1      -9.986   8.614  67.409  0.00  0.00    +0.124 C 
ENDROOT
TORSDOF 0
ENDMDL
MODEL 5
REMARK VINA RESULT:      -7.0      2.620      5.796
REMARK  Name = 
REMARK  0 active torsions:
REMARK  status: ('A' for Active; 'I' for Inactive)
REMARK                            x       y       z     vdW  Elec       q    Type
REMARK                         _______ _______ _______ _____ _____    ______ ____
ROOT
ATOM      1  C   UNL     1     -12.685  15.295  74.603  0.00  0.00    +0.090 C 
ATOM      2  N   UNL     1     -12.700  15.820  73.261  0.00  0.00    -0.265 NA
ATOM      3  C   UNL     1     -11.447  15.652  72.571  0.00  0.00    +0.124 C 
ATOM      4  C   UNL     1     -11.590  16.315  71.211  0.00  0.00    +0.220 C 
ATOM      5  N   UNL     1     -12.513  15.489  70.439  0.00  0.00    -0.188 N 
ATOM      6  C   UNL     1     -11.995  14.927  69.236  0.00  0.00    +0.327 C 
ATOM      7  C   UNL     1     -11.565  13.525  69.270  0.00  0.00    +0.117 A 
ATOM      8  C   UNL     1     -10.486  12.890  68.665  0.00  0.00    +0.153 A 
ATOM      9  C   UNL     1     -10.500  11.501  68.608  0.00  0.00    +0.039 A 
ATOM     10  C   UNL     1     -11.469  10.815  69.323  0.00  0.00    +0.015 A 
ATOM     11  C   UNL     1     -12.177  11.489  70.307  0.00  0.00    +0.058 A 
ATOM     12 CL   UNL     1     -12.781  10.590  71.683  0.00  0.00    -0.082 Cl
ATOM     13  O   UNL     1      -9.529  13.456  67.819  0.00  0.00    -0.449 OA
ATOM     14  C   UNL     1      -9.543  14.743  67.273  0.00  0.00    +0.188 A 
ATOM     15  C   UNL     1     -10.572  15.673  67.363  0.00  0.00    +0.227 A 
ATOM     16  C   UNL     1     -10.357  16.880  66.735  0.00  0.00    +0.050 A 
ATOM     17  C   UNL     1      -9.289  17.039  65.861  0.00  0.00    +0.004 A 
ATOM     18  C   UNL     1      -8.158  16.289  66.157  0.00  0.00    +0.003 A 
ATOM     19  C   UNL     1      -8.256  15.178  66.979  0.00  0.00    +0.041 A 
ATOM     20  C   UNL     1     -12.316  12.867  70.215  0.00  0.00    +0.022 A 
ATOM     21  N   UNL     1     -11.632  15.776  68.321  0.00  0.00    -0.037 NA
ATOM     22  C   UNL     1     -13.463  14.711  71.200  0.00  0.00    +0.220 C 
ATOM     23  C   UNL     1     -13.838  15.391  72.489  0.00  0.00    +0.124 C 
ENDROOT
TORSDOF 0
ENDMDL
MODEL 6
REMARK VINA RESULT:      -6.7      2.333      4.302
REMARK  Name = 
REMARK  0 active torsions:
REMARK  status: ('A' for Active; 'I' for Inactive)
REMARK                            x       y       z     vdW  Elec       q    Type
REMARK                         _______ _______ _______ _____ _____    ______ ____
ROOT
ATOM      1  C   UNL     1      -7.701   7.779  68.442  0.00  0.00    +0.090 C 
ATOM      2  N   UNL     1      -8.850   8.232  69.184  0.00  0.00    -0.265 NA
ATOM      3  C   UNL     1      -8.785   9.627  69.537  0.00  0.00    +0.124 C 
ATOM      4  C   UNL     1     -10.016   9.938  70.372  0.00  0.00    +0.220 C 
ATOM      5  N   UNL     1     -11.160   9.872  69.469  0.00  0.00    -0.188 N 
ATOM      6  C   UNL     1     -11.919  11.072  69.329  0.00  0.00    +0.327 C 
ATOM      7  C   UNL     1     -11.671  11.899  68.143  0.00  0.00    +0.117 A 
ATOM      8  C   UNL     1     -11.626  13.280  67.991  0.00  0.00    +0.153 A 
ATOM      9  C   UNL     1     -11.688  13.793  66.701  0.00  0.00    +0.039 A 
ATOM     10  C   UNL     1     -11.589  12.917  65.631  0.00  0.00    +0.015 A 
ATOM     11  C   UNL     1     -11.117  11.633  65.859  0.00  0.00    +0.058 A 
ATOM     12 CL   UNL     1     -10.263  10.804  64.575  0.00  0.00    -0.082 Cl
ATOM     13  O   UNL     1     -11.845  14.253  68.971  0.00  0.00    -0.449 OA
ATOM     14  C   UNL     1     -12.312  14.048  70.273  0.00  0.00    +0.188 A 
ATOM     15  C   UNL     1     -12.768  12.851  70.813  0.00  0.00    +0.227 A 
ATOM     16  C   UNL     1     -13.186  12.897  72.125  0.00  0.00    +0.050 A 
ATOM     17  C   UNL     1     -13.372  14.117  72.762  0.00  0.00    +0.004 A 
ATOM     18  C   UNL     1     -12.532  15.142  72.348  0.00  0.00    +0.003 A 
ATOM     19  C   UNL     1     -11.888  15.061  71.124  0.00  0.00    +0.041 A 
ATOM     20  C   UNL     1     -11.261  11.075  67.122  0.00  0.00    +0.022 A 
ATOM     21  N   UNL     1     -12.504  11.503  70.406  0.00  0.00    -0.037 NA
ATOM     22  C   UNL     1     -11.011   9.023  68.310  0.00  0.00    +0.220 C 
ATOM     23  C   UNL     1     -10.105   7.854  68.586  0.00  0.00    +0.124 C 
ENDROOT
TORSDOF 0
ENDMDL
MODEL 7
REMARK VINA RESULT:      -6.7      2.734      5.349
REMARK  Name = 
REMARK  0 active torsions:
REMARK  status: ('A' for Active; 'I' for Inactive)
REMARK                            x       y       z     vdW  Elec       q    Type
REMARK                         _______ _______ _______ _____ _____    ______ ____
ROOT
ATOM      1  C   UNL     1      -9.019  17.536  68.813  0.00  0.00    +0.090 C 
ATOM      2  N   UNL     1      -9.440  16.380  68.063  0.00  0.00    -0.265 NA
ATOM      3  C   UNL     1      -9.075  15.133  68.686  0.00  0.00    +0.124 C 
ATOM      4  C   UNL     1      -9.514  14.018  67.751  0.00  0.00    +0.220 C 
ATOM      5  N   UNL     1     -10.973  13.995  67.785  0.00  0.00    -0.188 N 
ATOM      6  C   UNL     1     -11.571  12.784  68.240  0.00  0.00    +0.327 C 
ATOM      7  C   UNL     1     -12.041  12.736  69.629  0.00  0.00    +0.117 A 
ATOM      8  C   UNL     1     -12.001  11.713  70.568  0.00  0.00    +0.153 A 
ATOM      9  C   UNL     1     -12.801  11.836  71.698  0.00  0.00    +0.039 A 
ATOM     10  C   UNL     1     -13.438  13.045  71.933  0.00  0.00    +0.015 A 
ATOM     11  C   UNL     1     -13.017  14.169  71.238  0.00  0.00    +0.058 A 
ATOM     12 CL   UNL     1     -13.186  15.742  71.989  0.00  0.00    -0.082 Cl
ATOM     13  O   UNL     1     -11.506  10.417  70.395  0.00  0.00    -0.449 OA
ATOM     14  C   UNL     1     -11.094   9.824  69.197  0.00  0.00    +0.188 A 
ATOM     15  C   UNL     1     -11.209  10.363  67.921  0.00  0.00    +0.227 A 
ATOM     16  C   UNL     1     -10.735   9.586  66.888  0.00  0.00    +0.050 A 
ATOM     17  C   UNL     1     -10.406   8.254  67.103  0.00  0.00    +0.004 A 
ATOM     18  C   UNL     1      -9.923   7.954  68.371  0.00  0.00    +0.003 A 
ATOM     19  C   UNL     1     -10.168   8.814  69.429  0.00  0.00    +0.041 A 
ATOM     20  C   UNL     1     -12.400  14.009  70.005  0.00  0.00    +0.022 A 
ATOM     21  N   UNL     1     -11.345  11.730  67.513  0.00  0.00    -0.037 NA
ATOM     22  C   UNL     1     -11.623  15.242  68.118  0.00  0.00    +0.220 C 
ATOM     23  C   UNL     1     -10.823  16.431  67.658  0.00  0.00    +0.124 C 
ENDROOT
TORSDOF 0
ENDMDL
MODEL 8
REMARK VINA RESULT:      -6.7      4.034      5.530
REMARK  Name = 
REMARK  0 active torsions:
REMARK  status: ('A' for Active; 'I' for Inactive)
REMARK                            x       y       z     vdW  Elec       q    Type
REMARK                         _______ _______ _______ _____ _____    ______ ____
ROOT
ATOM      1  C   UNL     1     -11.913  10.891  68.836  0.00  0.00    +0.090 C 
ATOM      2  N   UNL     1     -11.912  12.040  67.967  0.00  0.00    -0.265 NA
ATOM      3  C   UNL     1     -11.509  13.254  68.630  0.00  0.00    +0.124 C 
ATOM      4  C   UNL     1     -11.630  14.381  67.617  0.00  0.00    +0.220 C 
ATOM      5  N   UNL     1     -10.575  14.171  66.631  0.00  0.00    -0.188 N 
ATOM      6  C   UNL     1      -9.615  15.217  66.507  0.00  0.00    +0.327 C 
ATOM      7  C   UNL     1      -8.324  15.040  67.181  0.00  0.00    +0.117 A 
ATOM      8  C   UNL     1      -7.517  15.950  67.854  0.00  0.00    +0.153 A 
ATOM      9  C   UNL     1      -6.203  15.581  68.118  0.00  0.00    +0.039 A 
ATOM     10  C   UNL     1      -5.821  14.269  67.884  0.00  0.00    +0.015 A 
ATOM     11  C   UNL     1      -6.804  13.307  67.710  0.00  0.00    +0.058 A 
ATOM     12 CL   UNL     1      -6.466  11.655  68.184  0.00  0.00    -0.082 Cl
ATOM     13  O   UNL     1      -7.741  17.318  68.031  0.00  0.00    -0.449 OA
ATOM     14  C   UNL     1      -8.739  18.094  67.435  0.00  0.00    +0.188 A 
ATOM     15  C   UNL     1      -9.633  17.685  66.452  0.00  0.00    +0.227 A 
ATOM     16  C   UNL     1     -10.529  18.634  66.011  0.00  0.00    +0.050 A 
ATOM     17  C   UNL     1     -10.363  19.970  66.352  0.00  0.00    +0.004 A 
ATOM     18  C   UNL     1      -9.778  20.203  67.591  0.00  0.00    +0.003 A 
ATOM     19  C   UNL     1      -9.044  19.206  68.211  0.00  0.00    +0.041 A 
ATOM     20  C   UNL     1      -8.053  13.694  67.244  0.00  0.00    +0.022 A 
ATOM     21  N   UNL     1     -10.074  16.366  66.106  0.00  0.00    -0.037 NA
ATOM     22  C   UNL     1     -10.124  12.809  66.460  0.00  0.00    +0.220 C 
ATOM     23  C   UNL     1     -11.225  11.817  66.720  0.00  0.00    +0.124 C 
ENDROOT
TORSDOF 0
ENDMDL
MODEL 9
REMARK VINA RESULT:      -6.7      3.680      5.553
REMARK  Name = 
REMARK  0 active torsions:
REMARK  status: ('A' for Active; 'I' for Inactive)
REMARK                            x       y       z     vdW  Elec       q    Type
REMARK                         _______ _______ _______ _____ _____    ______ ____
ROOT
ATOM      1  C   UNL     1      -6.594  10.814  67.323  0.00  0.00    +0.090 C 
ATOM      2  N   UNL     1      -7.224  11.908  68.018  0.00  0.00    -0.265 NA
ATOM      3  C   UNL     1      -7.158  13.153  67.297  0.00  0.00    +0.124 C 
ATOM      4  C   UNL     1      -7.790  14.218  68.179  0.00  0.00    +0.220 C 
ATOM      5  N   UNL     1      -9.220  13.929  68.222  0.00  0.00    -0.188 N 
ATOM      6  C   UNL     1     -10.081  14.950  67.722  0.00  0.00    +0.327 C 
ATOM      7  C   UNL     1     -10.603  14.793  66.361  0.00  0.00    +0.117 A 
ATOM      8  C   UNL     1     -10.819  15.729  65.356  0.00  0.00    +0.153 A 
ATOM      9  C   UNL     1     -11.618  15.355  64.281  0.00  0.00    +0.039 A 
ATOM     10  C   UNL     1     -11.989  14.025  64.160  0.00  0.00    +0.015 A 
ATOM     11  C   UNL     1     -11.311  13.070  64.903  0.00  0.00    +0.058 A 
ATOM     12 CL   UNL     1     -11.169  11.445  64.266  0.00  0.00    -0.082 Cl
ATOM     13  O   UNL     1     -10.607  17.109  65.418  0.00  0.00    -0.449 OA
ATOM     14  C   UNL     1     -10.285  17.863  66.550  0.00  0.00    +0.188 A 
ATOM     15  C   UNL     1     -10.233  17.409  67.863  0.00  0.00    +0.227 A 
ATOM     16  C   UNL     1      -9.896  18.345  68.816  0.00  0.00    +0.050 A 
ATOM     17  C   UNL     1      -9.869  19.696  68.497  0.00  0.00    +0.004 A 
ATOM     18  C   UNL     1      -9.511  19.995  67.189  0.00  0.00    +0.003 A 
ATOM     19  C   UNL     1      -9.607  19.026  66.204  0.00  0.00    +0.041 A 
ATOM     20  C   UNL     1     -10.695  13.449  66.088  0.00  0.00    +0.022 A 
ATOM     21  N   UNL     1     -10.057  16.079  68.366  0.00  0.00    -0.037 NA
ATOM     22  C   UNL     1      -9.600  12.552  68.007  0.00  0.00    +0.220 C 
ATOM     23  C   UNL     1      -8.547  11.597  68.499  0.00  0.00    +0.124 C 
ENDROOT
TORSDOF 0
ENDMDL
