MODEL 1
REMARK VINA RESULT:      -4.6      0.000      0.000
REMARK  Name = 
REMARK  15 active torsions:
REMARK  status: ('A' for Active; 'I' for Inactive)
REMARK    1  A    between atoms: C_2  and  C_3
REMARK    2  A    between atoms: C_3  and  C_4
REMARK    3  A    between atoms: C_4  and  C_5
REMARK    4  A    between atoms: C_5  and  C_6
REMARK    5  A    between atoms: C_6  and  C_7
REMARK    6  A    between atoms: C_7  and  C_8
REMARK    7  A    between atoms: C_8  and  C_9
REMARK    8  A    between atoms: C_10  and  C_11
REMARK    9  A    between atoms: C_11  and  C_12
REMARK   10  A    between atoms: C_12  and  C_13
REMARK   11  A    between atoms: C_13  and  C_14
REMARK   12  A    between atoms: C_14  and  C_15
REMARK   13  A    between atoms: C_15  and  C_16
REMARK   14  A    between atoms: C_16  and  C_17
REMARK   15  A    between atoms: C_17  and  C_18
REMARK                            x       y       z     vdW  Elec       q    Type
REMARK                         _______ _______ _______ _____ _____    ______ ____
ROOT
ATOM      1  C   UNL     1     -10.056  11.392  67.669  0.00  0.00    -0.031 C 
ATOM      2  C   UNL     1      -9.543  11.251  66.443  0.00  0.00    -0.031 C 
ENDROOT
BRANCH   1   3
ATOM      3  C   UNL     1     -11.552  11.391  67.756  0.00  0.00    +0.026 C 
BRANCH   3   4
ATOM      4  C   UNL     1     -11.919  12.828  68.114  0.00  0.00    +0.005 C 
BRANCH   4   5
ATOM      5  C   UNL     1     -11.269  13.244  69.412  0.00  0.00    +0.000 C 
BRANCH   5   6
ATOM      6  C   UNL     1     -10.896  14.697  69.366  0.00  0.00    +0.000 C 
BRANCH   6   7
ATOM      7  C   UNL     1     -12.153  15.506  69.603  0.00  0.00    +0.000 C 
BRANCH   7   8
ATOM      8  C   UNL     1     -12.332  15.612  71.109  0.00  0.00    +0.000 C 
BRANCH   8  10
ATOM      9  C   UNL     1     -13.823  13.954  72.222  0.00  0.00    +0.000 C 
ATOM     10  C   UNL     1     -13.768  15.229  71.415  0.00  0.00    +0.000 C 
ENDBRANCH   8  10
ENDBRANCH   7   8
ENDBRANCH   6   7
ENDBRANCH   5   6
ENDBRANCH   4   5
ENDBRANCH   3   4
ENDBRANCH   1   3
BRANCH   2  11
ATOM     11  C   UNL     1     -10.077  10.148  65.619  0.00  0.00    +0.026 C 
BRANCH  11  12
ATOM     12  C   UNL     1      -9.827  10.307  64.149  0.00  0.00    +0.005 C 
BRANCH  12  13
ATOM     13  C   UNL     1     -10.259  11.635  63.597  0.00  0.00    +0.000 C 
BRANCH  13  14
ATOM     14  C   UNL     1     -11.749  11.830  63.604  0.00  0.00    +0.000 C 
BRANCH  14  15
ATOM     15  C   UNL     1     -12.038  13.094  64.364  0.00  0.00    +0.001 C 
BRANCH  15  16
ATOM     16  C   UNL     1     -10.834  13.978  64.533  0.00  0.00    +0.012 C 
BRANCH  16  17
ATOM     17  C   UNL     1     -11.012  15.035  65.589  0.00  0.00    +0.114 C 
BRANCH  17  18
ATOM     18  C   UNL     1     -10.949  16.383  64.977  0.00  0.00    +0.365 C 
ATOM     19  O   UNL     1     -10.032  17.311  65.446  0.00  0.00    -0.246 OA
ATOM     20  O   UNL     1     -11.580  16.665  63.940  0.00  0.00    -0.246 OA
ENDBRANCH  17  18
ENDBRANCH  16  17
ENDBRANCH  15  16
ENDBRANCH  14  15
ENDBRANCH  13  14
ENDBRANCH  12  13
ENDBRANCH  11  12
ENDBRANCH   2  11
TORSDOF 15
ENDMDL
MODEL 2
REMARK VINA RESULT:      -4.4      2.916      6.036
REMARK  Name = 
REMARK  15 active torsions:
REMARK  status: ('A' for Active; 'I' for Inactive)
REMARK    1  A    between atoms: C_2  and  C_3
REMARK    2  A    between atoms: C_3  and  C_4
REMARK    3  A    between atoms: C_4  and  C_5
REMARK    4  A    between atoms: C_5  and  C_6
REMARK    5  A    between atoms: C_6  and  C_7
REMARK    6  A    between atoms: C_7  and  C_8
REMARK    7  A    between atoms: C_8  and  C_9
REMARK    8  A    between atoms: C_10  and  C_11
REMARK    9  A    between atoms: C_11  and  C_12
REMARK   10  A    between atoms: C_12  and  C_13
REMARK   11  A    between atoms: C_13  and  C_14
REMARK   12  A    between atoms: C_14  and  C_15
REMARK   13  A    between atoms: C_15  and  C_16
REMARK   14  A    between atoms: C_16  and  C_17
REMARK   15  A    between atoms: C_17  and  C_18
REMARK                            x       y       z     vdW  Elec       q    Type
REMARK                         _______ _______ _______ _____ _____    ______ ____
ROOT
ATOM      1  C   UNL     1     -12.456  12.824  65.203  0.00  0.00    -0.031 C 
ATOM      2  C   UNL     1     -12.496  14.004  65.830  0.00  0.00    -0.031 C 
ENDROOT
BRANCH   1   3
ATOM      3  C   UNL     1     -12.007  12.860  63.773  0.00  0.00    +0.026 C 
BRANCH   3   4
ATOM      4  C   UNL     1     -11.399  11.483  63.525  0.00  0.00    +0.005 C 
BRANCH   4   5
ATOM      5  C   UNL     1     -10.052  11.358  64.199  0.00  0.00    +0.000 C 
BRANCH   5   6
ATOM      6  C   UNL     1     -10.022  10.144  65.082  0.00  0.00    +0.000 C 
BRANCH   6   7
ATOM      7  C   UNL     1      -9.633  10.593  66.474  0.00  0.00    +0.000 C 
BRANCH   7   8
ATOM      8  C   UNL     1     -10.858  10.409  67.355  0.00  0.00    +0.000 C 
BRANCH   8  10
ATOM      9  C   UNL     1     -11.963  11.355  69.379  0.00  0.00    +0.000 C 
ATOM     10  C   UNL     1     -10.742  11.409  68.492  0.00  0.00    +0.000 C 
ENDBRANCH   8  10
ENDBRANCH   7   8
ENDBRANCH   6   7
ENDBRANCH   5   6
ENDBRANCH   4   5
ENDBRANCH   3   4
ENDBRANCH   1   3
BRANCH   2  11
ATOM     11  C   UNL     1     -11.301  14.862  65.716  0.00  0.00    +0.026 C 
BRANCH  11  12
ATOM     12  C   UNL     1     -10.179  14.471  66.632  0.00  0.00    +0.005 C 
BRANCH  12  13
ATOM     13  C   UNL     1      -9.887  15.481  67.704  0.00  0.00    +0.000 C 
BRANCH  13  14
ATOM     14  C   UNL     1     -10.040  14.936  69.096  0.00  0.00    +0.000 C 
BRANCH  14  15
ATOM     15  C   UNL     1     -11.056  15.786  69.807  0.00  0.00    +0.001 C 
BRANCH  15  16
ATOM     16  C   UNL     1     -12.310  15.041  70.169  0.00  0.00    +0.012 C 
BRANCH  16  17
ATOM     17  C   UNL     1     -12.334  14.569  71.597  0.00  0.00    +0.114 C 
BRANCH  17  18
ATOM     18  C   UNL     1     -13.719  14.607  72.123  0.00  0.00    +0.365 C 
ATOM     19  O   UNL     1     -14.479  15.759  71.983  0.00  0.00    -0.246 OA
ATOM     20  O   UNL     1     -14.292  13.583  72.544  0.00  0.00    -0.246 OA
ENDBRANCH  17  18
ENDBRANCH  16  17
ENDBRANCH  15  16
ENDBRANCH  14  15
ENDBRANCH  13  14
ENDBRANCH  12  13
ENDBRANCH  11  12
ENDBRANCH   2  11
TORSDOF 15
ENDMDL
MODEL 3
REMARK VINA RESULT:      -4.4      3.052      6.000
REMARK  Name = 
REMARK  15 active torsions:
REMARK  status: ('A' for Active; 'I' for Inactive)
REMARK    1  A    between atoms: C_2  and  C_3
REMARK    2  A    between atoms: C_3  and  C_4
REMARK    3  A    between atoms: C_4  and  C_5
REMARK    4  A    between atoms: C_5  and  C_6
REMARK    5  A    between atoms: C_6  and  C_7
REMARK    6  A    between atoms: C_7  and  C_8
REMARK    7  A    between atoms: C_8  and  C_9
REMARK    8  A    between atoms: C_10  and  C_11
REMARK    9  A    between atoms: C_11  and  C_12
REMARK   10  A    between atoms: C_12  and  C_13
REMARK   11  A    between atoms: C_13  and  C_14
REMARK   12  A    between atoms: C_14  and  C_15
REMARK   13  A    between atoms: C_15  and  C_16
REMARK   14  A    between atoms: C_16  and  C_17
REMARK   15  A    between atoms: C_17  and  C_18
REMARK                            x       y       z     vdW  Elec       q    Type
REMARK                         _______ _______ _______ _____ _____    ______ ____
ROOT
ATOM      1  C   UNL     1      -9.980  10.021  65.778  0.00  0.00    -0.031 C 
ATOM      2  C   UNL     1     -10.764  10.156  66.852  0.00  0.00    -0.031 C 
ENDROOT
BRANCH   1   3
ATOM      3  C   UNL     1      -9.775  11.259  64.957  0.00  0.00    +0.026 C 
BRANCH   3   4
ATOM      4  C   UNL     1     -10.869  11.202  63.896  0.00  0.00    +0.005 C 
BRANCH   4   5
ATOM      5  C   UNL     1     -11.840  12.348  64.060  0.00  0.00    +0.000 C 
BRANCH   5   6
ATOM      6  C   UNL     1     -11.109  13.596  64.465  0.00  0.00    +0.000 C 
BRANCH   6   7
ATOM      7  C   UNL     1     -11.831  14.190  65.655  0.00  0.00    +0.000 C 
BRANCH   7   8
ATOM      8  C   UNL     1     -10.960  15.319  66.181  0.00  0.00    +0.000 C 
BRANCH   8  10
ATOM      9  C   UNL     1      -8.840  14.455  67.164  0.00  0.00    +0.000 C 
ATOM     10  C   UNL     1      -9.518  14.935  65.904  0.00  0.00    +0.000 C 
ENDBRANCH   8  10
ENDBRANCH   7   8
ENDBRANCH   6   7
ENDBRANCH   5   6
ENDBRANCH   4   5
ENDBRANCH   3   4
ENDBRANCH   1   3
BRANCH   2  11
ATOM     11  C   UNL     1     -10.477  11.294  67.749  0.00  0.00    +0.026 C 
BRANCH  11  12
ATOM     12  C   UNL     1     -11.702  11.981  68.275  0.00  0.00    +0.005 C 
BRANCH  12  13
ATOM     13  C   UNL     1     -11.456  12.812  69.500  0.00  0.00    +0.000 C 
BRANCH  13  14
ATOM     14  C   UNL     1     -12.212  14.111  69.504  0.00  0.00    +0.000 C 
BRANCH  14  15
ATOM     15  C   UNL     1     -11.253  15.192  69.921  0.00  0.00    +0.001 C 
BRANCH  15  16
ATOM     16  C   UNL     1     -11.755  16.027  71.065  0.00  0.00    +0.012 C 
BRANCH  16  17
ATOM     17  C   UNL     1     -11.902  15.257  72.349  0.00  0.00    +0.114 C 
BRANCH  17  18
ATOM     18  C   UNL     1     -13.008  15.820  73.158  0.00  0.00    +0.365 C 
ATOM     19  O   UNL     1     -12.751  16.316  74.427  0.00  0.00    -0.246 OA
ATOM     20  O   UNL     1     -14.141  16.020  72.677  0.00  0.00    -0.246 OA
ENDBRANCH  17  18
ENDBRANCH  16  17
ENDBRANCH  15  16
ENDBRANCH  14  15
ENDBRANCH  13  14
ENDBRANCH  12  13
ENDBRANCH  11  12
ENDBRANCH   2  11
TORSDOF 15
ENDMDL
MODEL 4
REMARK VINA RESULT:      -4.3      3.852      5.897
REMARK  Name = 
REMARK  15 active torsions:
REMARK  status: ('A' for Active; 'I' for Inactive)
REMARK    1  A    between atoms: C_2  and  C_3
REMARK    2  A    between atoms: C_3  and  C_4
REMARK    3  A    between atoms: C_4  and  C_5
REMARK    4  A    between atoms: C_5  and  C_6
REMARK    5  A    between atoms: C_6  and  C_7
REMARK    6  A    between atoms: C_7  and  C_8
REMARK    7  A    between atoms: C_8  and  C_9
REMARK    8  A    between atoms: C_10  and  C_11
REMARK    9  A    between atoms: C_11  and  C_12
REMARK   10  A    between atoms: C_12  and  C_13
REMARK   11  A    between atoms: C_13  and  C_14
REMARK   12  A    between atoms: C_14  and  C_15
REMARK   13  A    between atoms: C_15  and  C_16
REMARK   14  A    between atoms: C_16  and  C_17
REMARK   15  A    between atoms: C_17  and  C_18
REMARK                            x       y       z     vdW  Elec       q    Type
REMARK                         _______ _______ _______ _____ _____    ______ ____
ROOT
ATOM      1  C   UNL     1     -10.685  10.603  66.782  0.00  0.00    -0.031 C 
ATOM      2  C   UNL     1     -10.641  11.864  66.342  0.00  0.00    -0.031 C 
ENDROOT
BRANCH   1   3
ATOM      3  C   UNL     1     -11.270  10.406  68.148  0.00  0.00    +0.026 C 
BRANCH   3   4
ATOM      4  C   UNL     1     -10.106  10.647  69.104  0.00  0.00    +0.005 C 
BRANCH   4   5
ATOM      5  C   UNL     1      -9.805   9.406  69.911  0.00  0.00    +0.000 C 
BRANCH   5   6
ATOM      6  C   UNL     1     -11.079   8.782  70.402  0.00  0.00    +0.000 C 
BRANCH   6   7
ATOM      7  C   UNL     1     -11.611   9.639  71.530  0.00  0.00    +0.000 C 
BRANCH   7   8
ATOM      8  C   UNL     1     -13.107   9.785  71.307  0.00  0.00    +0.000 C 
BRANCH   8  10
ATOM      9  C   UNL     1     -14.759   7.960  71.696  0.00  0.00    +0.000 C 
ATOM     10  C   UNL     1     -13.798   8.924  72.349  0.00  0.00    +0.000 C 
ENDBRANCH   8  10
ENDBRANCH   7   8
ENDBRANCH   6   7
ENDBRANCH   5   6
ENDBRANCH   4   5
ENDBRANCH   3   4
ENDBRANCH   1   3
BRANCH   2  11
ATOM     11  C   UNL     1     -11.883  12.655  66.458  0.00  0.00    +0.026 C 
BRANCH  11  12
ATOM     12  C   UNL     1     -11.669  14.062  66.929  0.00  0.00    +0.005 C 
BRANCH  12  13
ATOM     13  C   UNL     1     -10.944  14.163  68.240  0.00  0.00    +0.000 C 
BRANCH  13  14
ATOM     14  C   UNL     1     -11.810  14.654  69.367  0.00  0.00    +0.000 C 
BRANCH  14  15
ATOM     15  C   UNL     1     -12.196  13.460  70.194  0.00  0.00    +0.001 C 
BRANCH  15  16
ATOM     16  C   UNL     1     -12.744  13.821  71.546  0.00  0.00    +0.012 C 
BRANCH  16  17
ATOM     17  C   UNL     1     -12.158  15.086  72.111  0.00  0.00    +0.114 C 
BRANCH  17  18
ATOM     18  C   UNL     1     -13.184  15.821  72.888  0.00  0.00    +0.365 C 
ATOM     19  O   UNL     1     -14.452  16.002  72.358  0.00  0.00    -0.246 OA
ATOM     20  O   UNL     1     -13.002  16.144  74.078  0.00  0.00    -0.246 OA
ENDBRANCH  17  18
ENDBRANCH  16  17
ENDBRANCH  15  16
ENDBRANCH  14  15
ENDBRANCH  13  14
ENDBRANCH  12  13
ENDBRANCH  11  12
ENDBRANCH   2  11
TORSDOF 15
ENDMDL
MODEL 5
REMARK VINA RESULT:      -4.3      5.691      7.919
REMARK  Name = 
REMARK  15 active torsions:
REMARK  status: ('A' for Active; 'I' for Inactive)
REMARK    1  A    between atoms: C_2  and  C_3
REMARK    2  A    between atoms: C_3  and  C_4
REMARK    3  A    between atoms: C_4  and  C_5
REMARK    4  A    between atoms: C_5  and  C_6
REMARK    5  A    between atoms: C_6  and  C_7
REMARK    6  A    between atoms: C_7  and  C_8
REMARK    7  A    between atoms: C_8  and  C_9
REMARK    8  A    between atoms: C_10  and  C_11
REMARK    9  A    between atoms: C_11  and  C_12
REMARK   10  A    between atoms: C_12  and  C_13
REMARK   11  A    between atoms: C_13  and  C_14
REMARK   12  A    between atoms: C_14  and  C_15
REMARK   13  A    between atoms: C_15  and  C_16
REMARK   14  A    between atoms: C_16  and  C_17
REMARK   15  A    between atoms: C_17  and  C_18
REMARK                            x       y       z     vdW  Elec       q    Type
REMARK                         _______ _______ _______ _____ _____    ______ ____
ROOT
ATOM      1  C   UNL     1     -10.161  19.025  68.246  0.00  0.00    -0.031 C 
ATOM      2  C   UNL     1      -9.737  20.051  67.502  0.00  0.00    -0.031 C 
ENDROOT
BRANCH   1   3
ATOM      3  C   UNL     1     -10.426  17.748  67.506  0.00  0.00    +0.026 C 
BRANCH   3   4
ATOM      4  C   UNL     1     -10.460  16.675  68.590  0.00  0.00    +0.005 C 
BRANCH   4   5
ATOM      5  C   UNL     1     -11.394  15.551  68.208  0.00  0.00    +0.000 C 
BRANCH   5   6
ATOM      6  C   UNL     1     -11.803  14.776  69.427  0.00  0.00    +0.000 C 
BRANCH   6   7
ATOM      7  C   UNL     1     -11.347  15.553  70.644  0.00  0.00    +0.000 C 
BRANCH   7   8
ATOM      8  C   UNL     1     -12.530  15.615  71.597  0.00  0.00    +0.000 C 
BRANCH   8  10
ATOM      9  C   UNL     1     -12.480  15.473  74.084  0.00  0.00    +0.000 C 
ATOM     10  C   UNL     1     -12.036  16.264  72.877  0.00  0.00    +0.000 C 
ENDBRANCH   8  10
ENDBRANCH   7   8
ENDBRANCH   6   7
ENDBRANCH   5   6
ENDBRANCH   4   5
ENDBRANCH   3   4
ENDBRANCH   1   3
BRANCH   2  11
ATOM     11  C   UNL     1      -8.621  19.786  66.573  0.00  0.00    +0.026 C 
BRANCH  11  12
ATOM     12  C   UNL     1      -7.268  20.109  67.135  0.00  0.00    +0.005 C 
BRANCH  12  13
ATOM     13  C   UNL     1      -6.399  18.905  67.360  0.00  0.00    +0.000 C 
BRANCH  13  14
ATOM     14  C   UNL     1      -6.649  18.224  68.676  0.00  0.00    +0.000 C 
BRANCH  14  15
ATOM     15  C   UNL     1      -5.599  18.700  69.640  0.00  0.00    +0.001 C 
BRANCH  15  16
ATOM     16  C   UNL     1      -5.979  19.961  70.365  0.00  0.00    +0.012 C 
BRANCH  16  17
ATOM     17  C   UNL     1      -4.875  20.981  70.409  0.00  0.00    +0.114 C 
BRANCH  17  18
ATOM     18  C   UNL     1      -4.379  21.136  71.796  0.00  0.00    +0.365 C 
ATOM     19  O   UNL     1      -3.780  20.064  72.439  0.00  0.00    -0.246 OA
ATOM     20  O   UNL     1      -4.329  22.249  72.357  0.00  0.00    -0.246 OA
ENDBRANCH  17  18
ENDBRANCH  16  17
ENDBRANCH  15  16
ENDBRANCH  14  15
ENDBRANCH  13  14
ENDBRANCH  12  13
ENDBRANCH  11  12
ENDBRANCH   2  11
TORSDOF 15
ENDMDL
MODEL 6
REMARK VINA RESULT:      -4.3      2.975      6.410
REMARK  Name = 
REMARK  15 active torsions:
REMARK  status: ('A' for Active; 'I' for Inactive)
REMARK    1  A    between atoms: C_2  and  C_3
REMARK    2  A    between atoms: C_3  and  C_4
REMARK    3  A    between atoms: C_4  and  C_5
REMARK    4  A    between atoms: C_5  and  C_6
REMARK    5  A    between atoms: C_6  and  C_7
REMARK    6  A    between atoms: C_7  and  C_8
REMARK    7  A    between atoms: C_8  and  C_9
REMARK    8  A    between atoms: C_10  and  C_11
REMARK    9  A    between atoms: C_11  and  C_12
REMARK   10  A    between atoms: C_12  and  C_13
REMARK   11  A    between atoms: C_13  and  C_14
REMARK   12  A    between atoms: C_14  and  C_15
REMARK   13  A    between atoms: C_15  and  C_16
REMARK   14  A    between atoms: C_16  and  C_17
REMARK   15  A    between atoms: C_17  and  C_18
REMARK                            x       y       z     vdW  Elec       q    Type
REMARK                         _______ _______ _______ _____ _____    ______ ____
ROOT
ATOM      1  C   UNL     1     -11.533  12.429  67.267  0.00  0.00    -0.031 C 
ATOM      2  C   UNL     1     -10.448  12.777  67.965  0.00  0.00    -0.031 C 
ENDROOT
BRANCH   1   3
ATOM      3  C   UNL     1     -12.044  13.453  66.299  0.00  0.00    +0.026 C 
BRANCH   3   4
ATOM      4  C   UNL     1     -12.534  12.643  65.103  0.00  0.00    +0.005 C 
BRANCH   4   5
ATOM      5  C   UNL     1     -11.843  13.082  63.834  0.00  0.00    +0.000 C 
BRANCH   5   6
ATOM      6  C   UNL     1     -10.468  12.484  63.756  0.00  0.00    +0.000 C 
BRANCH   6   7
ATOM      7  C   UNL     1     -10.606  10.984  63.912  0.00  0.00    +0.000 C 
BRANCH   7   8
ATOM      8  C   UNL     1      -9.406  10.512  64.717  0.00  0.00    +0.000 C 
BRANCH   8  10
ATOM      9  C   UNL     1      -9.108   9.451  66.952  0.00  0.00    +0.000 C 
ATOM     10  C   UNL     1      -9.903   9.439  65.668  0.00  0.00    +0.000 C 
ENDBRANCH   8  10
ENDBRANCH   7   8
ENDBRANCH   6   7
ENDBRANCH   5   6
ENDBRANCH   4   5
ENDBRANCH   3   4
ENDBRANCH   1   3
BRANCH   2  11
ATOM     11  C   UNL     1      -9.314  13.335  67.202  0.00  0.00    +0.026 C 
BRANCH  11  12
ATOM     12  C   UNL     1      -8.653  14.510  67.861  0.00  0.00    +0.005 C 
BRANCH  12  13
ATOM     13  C   UNL     1      -9.404  15.046  69.046  0.00  0.00    +0.000 C 
BRANCH  13  14
ATOM     14  C   UNL     1     -10.221  16.268  68.733  0.00  0.00    +0.000 C 
BRANCH  14  15
ATOM     15  C   UNL     1     -11.621  16.013  69.218  0.00  0.00    +0.001 C 
BRANCH  15  16
ATOM     16  C   UNL     1     -11.676  15.289  70.534  0.00  0.00    +0.012 C 
BRANCH  16  17
ATOM     17  C   UNL     1     -12.812  14.308  70.630  0.00  0.00    +0.114 C 
BRANCH  17  18
ATOM     18  C   UNL     1     -13.697  14.662  71.764  0.00  0.00    +0.365 C 
ATOM     19  O   UNL     1     -14.748  15.545  71.569  0.00  0.00    -0.246 OA
ATOM     20  O   UNL     1     -13.636  14.066  72.858  0.00  0.00    -0.246 OA
ENDBRANCH  17  18
ENDBRANCH  16  17
ENDBRANCH  15  16
ENDBRANCH  14  15
ENDBRANCH  13  14
ENDBRANCH  12  13
ENDBRANCH  11  12
ENDBRANCH   2  11
TORSDOF 15
ENDMDL
MODEL 7
REMARK VINA RESULT:      -4.3      4.106      6.028
REMARK  Name = 
REMARK  15 active torsions:
REMARK  status: ('A' for Active; 'I' for Inactive)
REMARK    1  A    between atoms: C_2  and  C_3
REMARK    2  A    between atoms: C_3  and  C_4
REMARK    3  A    between atoms: C_4  and  C_5
REMARK    4  A    between atoms: C_5  and  C_6
REMARK    5  A    between atoms: C_6  and  C_7
REMARK    6  A    between atoms: C_7  and  C_8
REMARK    7  A    between atoms: C_8  and  C_9
REMARK    8  A    between atoms: C_10  and  C_11
REMARK    9  A    between atoms: C_11  and  C_12
REMARK   10  A    between atoms: C_12  and  C_13
REMARK   11  A    between atoms: C_13  and  C_14
REMARK   12  A    between atoms: C_14  and  C_15
REMARK   13  A    between atoms: C_15  and  C_16
REMARK   14  A    between atoms: C_16  and  C_17
REMARK   15  A    between atoms: C_17  and  C_18
REMARK                            x       y       z     vdW  Elec       q    Type
REMARK                         _______ _______ _______ _____ _____    ______ ____
ROOT
ATOM      1  C   UNL     1     -10.871   9.866  68.418  0.00  0.00    -0.031 C 
ATOM      2  C   UNL     1     -10.538  10.502  67.291  0.00  0.00    -0.031 C 
ENDROOT
BRANCH   1   3
ATOM      3  C   UNL     1     -11.042  10.731  69.631  0.00  0.00    +0.026 C 
BRANCH   3   4
ATOM      4  C   UNL     1     -12.477  10.483  70.082  0.00  0.00    +0.005 C 
BRANCH   4   5
ATOM      5  C   UNL     1     -12.592  10.563  71.586  0.00  0.00    +0.000 C 
BRANCH   5   6
ATOM      6  C   UNL     1     -13.503   9.485  72.097  0.00  0.00    +0.000 C 
BRANCH   6   7
ATOM      7  C   UNL     1     -12.923   8.151  71.681  0.00  0.00    +0.000 C 
BRANCH   7   8
ATOM      8  C   UNL     1     -11.641   7.960  72.476  0.00  0.00    +0.000 C 
BRANCH   8  10
ATOM      9  C   UNL     1     -11.382   6.683  70.352  0.00  0.00    +0.000 C 
ATOM     10  C   UNL     1     -10.787   6.966  71.710  0.00  0.00    +0.000 C 
ENDBRANCH   8  10
ENDBRANCH   7   8
ENDBRANCH   6   7
ENDBRANCH   5   6
ENDBRANCH   4   5
ENDBRANCH   3   4
ENDBRANCH   1   3
BRANCH   2  11
ATOM     11  C   UNL     1     -11.339  11.689  66.933  0.00  0.00    +0.026 C 
BRANCH  11  12
ATOM     12  C   UNL     1     -10.520  12.882  66.537  0.00  0.00    +0.005 C 
BRANCH  12  13
ATOM     13  C   UNL     1     -10.872  14.137  67.282  0.00  0.00    +0.000 C 
BRANCH  13  14
ATOM     14  C   UNL     1     -11.998  13.956  68.261  0.00  0.00    +0.000 C 
BRANCH  14  15
ATOM     15  C   UNL     1     -11.720  14.845  69.441  0.00  0.00    +0.001 C 
BRANCH  15  16
ATOM     16  C   UNL     1     -12.032  14.200  70.762  0.00  0.00    +0.012 C 
BRANCH  16  17
ATOM     17  C   UNL     1     -12.692  15.131  71.741  0.00  0.00    +0.114 C 
BRANCH  17  18
ATOM     18  C   UNL     1     -14.093  14.712  71.980  0.00  0.00    +0.365 C 
ATOM     19  O   UNL     1     -15.137  15.470  71.473  0.00  0.00    -0.246 OA
ATOM     20  O   UNL     1     -14.372  13.605  72.483  0.00  0.00    -0.246 OA
ENDBRANCH  17  18
ENDBRANCH  16  17
ENDBRANCH  15  16
ENDBRANCH  14  15
ENDBRANCH  13  14
ENDBRANCH  12  13
ENDBRANCH  11  12
ENDBRANCH   2  11
TORSDOF 15
ENDMDL
MODEL 8
REMARK VINA RESULT:      -4.2      2.930      5.734
REMARK  Name = 
REMARK  15 active torsions:
REMARK  status: ('A' for Active; 'I' for Inactive)
REMARK    1  A    between atoms: C_2  and  C_3
REMARK    2  A    between atoms: C_3  and  C_4
REMARK    3  A    between atoms: C_4  and  C_5
REMARK    4  A    between atoms: C_5  and  C_6
REMARK    5  A    between atoms: C_6  and  C_7
REMARK    6  A    between atoms: C_7  and  C_8
REMARK    7  A    between atoms: C_8  and  C_9
REMARK    8  A    between atoms: C_10  and  C_11
REMARK    9  A    between atoms: C_11  and  C_12
REMARK   10  A    between atoms: C_12  and  C_13
REMARK   11  A    between atoms: C_13  and  C_14
REMARK   12  A    between atoms: C_14  and  C_15
REMARK   13  A    between atoms: C_15  and  C_16
REMARK   14  A    between atoms: C_16  and  C_17
REMARK   15  A    between atoms: C_17  and  C_18
REMARK                            x       y       z     vdW  Elec       q    Type
REMARK                         _______ _______ _______ _____ _____    ______ ____
ROOT
ATOM      1  C   UNL     1      -9.506  11.368  65.847  0.00  0.00    -0.031 C 
ATOM      2  C   UNL     1      -9.486  10.763  67.038  0.00  0.00    -0.031 C 
ENDROOT
BRANCH   1   3
ATOM      3  C   UNL     1     -10.066  10.563  64.713  0.00  0.00    +0.026 C 
BRANCH   3   4
ATOM      4  C   UNL     1     -11.010  11.518  63.991  0.00  0.00    +0.005 C 
BRANCH   4   5
ATOM      5  C   UNL     1     -10.720  12.952  64.368  0.00  0.00    +0.000 C 
BRANCH   5   6
ATOM      6  C   UNL     1     -11.994  13.744  64.425  0.00  0.00    +0.000 C 
BRANCH   6   7
ATOM      7  C   UNL     1     -12.393  13.877  65.880  0.00  0.00    +0.000 C 
BRANCH   7   8
ATOM      8  C   UNL     1     -11.192  14.448  66.616  0.00  0.00    +0.000 C 
BRANCH   8  10
ATOM      9  C   UNL     1     -10.593  14.659  69.025  0.00  0.00    +0.000 C 
ATOM     10  C   UNL     1     -11.673  14.870  67.992  0.00  0.00    +0.000 C 
ENDBRANCH   8  10
ENDBRANCH   7   8
ENDBRANCH   6   7
ENDBRANCH   5   6
ENDBRANCH   4   5
ENDBRANCH   3   4
ENDBRANCH   1   3
BRANCH   2  11
ATOM     11  C   UNL     1     -10.735  10.108  67.476  0.00  0.00    +0.026 C 
BRANCH  11  12
ATOM     12  C   UNL     1     -11.666  11.011  68.229  0.00  0.00    +0.005 C 
BRANCH  12  13
ATOM     13  C   UNL     1     -11.456  11.001  69.715  0.00  0.00    +0.000 C 
BRANCH  13  14
ATOM     14  C   UNL     1     -12.666  10.558  70.488  0.00  0.00    +0.000 C 
BRANCH  14  15
ATOM     15  C   UNL     1     -12.823  11.488  71.658  0.00  0.00    +0.001 C 
BRANCH  15  16
ATOM     16  C   UNL     1     -13.121  12.906  71.259  0.00  0.00    +0.012 C 
BRANCH  16  17
ATOM     17  C   UNL     1     -13.923  13.660  72.285  0.00  0.00    +0.114 C 
BRANCH  17  18
ATOM     18  C   UNL     1     -13.316  14.989  72.530  0.00  0.00    +0.365 C 
ATOM     19  O   UNL     1     -14.130  16.085  72.774  0.00  0.00    -0.246 OA
ATOM     20  O   UNL     1     -12.088  15.132  72.692  0.00  0.00    -0.246 OA
ENDBRANCH  17  18
ENDBRANCH  16  17
ENDBRANCH  15  16
ENDBRANCH  14  15
ENDBRANCH  13  14
ENDBRANCH  12  13
ENDBRANCH  11  12
ENDBRANCH   2  11
TORSDOF 15
ENDMDL
MODEL 9
REMARK VINA RESULT:      -4.2      3.029      4.348
REMARK  Name = 
REMARK  15 active torsions:
REMARK  status: ('A' for Active; 'I' for Inactive)
REMARK    1  A    between atoms: C_2  and  C_3
REMARK    2  A    between atoms: C_3  and  C_4
REMARK    3  A    between atoms: C_4  and  C_5
REMARK    4  A    between atoms: C_5  and  C_6
REMARK    5  A    between atoms: C_6  and  C_7
REMARK    6  A    between atoms: C_7  and  C_8
REMARK    7  A    between atoms: C_8  and  C_9
REMARK    8  A    between atoms: C_10  and  C_11
REMARK    9  A    between atoms: C_11  and  C_12
REMARK   10  A    between atoms: C_12  and  C_13
REMARK   11  A    between atoms: C_13  and  C_14
REMARK   12  A    between atoms: C_14  and  C_15
REMARK   13  A    between atoms: C_15  and  C_16
REMARK   14  A    between atoms: C_16  and  C_17
REMARK   15  A    between atoms: C_17  and  C_18
REMARK                            x       y       z     vdW  Elec       q    Type
REMARK                         _______ _______ _______ _____ _____    ______ ____
ROOT
ATOM      1  C   UNL     1      -9.619  10.287  66.852  0.00  0.00    -0.031 C 
ATOM      2  C   UNL     1      -9.483  11.138  65.830  0.00  0.00    -0.031 C 
ENDROOT
BRANCH   1   3
ATOM      3  C   UNL     1     -11.003  10.157  67.414  0.00  0.00    +0.026 C 
BRANCH   3   4
ATOM      4  C   UNL     1     -10.849  10.489  68.895  0.00  0.00    +0.005 C 
BRANCH   4   5
ATOM      5  C   UNL     1     -12.182  10.849  69.509  0.00  0.00    +0.000 C 
BRANCH   5   6
ATOM      6  C   UNL     1     -12.130  10.685  71.000  0.00  0.00    +0.000 C 
BRANCH   6   7
ATOM      7  C   UNL     1     -13.145   9.630  71.387  0.00  0.00    +0.000 C 
BRANCH   7   8
ATOM      8  C   UNL     1     -12.381   8.519  72.089  0.00  0.00    +0.000 C 
BRANCH   8  10
ATOM      9  C   UNL     1     -11.732   6.710  70.502  0.00  0.00    +0.000 C 
ATOM     10  C   UNL     1     -12.802   7.212  71.442  0.00  0.00    +0.000 C 
ENDBRANCH   8  10
ENDBRANCH   7   8
ENDBRANCH   6   7
ENDBRANCH   5   6
ENDBRANCH   4   5
ENDBRANCH   3   4
ENDBRANCH   1   3
BRANCH   2  11
ATOM     11  C   UNL     1     -10.449  11.011  64.722  0.00  0.00    +0.026 C 
BRANCH  11  12
ATOM     12  C   UNL     1     -11.007  12.319  64.245  0.00  0.00    +0.005 C 
BRANCH  12  13
ATOM     13  C   UNL     1     -12.394  12.608  64.741  0.00  0.00    +0.000 C 
BRANCH  13  14
ATOM     14  C   UNL     1     -12.492  13.880  65.535  0.00  0.00    +0.000 C 
BRANCH  14  15
ATOM     15  C   UNL     1     -12.236  13.537  66.976  0.00  0.00    +0.001 C 
BRANCH  15  16
ATOM     16  C   UNL     1     -11.022  14.216  67.546  0.00  0.00    +0.012 C 
BRANCH  16  17
ATOM     17  C   UNL     1     -11.115  14.462  69.027  0.00  0.00    +0.114 C 
BRANCH  17  18
ATOM     18  C   UNL     1     -11.712  15.793  69.286  0.00  0.00    +0.365 C 
ATOM     19  O   UNL     1     -12.488  15.992  70.419  0.00  0.00    -0.246 OA
ATOM     20  O   UNL     1     -11.409  16.795  68.609  0.00  0.00    -0.246 OA
ENDBRANCH  17  18
ENDBRANCH  16  17
ENDBRANCH  15  16
ENDBRANCH  14  15
ENDBRANCH  13  14
ENDBRANCH  12  13
ENDBRANCH  11  12
ENDBRANCH   2  11
TORSDOF 15
ENDMDL
