MODEL 1
REMARK VINA RESULT:      -6.0      0.000      0.000
REMARK  Name = 
REMARK  4 active torsions:
REMARK  status: ('A' for Active; 'I' for Inactive)
REMARK    1  A    between atoms: C_2  and  N_4
REMARK    2  A    between atoms: N_4  and  C_5
REMARK    3  A    between atoms: C_5  and  C_6
REMARK    4  A    between atoms: C_6  and  C_8
REMARK                            x       y       z     vdW  Elec       q    Type
REMARK                         _______ _______ _______ _____ _____    ______ ____
ROOT
ATOM      1  C   UNL     1     -11.815  14.382  67.199  0.00  0.00    +0.013 A 
ATOM      2  C   UNL     1     -12.305  13.823  66.021  0.00  0.00    +0.044 A 
ATOM      3  C   UNL     1     -11.990  14.446  64.818  0.00  0.00    +0.234 A 
ATOM      4  O   UNL     1     -12.664  14.135  63.659  0.00  0.00    -0.283 OA
ATOM      5  C   UNL     1     -11.320  15.660  64.844  0.00  0.00    +0.234 A 
ATOM      6  O   UNL     1     -11.488  16.633  63.878  0.00  0.00    -0.283 OA
ATOM      7  C   UNL     1     -10.494  15.901  65.927  0.00  0.00    +0.045 A 
ATOM      8  C   UNL     1     -10.652  15.123  67.045  0.00  0.00    +0.002 A 
ENDROOT
BRANCH   1   9
ATOM      9  C   UNL     1     -11.656  13.221  68.368  0.00  0.00    +0.192 C 
ATOM     10  O   UNL     1     -10.124  13.121  68.128  0.00  0.00    -0.217 OA
BRANCH   9  11
ATOM     11  C   UNL     1     -11.471  14.408  69.551  0.00  0.00    +0.126 C 
BRANCH  11  12
ATOM     12  N   UNL     1     -12.594  14.271  70.403  0.00  0.00    -0.216 NA
BRANCH  12  14
ATOM     13  C   UNL     1     -12.126  15.901  72.049  0.00  0.00    +0.019 C 
ATOM     14  C   UNL     1     -13.114  15.449  71.007  0.00  0.00    +0.073 C 
ATOM     15  C   UNL     1     -14.418  15.069  71.701  0.00  0.00    +0.019 C 
ENDBRANCH  12  14
ENDBRANCH  11  12
ENDBRANCH   9  11
ENDBRANCH   1   9
TORSDOF 4
ENDMDL
MODEL 2
REMARK VINA RESULT:      -5.9      2.008      2.962
REMARK  Name = 
REMARK  4 active torsions:
REMARK  status: ('A' for Active; 'I' for Inactive)
REMARK    1  A    between atoms: C_2  and  N_4
REMARK    2  A    between atoms: N_4  and  C_5
REMARK    3  A    between atoms: C_5  and  C_6
REMARK    4  A    between atoms: C_6  and  C_8
REMARK                            x       y       z     vdW  Elec       q    Type
REMARK                         _______ _______ _______ _____ _____    ______ ____
ROOT
ATOM      1  C   UNL     1     -11.786  14.654  68.637  0.00  0.00    +0.013 A 
ATOM      2  C   UNL     1     -11.754  13.278  68.850  0.00  0.00    +0.044 A 
ATOM      3  C   UNL     1     -11.741  12.442  67.739  0.00  0.00    +0.234 A 
ATOM      4  O   UNL     1     -12.002  11.096  67.859  0.00  0.00    -0.283 OA
ATOM      5  C   UNL     1     -11.892  12.996  66.477  0.00  0.00    +0.234 A 
ATOM      6  O   UNL     1     -12.495  12.329  65.429  0.00  0.00    -0.283 OA
ATOM      7  C   UNL     1     -11.459  14.300  66.306  0.00  0.00    +0.045 A 
ATOM      8  C   UNL     1     -11.248  15.062  67.425  0.00  0.00    +0.002 A 
ENDROOT
BRANCH   1   9
ATOM      9  C   UNL     1     -11.102  15.454  69.915  0.00  0.00    +0.192 C 
ATOM     10  O   UNL     1     -11.183  16.815  69.169  0.00  0.00    -0.217 OA
BRANCH   9  11
ATOM     11  C   UNL     1     -12.618  15.663  70.623  0.00  0.00    +0.126 C 
BRANCH  11  12
ATOM     12  N   UNL     1     -12.362  16.005  71.972  0.00  0.00    -0.216 NA
BRANCH  12  14
ATOM     13  C   UNL     1     -12.454  15.434  74.263  0.00  0.00    +0.019 C 
ATOM     14  C   UNL     1     -13.220  15.461  72.968  0.00  0.00    +0.073 C 
ATOM     15  C   UNL     1     -13.541  14.027  72.559  0.00  0.00    +0.019 C 
ENDBRANCH  12  14
ENDBRANCH  11  12
ENDBRANCH   9  11
ENDBRANCH   1   9
TORSDOF 4
ENDMDL
MODEL 3
REMARK VINA RESULT:      -5.8      1.287      2.101
REMARK  Name = 
REMARK  4 active torsions:
REMARK  status: ('A' for Active; 'I' for Inactive)
REMARK    1  A    between atoms: C_2  and  N_4
REMARK    2  A    between atoms: N_4  and  C_5
REMARK    3  A    between atoms: C_5  and  C_6
REMARK    4  A    between atoms: C_6  and  C_8
REMARK                            x       y       z     vdW  Elec       q    Type
REMARK                         _______ _______ _______ _____ _____    ______ ____
ROOT
ATOM      1  C   UNL     1     -10.651  14.658  66.816  0.00  0.00    +0.013 A 
ATOM      2  C   UNL     1     -10.766  15.737  65.942  0.00  0.00    +0.044 A 
ATOM      3  C   UNL     1     -11.614  15.607  64.847  0.00  0.00    +0.234 A 
ATOM      4  O   UNL     1     -11.560  16.495  63.797  0.00  0.00    -0.283 OA
ATOM      5  C   UNL     1     -12.204  14.378  64.594  0.00  0.00    +0.234 A 
ATOM      6  O   UNL     1     -12.517  13.941  63.322  0.00  0.00    -0.283 OA
ATOM      7  C   UNL     1     -12.428  13.552  65.681  0.00  0.00    +0.045 A 
ATOM      8  C   UNL     1     -11.758  13.821  66.846  0.00  0.00    +0.002 A 
ENDROOT
BRANCH   1   9
ATOM      9  C   UNL     1     -10.233  15.182  68.330  0.00  0.00    +0.192 C 
ATOM     10  O   UNL     1     -10.559  16.656  67.962  0.00  0.00    -0.217 OA
BRANCH   9  11
ATOM     11  C   UNL     1     -11.799  14.893  68.885  0.00  0.00    +0.126 C 
BRANCH  11  12
ATOM     12  N   UNL     1     -12.082  15.948  69.785  0.00  0.00    -0.216 NA
BRANCH  12  14
ATOM     13  C   UNL     1     -11.932  16.137  72.136  0.00  0.00    +0.019 C 
ATOM     14  C   UNL     1     -12.764  15.625  70.991  0.00  0.00    +0.073 C 
ATOM     15  C   UNL     1     -12.836  14.104  71.081  0.00  0.00    +0.019 C 
ENDBRANCH  12  14
ENDBRANCH  11  12
ENDBRANCH   9  11
ENDBRANCH   1   9
TORSDOF 4
ENDMDL
MODEL 4
REMARK VINA RESULT:      -5.6      1.860      2.940
REMARK  Name = 
REMARK  4 active torsions:
REMARK  status: ('A' for Active; 'I' for Inactive)
REMARK    1  A    between atoms: C_2  and  N_4
REMARK    2  A    between atoms: N_4  and  C_5
REMARK    3  A    between atoms: C_5  and  C_6
REMARK    4  A    between atoms: C_6  and  C_8
REMARK                            x       y       z     vdW  Elec       q    Type
REMARK                         _______ _______ _______ _____ _____    ______ ____
ROOT
ATOM      1  C   UNL     1     -10.986  14.402  68.851  0.00  0.00    +0.013 A 
ATOM      2  C   UNL     1     -11.583  14.862  67.680  0.00  0.00    +0.044 A 
ATOM      3  C   UNL     1     -12.086  13.923  66.787  0.00  0.00    +0.234 A 
ATOM      4  O   UNL     1     -12.417  14.273  65.497  0.00  0.00    -0.283 OA
ATOM      5  C   UNL     1     -11.859  12.576  67.028  0.00  0.00    +0.234 A 
ATOM      6  O   UNL     1     -11.731  11.641  66.018  0.00  0.00    -0.283 OA
ATOM      7  C   UNL     1     -11.705  12.189  68.347  0.00  0.00    +0.045 A 
ATOM      8  C   UNL     1     -11.434  13.159  69.277  0.00  0.00    +0.002 A 
ENDROOT
BRANCH   1   9
ATOM      9  C   UNL     1     -11.103  15.541  70.047  0.00  0.00    +0.192 C 
ATOM     10  O   UNL     1     -11.611  16.613  69.042  0.00  0.00    -0.217 OA
BRANCH   9  11
ATOM     11  C   UNL     1     -12.667  15.029  70.411  0.00  0.00    +0.126 C 
BRANCH  11  12
ATOM     12  N   UNL     1     -13.089  15.841  71.491  0.00  0.00    -0.216 NA
BRANCH  12  14
ATOM     13  C   UNL     1     -12.697  15.427  73.785  0.00  0.00    +0.019 C 
ATOM     14  C   UNL     1     -13.637  15.192  72.633  0.00  0.00    +0.073 C 
ATOM     15  C   UNL     1     -13.678  13.697  72.332  0.00  0.00    +0.019 C 
ENDBRANCH  12  14
ENDBRANCH  11  12
ENDBRANCH   9  11
ENDBRANCH   1   9
TORSDOF 4
ENDMDL
MODEL 5
REMARK VINA RESULT:      -5.5      3.042      4.047
REMARK  Name = 
REMARK  4 active torsions:
REMARK  status: ('A' for Active; 'I' for Inactive)
REMARK    1  A    between atoms: C_2  and  N_4
REMARK    2  A    between atoms: N_4  and  C_5
REMARK    3  A    between atoms: C_5  and  C_6
REMARK    4  A    between atoms: C_6  and  C_8
REMARK                            x       y       z     vdW  Elec       q    Type
REMARK                         _______ _______ _______ _____ _____    ______ ____
ROOT
ATOM      1  C   UNL     1     -10.011  14.719  66.298  0.00  0.00    +0.013 A 
ATOM      2  C   UNL     1     -10.767  15.314  65.290  0.00  0.00    +0.044 A 
ATOM      3  C   UNL     1     -11.978  14.726  64.944  0.00  0.00    +0.234 A 
ATOM      4  O   UNL     1     -12.631  15.072  63.782  0.00  0.00    -0.283 OA
ATOM      5  C   UNL     1     -12.325  13.511  65.515  0.00  0.00    +0.234 A 
ATOM      6  O   UNL     1     -13.097  12.567  64.866  0.00  0.00    -0.283 OA
ATOM      7  C   UNL     1     -11.813  13.237  66.771  0.00  0.00    +0.045 A 
ATOM      8  C   UNL     1     -10.750  13.981  67.212  0.00  0.00    +0.002 A 
ENDROOT
BRANCH   1   9
ATOM      9  C   UNL     1      -9.054  15.845  67.045  0.00  0.00    +0.192 C 
ATOM     10  O   UNL     1      -8.846  16.621  65.715  0.00  0.00    -0.217 OA
BRANCH   9  11
ATOM     11  C   UNL     1     -10.411  16.757  67.455  0.00  0.00    +0.126 C 
BRANCH  11  12
ATOM     12  N   UNL     1     -10.024  17.527  68.578  0.00  0.00    -0.216 NA
BRANCH  12  14
ATOM     13  C   UNL     1     -10.650  19.290  67.134  0.00  0.00    +0.019 C 
ATOM     14  C   UNL     1      -9.948  18.939  68.418  0.00  0.00    +0.073 C 
ATOM     15  C   UNL     1      -8.472  19.304  68.285  0.00  0.00    +0.019 C 
ENDBRANCH  12  14
ENDBRANCH  11  12
ENDBRANCH   9  11
ENDBRANCH   1   9
TORSDOF 4
ENDMDL
MODEL 6
REMARK VINA RESULT:      -5.4      3.153      4.807
REMARK  Name = 
REMARK  4 active torsions:
REMARK  status: ('A' for Active; 'I' for Inactive)
REMARK    1  A    between atoms: C_2  and  N_4
REMARK    2  A    between atoms: N_4  and  C_5
REMARK    3  A    between atoms: C_5  and  C_6
REMARK    4  A    between atoms: C_6  and  C_8
REMARK                            x       y       z     vdW  Elec       q    Type
REMARK                         _______ _______ _______ _____ _____    ______ ____
ROOT
ATOM      1  C   UNL     1     -11.020  13.840  66.915  0.00  0.00    +0.013 A 
ATOM      2  C   UNL     1     -11.873  13.652  65.830  0.00  0.00    +0.044 A 
ATOM      3  C   UNL     1     -11.793  14.547  64.769  0.00  0.00    +0.234 A 
ATOM      4  O   UNL     1     -12.781  14.607  63.812  0.00  0.00    -0.283 OA
ATOM      5  C   UNL     1     -10.970  15.657  64.885  0.00  0.00    +0.234 A 
ATOM      6  O   UNL     1     -11.239  16.862  64.265  0.00  0.00    -0.283 OA
ATOM      7  C   UNL     1      -9.866  15.540  65.711  0.00  0.00    +0.045 A 
ATOM      8  C   UNL     1      -9.841  14.507  66.612  0.00  0.00    +0.002 A 
ENDROOT
BRANCH   1   9
ATOM      9  C   UNL     1     -10.734  12.401  67.682  0.00  0.00    +0.192 C 
ATOM     10  O   UNL     1     -12.021  11.770  67.081  0.00  0.00    -0.217 OA
BRANCH   9  11
ATOM     11  C   UNL     1      -9.782  11.878  66.394  0.00  0.00    +0.126 C 
BRANCH  11  12
ATOM     12  N   UNL     1     -10.065  10.499  66.248  0.00  0.00    -0.216 NA
BRANCH  12  14
ATOM     13  C   UNL     1      -8.384   9.694  64.795  0.00  0.00    +0.019 C 
ATOM     14  C   UNL     1      -9.863   9.913  64.968  0.00  0.00    +0.073 C 
ATOM     15  C   UNL     1     -10.334  10.922  63.925  0.00  0.00    +0.019 C 
ENDBRANCH  12  14
ENDBRANCH  11  12
ENDBRANCH   9  11
ENDBRANCH   1   9
TORSDOF 4
ENDMDL
MODEL 7
REMARK VINA RESULT:      -5.3      3.868      5.646
REMARK  Name = 
REMARK  4 active torsions:
REMARK  status: ('A' for Active; 'I' for Inactive)
REMARK    1  A    between atoms: C_2  and  N_4
REMARK    2  A    between atoms: N_4  and  C_5
REMARK    3  A    between atoms: C_5  and  C_6
REMARK    4  A    between atoms: C_6  and  C_8
REMARK                            x       y       z     vdW  Elec       q    Type
REMARK                         _______ _______ _______ _____ _____    ______ ____
ROOT
ATOM      1  C   UNL     1     -11.291  13.712  65.986  0.00  0.00    +0.013 A 
ATOM      2  C   UNL     1     -11.739  14.536  64.957  0.00  0.00    +0.044 A 
ATOM      3  C   UNL     1     -11.063  15.730  64.729  0.00  0.00    +0.234 A 
ATOM      4  O   UNL     1     -11.610  16.719  63.944  0.00  0.00    -0.283 OA
ATOM      5  C   UNL     1     -10.062  16.114  65.609  0.00  0.00    +0.234 A 
ATOM      6  O   UNL     1      -9.767  17.436  65.882  0.00  0.00    -0.283 OA
ATOM      7  C   UNL     1      -9.382  15.106  66.269  0.00  0.00    +0.045 A 
ATOM      8  C   UNL     1      -9.946  13.857  66.296  0.00  0.00    +0.002 A 
ENDROOT
BRANCH   1   9
ATOM      9  C   UNL     1     -11.684  12.134  65.676  0.00  0.00    +0.192 C 
ATOM     10  O   UNL     1     -12.942  12.556  64.867  0.00  0.00    -0.217 OA
BRANCH   9  11
ATOM     11  C   UNL     1     -10.705  12.136  64.305  0.00  0.00    +0.126 C 
BRANCH  11  12
ATOM     12  N   UNL     1     -10.708  10.801  63.834  0.00  0.00    -0.216 NA
BRANCH  12  14
ATOM     13  C   UNL     1      -8.552  10.349  64.689  0.00  0.00    +0.019 C 
ATOM     14  C   UNL     1      -9.457  10.215  63.494  0.00  0.00    +0.073 C 
ATOM     15  C   UNL     1      -8.872  11.026  62.343  0.00  0.00    +0.019 C 
ENDBRANCH  12  14
ENDBRANCH  11  12
ENDBRANCH   9  11
ENDBRANCH   1   9
TORSDOF 4
ENDMDL
MODEL 8
REMARK VINA RESULT:      -5.3      1.896      2.442
REMARK  Name = 
REMARK  4 active torsions:
REMARK  status: ('A' for Active; 'I' for Inactive)
REMARK    1  A    between atoms: C_2  and  N_4
REMARK    2  A    between atoms: N_4  and  C_5
REMARK    3  A    between atoms: C_5  and  C_6
REMARK    4  A    between atoms: C_6  and  C_8
REMARK                            x       y       z     vdW  Elec       q    Type
REMARK                         _______ _______ _______ _____ _____    ______ ____
ROOT
ATOM      1  C   UNL     1     -11.274  16.082  68.518  0.00  0.00    +0.013 A 
ATOM      2  C   UNL     1     -10.995  15.564  67.255  0.00  0.00    +0.044 A 
ATOM      3  C   UNL     1     -10.445  16.415  66.303  0.00  0.00    +0.234 A 
ATOM      4  O   UNL     1     -10.415  16.068  64.971  0.00  0.00    -0.283 OA
ATOM      5  C   UNL     1     -10.320  17.764  66.598  0.00  0.00    +0.234 A 
ATOM      6  O   UNL     1     -10.398  18.755  65.639  0.00  0.00    -0.283 OA
ATOM      7  C   UNL     1     -10.167  18.106  67.930  0.00  0.00    +0.045 A 
ATOM      8  C   UNL     1     -10.495  17.172  68.878  0.00  0.00    +0.002 A 
ENDROOT
BRANCH   1   9
ATOM      9  C   UNL     1     -11.224  14.884  69.659  0.00  0.00    +0.192 C 
ATOM     10  O   UNL     1      -9.728  15.173  69.966  0.00  0.00    -0.217 OA
BRANCH   9  11
ATOM     11  C   UNL     1     -11.756  15.961  70.843  0.00  0.00    +0.126 C 
BRANCH  11  12
ATOM     12  N   UNL     1     -13.143  15.714  70.983  0.00  0.00    -0.216 NA
BRANCH  12  14
ATOM     13  C   UNL     1     -12.642  15.916  73.284  0.00  0.00    +0.019 C 
ATOM     14  C   UNL     1     -13.629  15.386  72.279  0.00  0.00    +0.073 C 
ATOM     15  C   UNL     1     -13.664  13.864  72.382  0.00  0.00    +0.019 C 
ENDBRANCH  12  14
ENDBRANCH  11  12
ENDBRANCH   9  11
ENDBRANCH   1   9
TORSDOF 4
ENDMDL
MODEL 9
REMARK VINA RESULT:      -5.3      2.999      4.349
REMARK  Name = 
REMARK  4 active torsions:
REMARK  status: ('A' for Active; 'I' for Inactive)
REMARK    1  A    between atoms: C_2  and  N_4
REMARK    2  A    between atoms: N_4  and  C_5
REMARK    3  A    between atoms: C_5  and  C_6
REMARK    4  A    between atoms: C_6  and  C_8
REMARK                            x       y       z     vdW  Elec       q    Type
REMARK                         _______ _______ _______ _____ _____    ______ ____
ROOT
ATOM      1  C   UNL     1     -10.873  15.137  66.538  0.00  0.00    +0.013 A 
ATOM      2  C   UNL     1     -10.983  13.881  67.131  0.00  0.00    +0.044 A 
ATOM      3  C   UNL     1     -11.602  12.866  66.411  0.00  0.00    +0.234 A 
ATOM      4  O   UNL     1     -12.008  11.703  67.025  0.00  0.00    -0.283 OA
ATOM      5  C   UNL     1     -12.199  13.170  65.196  0.00  0.00    +0.234 A 
ATOM      6  O   UNL     1     -13.305  12.500  64.712  0.00  0.00    -0.283 OA
ATOM      7  C   UNL     1     -11.673  14.234  64.485  0.00  0.00    +0.045 A 
ATOM      8  C   UNL     1     -10.864  15.119  65.150  0.00  0.00    +0.002 A 
ENDROOT
BRANCH   1   9
ATOM      9  C   UNL     1      -9.571  15.955  67.152  0.00  0.00    +0.192 C 
ATOM     10  O   UNL     1      -9.319  16.669  65.795  0.00  0.00    -0.217 OA
BRANCH   9  11
ATOM     11  C   UNL     1     -10.580  17.188  67.703  0.00  0.00    +0.126 C 
BRANCH  11  12
ATOM     12  N   UNL     1      -9.779  17.974  68.567  0.00  0.00    -0.216 NA
BRANCH  12  14
ATOM     13  C   UNL     1     -10.564  19.662  67.111  0.00  0.00    +0.019 C 
ATOM     14  C   UNL     1      -9.689  19.368  68.300  0.00  0.00    +0.073 C 
ATOM     15  C   UNL     1      -8.240  19.668  67.928  0.00  0.00    +0.019 C 
ENDBRANCH  12  14
ENDBRANCH  11  12
ENDBRANCH   9  11
ENDBRANCH   1   9
TORSDOF 4
ENDMDL
