MODEL 1
REMARK VINA RESULT:      -7.1      0.000      0.000
REMARK  Name = 
REMARK  3 active torsions:
REMARK  status: ('A' for Active; 'I' for Inactive)
REMARK    1  A    between atoms: C_2  and  C_3
REMARK    2  A    between atoms: C_25  and  C_26
REMARK    3  A    between atoms: C_26  and  N_27
REMARK                            x       y       z     vdW  Elec       q    Type
REMARK                         _______ _______ _______ _____ _____    ______ ____
ROOT
ATOM      1  C   UNL     1     -11.599  14.267  65.952  0.00  0.00    +0.233 C 
ATOM      2  C   UNL     1     -11.258  12.829  65.730  0.00  0.00    +0.021 A 
ATOM      3  C   UNL     1     -10.859  12.024  66.789  0.00  0.00    +0.017 A 
ATOM      4  C   UNL     1     -10.192  10.854  66.468  0.00  0.00    +0.080 A 
ATOM      5  C   UNL     1      -9.898   9.660  67.271  0.00  0.00    +0.095 A 
ATOM      6  C   UNL     1      -9.232   8.790  66.435  0.00  0.00    +0.020 A 
ATOM      7  C   UNL     1      -9.368   7.410  66.522  0.00  0.00    +0.000 A 
ATOM      8  C   UNL     1      -9.956   6.909  67.672  0.00  0.00    +0.018 A 
ATOM      9  C   UNL     1      -9.850   5.548  67.926  0.00  0.00    +0.034 A 
ATOM     10  C   UNL     1     -10.198   5.062  69.177  0.00  0.00    +0.193 A 
ATOM     11  O   UNL     1      -9.470   4.049  69.808  0.00  0.00    -0.287 OA
ATOM     12  C   UNL     1     -10.916   5.913  70.005  0.00  0.00    +0.043 A 
ATOM     13  C   UNL     1     -11.169   7.234  69.665  0.00  0.00    +0.022 A 
ATOM     14  C   UNL     1     -10.483   7.794  68.597  0.00  0.00    +0.081 A 
ATOM     15  C   UNL     1      -8.812   9.583  65.239  0.00  0.00    +0.137 C 
ATOM     16  N   UNL     1     -10.425   9.131  68.401  0.00  0.00    -0.244 NA
ATOM     17  N   UNL     1      -9.832  10.606  65.184  0.00  0.00    -0.290 N 
ATOM     18  C   UNL     1     -10.402  11.266  64.148  0.00  0.00    +0.260 A 
ATOM     19  O   UNL     1     -10.473  10.716  63.008  0.00  0.00    -0.267 OA
ATOM     20  C   UNL     1     -11.192  12.375  64.419  0.00  0.00    +0.076 A 
ATOM     21  C   UNL     1     -12.258  12.839  63.483  0.00  0.00    +0.240 C 
ATOM     22  O   UNL     1     -12.404  14.244  63.639  0.00  0.00    -0.441 OA
ATOM     23  C   UNL     1     -11.728  14.944  64.642  0.00  0.00    +0.349 C 
ATOM     24  O   UNL     1     -11.149  16.043  64.386  0.00  0.00    -0.247 OA
ATOM     25  O   UNL     1     -12.766  14.366  66.720  0.00  0.00    -0.210 OA
ENDROOT
BRANCH   1  27
ATOM     26  C   UNL     1     -10.917  15.605  67.891  0.00  0.00    +0.004 C 
ATOM     27  C   UNL     1     -10.491  14.984  66.714  0.00  0.00    +0.046 C 
ENDBRANCH   1  27
BRANCH   9  28
ATOM     28  C   UNL     1      -8.911   4.750  67.081  0.00  0.00    +0.102 C 
BRANCH  28  29
ATOM     29  N   UNL     1      -9.576   3.678  66.385  0.00  0.00    -0.266 NA
ATOM     30  C   UNL     1      -9.761   3.942  64.981  0.00  0.00    +0.090 C 
ATOM     31  C   UNL     1      -9.003   2.381  66.648  0.00  0.00    +0.090 C 
ENDBRANCH  28  29
ENDBRANCH   9  28
TORSDOF 3
ENDMDL
MODEL 2
REMARK VINA RESULT:      -7.0      4.285      9.180
REMARK  Name = 
REMARK  3 active torsions:
REMARK  status: ('A' for Active; 'I' for Inactive)
REMARK    1  A    between atoms: C_2  and  C_3
REMARK    2  A    between atoms: C_25  and  C_26
REMARK    3  A    between atoms: C_26  and  N_27
REMARK                            x       y       z     vdW  Elec       q    Type
REMARK                         _______ _______ _______ _____ _____    ______ ____
ROOT
ATOM      1  C   UNL     1     -12.298   8.139  72.040  0.00  0.00    +0.233 C 
ATOM      2  C   UNL     1     -11.338   9.076  71.383  0.00  0.00    +0.021 A 
ATOM      3  C   UNL     1     -11.796  10.116  70.586  0.00  0.00    +0.017 A 
ATOM      4  C   UNL     1     -10.885  10.683  69.711  0.00  0.00    +0.080 A 
ATOM      5  C   UNL     1     -10.924  11.945  68.961  0.00  0.00    +0.095 A 
ATOM      6  C   UNL     1      -9.735  12.014  68.266  0.00  0.00    +0.020 A 
ATOM      7  C   UNL     1      -9.082  13.214  68.014  0.00  0.00    +0.000 A 
ATOM      8  C   UNL     1      -9.806  14.377  68.212  0.00  0.00    +0.018 A 
ATOM      9  C   UNL     1      -9.296  15.565  67.703  0.00  0.00    +0.034 A 
ATOM     10  C   UNL     1     -10.107  16.688  67.658  0.00  0.00    +0.193 A 
ATOM     11  O   UNL     1     -10.085  17.578  66.580  0.00  0.00    -0.287 OA
ATOM     12  C   UNL     1     -11.281  16.646  68.399  0.00  0.00    +0.043 A 
ATOM     13  C   UNL     1     -11.700  15.497  69.053  0.00  0.00    +0.022 A 
ATOM     14  C   UNL     1     -11.074  14.294  68.761  0.00  0.00    +0.081 A 
ATOM     15  C   UNL     1      -9.131  10.647  68.314  0.00  0.00    +0.137 C 
ATOM     16  N   UNL     1     -11.616  13.101  69.097  0.00  0.00    -0.244 NA
ATOM     17  N   UNL     1      -9.656  10.131  69.557  0.00  0.00    -0.290 N 
ATOM     18  C   UNL     1      -9.144   9.274  70.472  0.00  0.00    +0.260 A 
ATOM     19  O   UNL     1      -7.888   9.177  70.618  0.00  0.00    -0.267 OA
ATOM     20  C   UNL     1      -9.984   8.773  71.458  0.00  0.00    +0.076 A 
ATOM     21  C   UNL     1      -9.467   8.286  72.770  0.00  0.00    +0.240 C 
ATOM     22  O   UNL     1     -10.349   7.279  73.248  0.00  0.00    -0.441 OA
ATOM     23  C   UNL     1     -11.551   6.989  72.598  0.00  0.00    +0.349 C 
ATOM     24  O   UNL     1     -11.901   5.787  72.391  0.00  0.00    -0.247 OA
ATOM     25  O   UNL     1     -13.033   8.820  73.018  0.00  0.00    -0.210 OA
ENDROOT
BRANCH   1  27
ATOM     26  C   UNL     1     -14.627   7.659  71.440  0.00  0.00    +0.004 C 
ATOM     27  C   UNL     1     -13.293   7.575  71.034  0.00  0.00    +0.046 C 
ENDBRANCH   1  27
BRANCH   9  28
ATOM     28  C   UNL     1      -8.131  15.484  66.772  0.00  0.00    +0.102 C 
BRANCH  28  29
ATOM     29  N   UNL     1      -7.005  16.254  67.234  0.00  0.00    -0.266 NA
ATOM     30  C   UNL     1      -5.937  15.440  67.757  0.00  0.00    +0.090 C 
ATOM     31  C   UNL     1      -6.554  17.238  66.281  0.00  0.00    +0.090 C 
ENDBRANCH  28  29
ENDBRANCH   9  28
TORSDOF 3
ENDMDL
MODEL 3
REMARK VINA RESULT:      -6.9      2.660      4.641
REMARK  Name = 
REMARK  3 active torsions:
REMARK  status: ('A' for Active; 'I' for Inactive)
REMARK    1  A    between atoms: C_2  and  C_3
REMARK    2  A    between atoms: C_25  and  C_26
REMARK    3  A    between atoms: C_26  and  N_27
REMARK                            x       y       z     vdW  Elec       q    Type
REMARK                         _______ _______ _______ _____ _____    ______ ____
ROOT
ATOM      1  C   UNL     1     -11.432  13.198  64.894  0.00  0.00    +0.233 C 
ATOM      2  C   UNL     1     -11.168  12.709  66.281  0.00  0.00    +0.021 A 
ATOM      3  C   UNL     1     -11.083  11.349  66.549  0.00  0.00    +0.017 A 
ATOM      4  C   UNL     1     -11.235  10.961  67.870  0.00  0.00    +0.080 A 
ATOM      5  C   UNL     1     -10.920   9.695  68.544  0.00  0.00    +0.095 A 
ATOM      6  C   UNL     1     -11.251   9.876  69.871  0.00  0.00    +0.020 A 
ATOM      7  C   UNL     1     -10.546   9.279  70.908  0.00  0.00    +0.000 A 
ATOM      8  C   UNL     1      -9.686   8.248  70.572  0.00  0.00    +0.018 A 
ATOM      9  C   UNL     1      -9.190   7.444  71.591  0.00  0.00    +0.034 A 
ATOM     10  C   UNL     1      -8.542   6.262  71.269  0.00  0.00    +0.193 A 
ATOM     11  O   UNL     1      -8.713   5.093  72.017  0.00  0.00    -0.287 OA
ATOM     12  C   UNL     1      -8.158   6.096  69.945  0.00  0.00    +0.043 A 
ATOM     13  C   UNL     1      -8.513   7.000  68.954  0.00  0.00    +0.022 A 
ATOM     14  C   UNL     1      -9.479   7.955  69.234  0.00  0.00    +0.081 A 
ATOM     15  C   UNL     1     -12.086  11.114  69.938  0.00  0.00    +0.137 C 
ATOM     16  N   UNL     1     -10.106   8.651  68.259  0.00  0.00    -0.244 NA
ATOM     17  N   UNL     1     -11.593  11.870  68.809  0.00  0.00    -0.290 N 
ATOM     18  C   UNL     1     -11.462  13.201  68.595  0.00  0.00    +0.260 A 
ATOM     19  O   UNL     1     -11.291  13.987  69.575  0.00  0.00    -0.267 OA
ATOM     20  C   UNL     1     -11.179  13.643  67.310  0.00  0.00    +0.076 A 
ATOM     21  C   UNL     1     -10.507  14.950  67.050  0.00  0.00    +0.240 C 
ATOM     22  O   UNL     1     -10.940  15.427  65.782  0.00  0.00    -0.441 OA
ATOM     23  C   UNL     1     -11.735  14.646  64.939  0.00  0.00    +0.349 C 
ATOM     24  O   UNL     1     -12.741  15.148  64.351  0.00  0.00    -0.247 OA
ATOM     25  O   UNL     1     -10.337  12.908  64.071  0.00  0.00    -0.210 OA
ENDROOT
BRANCH   1  27
ATOM     26  C   UNL     1     -12.376  11.774  63.135  0.00  0.00    +0.004 C 
ATOM     27  C   UNL     1     -12.650  12.509  64.291  0.00  0.00    +0.046 C 
ENDBRANCH   1  27
BRANCH   9  28
ATOM     28  C   UNL     1      -9.798   7.583  72.948  0.00  0.00    +0.102 C 
BRANCH  28  29
ATOM     29  N   UNL     1      -8.902   7.162  73.996  0.00  0.00    -0.266 NA
ATOM     30  C   UNL     1      -8.032   8.215  74.454  0.00  0.00    +0.090 C 
ATOM     31  C   UNL     1      -9.564   6.464  75.070  0.00  0.00    +0.090 C 
ENDBRANCH  28  29
ENDBRANCH   9  28
TORSDOF 3
ENDMDL
MODEL 4
REMARK VINA RESULT:      -6.8      2.160      8.981
REMARK  Name = 
REMARK  3 active torsions:
REMARK  status: ('A' for Active; 'I' for Inactive)
REMARK    1  A    between atoms: C_2  and  C_3
REMARK    2  A    between atoms: C_25  and  C_26
REMARK    3  A    between atoms: C_26  and  N_27
REMARK                            x       y       z     vdW  Elec       q    Type
REMARK                         _______ _______ _______ _____ _____    ______ ____
ROOT
ATOM      1  C   UNL     1     -10.009   6.087  67.294  0.00  0.00    +0.233 C 
ATOM      2  C   UNL     1     -10.007   7.546  67.614  0.00  0.00    +0.021 A 
ATOM      3  C   UNL     1     -10.010   8.494  66.599  0.00  0.00    +0.017 A 
ATOM      4  C   UNL     1      -9.614   9.777  66.940  0.00  0.00    +0.080 A 
ATOM      5  C   UNL     1      -9.771  11.055  66.233  0.00  0.00    +0.095 A 
ATOM      6  C   UNL     1      -9.211  12.015  67.049  0.00  0.00    +0.020 A 
ATOM      7  C   UNL     1      -9.703  13.311  67.129  0.00  0.00    +0.000 A 
ATOM      8  C   UNL     1     -10.585  13.711  66.140  0.00  0.00    +0.018 A 
ATOM      9  C   UNL     1     -10.870  15.065  66.019  0.00  0.00    +0.034 A 
ATOM     10  C   UNL     1     -11.537  15.521  64.893  0.00  0.00    +0.193 A 
ATOM     11  O   UNL     1     -11.207  16.729  64.271  0.00  0.00    -0.287 OA
ATOM     12  C   UNL     1     -12.149  14.564  64.095  0.00  0.00    +0.043 A 
ATOM     13  C   UNL     1     -12.001  13.204  64.326  0.00  0.00    +0.022 A 
ATOM     14  C   UNL     1     -11.023  12.779  65.214  0.00  0.00    +0.081 A 
ATOM     15  C   UNL     1      -8.408  11.286  68.078  0.00  0.00    +0.137 C 
ATOM     16  N   UNL     1     -10.598  11.495  65.256  0.00  0.00    -0.244 NA
ATOM     17  N   UNL     1      -9.113  10.028  68.175  0.00  0.00    -0.290 N 
ATOM     18  C   UNL     1      -9.313   9.176  69.208  0.00  0.00    +0.260 A 
ATOM     19  O   UNL     1      -9.323   9.614  70.398  0.00  0.00    -0.267 OA
ATOM     20  C   UNL     1      -9.833   7.917  68.941  0.00  0.00    +0.076 A 
ATOM     21  C   UNL     1     -10.572   7.129  69.971  0.00  0.00    +0.240 C 
ATOM     22  O   UNL     1     -10.386   5.747  69.689  0.00  0.00    -0.441 OA
ATOM     23  C   UNL     1      -9.738   5.317  68.528  0.00  0.00    +0.349 C 
ATOM     24  O   UNL     1      -8.866   4.397  68.578  0.00  0.00    -0.247 OA
ATOM     25  O   UNL     1     -11.227   5.731  66.702  0.00  0.00    -0.210 OA
ENDROOT
BRANCH   1  27
ATOM     26  C   UNL     1      -9.313   4.905  65.261  0.00  0.00    +0.004 C 
ATOM     27  C   UNL     1      -8.904   5.739  66.304  0.00  0.00    +0.046 C 
ENDBRANCH   1  27
BRANCH   9  28
ATOM     28  C   UNL     1     -10.031  16.028  66.795  0.00  0.00    +0.102 C 
BRANCH  28  29
ATOM     29  N   UNL     1     -10.820  16.875  67.652  0.00  0.00    -0.266 NA
ATOM     30  C   UNL     1     -10.868  16.414  69.016  0.00  0.00    +0.090 C 
ATOM     31  C   UNL     1     -10.490  18.274  67.537  0.00  0.00    +0.090 C 
ENDBRANCH  28  29
ENDBRANCH   9  28
TORSDOF 3
ENDMDL
MODEL 5
REMARK VINA RESULT:      -6.6      5.310      8.806
REMARK  Name = 
REMARK  3 active torsions:
REMARK  status: ('A' for Active; 'I' for Inactive)
REMARK    1  A    between atoms: C_2  and  C_3
REMARK    2  A    between atoms: C_25  and  C_26
REMARK    3  A    between atoms: C_26  and  N_27
REMARK                            x       y       z     vdW  Elec       q    Type
REMARK                         _______ _______ _______ _____ _____    ______ ____
ROOT
ATOM      1  C   UNL     1      -5.124  19.246  65.409  0.00  0.00    +0.233 C 
ATOM      2  C   UNL     1      -6.143  18.686  66.348  0.00  0.00    +0.021 A 
ATOM      3  C   UNL     1      -6.937  17.611  65.973  0.00  0.00    +0.017 A 
ATOM      4  C   UNL     1      -8.096  17.404  66.703  0.00  0.00    +0.080 A 
ATOM      5  C   UNL     1      -8.988  16.240  66.786  0.00  0.00    +0.095 A 
ATOM      6  C   UNL     1      -9.974  16.577  67.689  0.00  0.00    +0.020 A 
ATOM      7  C   UNL     1     -10.564  15.649  68.537  0.00  0.00    +0.000 A 
ATOM      8  C   UNL     1     -10.358  14.312  68.246  0.00  0.00    +0.018 A 
ATOM      9  C   UNL     1     -11.154  13.368  68.883  0.00  0.00    +0.034 A 
ATOM     10  C   UNL     1     -11.151  12.059  68.429  0.00  0.00    +0.193 A 
ATOM     11  O   UNL     1     -12.317  11.289  68.372  0.00  0.00    -0.287 OA
ATOM     12  C   UNL     1     -10.130  11.697  67.561  0.00  0.00    +0.043 A 
ATOM     13  C   UNL     1      -9.225  12.621  67.059  0.00  0.00    +0.022 A 
ATOM     14  C   UNL     1      -9.489  13.973  67.223  0.00  0.00    +0.081 A 
ATOM     15  C   UNL     1      -9.884  18.057  67.888  0.00  0.00    +0.137 C 
ATOM     16  N   UNL     1      -8.848  14.923  66.504  0.00  0.00    -0.244 NA
ATOM     17  N   UNL     1      -8.484  18.309  67.635  0.00  0.00    -0.290 N 
ATOM     18  C   UNL     1      -7.618  19.218  68.143  0.00  0.00    +0.260 A 
ATOM     19  O   UNL     1      -7.796  19.679  69.311  0.00  0.00    -0.267 OA
ATOM     20  C   UNL     1      -6.383  19.378  67.529  0.00  0.00    +0.076 A 
ATOM     21  C   UNL     1      -5.196  19.911  68.259  0.00  0.00    +0.240 C 
ATOM     22  O   UNL     1      -4.358  20.572  67.320  0.00  0.00    -0.441 OA
ATOM     23  C   UNL     1      -4.619  20.528  65.948  0.00  0.00    +0.349 C 
ATOM     24  O   UNL     1      -4.545  21.580  65.242  0.00  0.00    -0.247 OA
ATOM     25  O   UNL     1      -4.100  18.312  65.207  0.00  0.00    -0.210 OA
ENDROOT
BRANCH   1  27
ATOM     26  C   UNL     1      -5.060  18.968  62.973  0.00  0.00    +0.004 C 
ATOM     27  C   UNL     1      -5.738  19.549  64.047  0.00  0.00    +0.046 C 
ENDBRANCH   1  27
BRANCH   9  28
ATOM     28  C   UNL     1     -12.336  13.858  69.654  0.00  0.00    +0.102 C 
BRANCH  28  29
ATOM     29  N   UNL     1     -12.171  13.693  71.076  0.00  0.00    -0.266 NA
ATOM     30  C   UNL     1     -12.098  14.944  71.786  0.00  0.00    +0.090 C 
ATOM     31  C   UNL     1     -13.105  12.762  71.658  0.00  0.00    +0.090 C 
ENDBRANCH  28  29
ENDBRANCH   9  28
TORSDOF 3
ENDMDL
MODEL 6
REMARK VINA RESULT:      -6.6      1.666      2.135
REMARK  Name = 
REMARK  3 active torsions:
REMARK  status: ('A' for Active; 'I' for Inactive)
REMARK    1  A    between atoms: C_2  and  C_3
REMARK    2  A    between atoms: C_25  and  C_26
REMARK    3  A    between atoms: C_26  and  N_27
REMARK                            x       y       z     vdW  Elec       q    Type
REMARK                         _______ _______ _______ _____ _____    ______ ____
ROOT
ATOM      1  C   UNL     1     -11.303  14.430  66.559  0.00  0.00    +0.233 C 
ATOM      2  C   UNL     1     -11.014  12.973  66.716  0.00  0.00    +0.021 A 
ATOM      3  C   UNL     1     -10.724  12.437  67.964  0.00  0.00    +0.017 A 
ATOM      4  C   UNL     1     -10.091  11.206  67.985  0.00  0.00    +0.080 A 
ATOM      5  C   UNL     1      -9.907  10.235  69.072  0.00  0.00    +0.095 A 
ATOM      6  C   UNL     1      -9.225   9.170  68.522  0.00  0.00    +0.020 A 
ATOM      7  C   UNL     1      -9.430   7.857  68.927  0.00  0.00    +0.000 A 
ATOM      8  C   UNL     1     -10.117   7.666  70.114  0.00  0.00    +0.018 A 
ATOM      9  C   UNL     1     -10.091   6.405  70.695  0.00  0.00    +0.034 A 
ATOM     10  C   UNL     1     -10.544   6.246  71.995  0.00  0.00    +0.193 A 
ATOM     11  O   UNL     1      -9.909   5.397  72.905  0.00  0.00    -0.287 OA
ATOM     12  C   UNL     1     -11.278   7.293  72.537  0.00  0.00    +0.043 A 
ATOM     13  C   UNL     1     -11.447   8.498  71.872  0.00  0.00    +0.022 A 
ATOM     14  C   UNL     1     -10.665   8.764  70.757  0.00  0.00    +0.081 A 
ATOM     15  C   UNL     1      -8.690   9.638  67.206  0.00  0.00    +0.137 C 
ATOM     16  N   UNL     1     -10.533  10.011  70.251  0.00  0.00    -0.244 NA
ATOM     17  N   UNL     1      -9.656  10.645  66.830  0.00  0.00    -0.290 N 
ATOM     18  C   UNL     1     -10.123  11.049  65.625  0.00  0.00    +0.260 A 
ATOM     19  O   UNL     1     -10.141  10.242  64.648  0.00  0.00    -0.267 OA
ATOM     20  C   UNL     1     -10.879  12.212  65.561  0.00  0.00    +0.076 A 
ATOM     21  C   UNL     1     -11.856  12.464  64.462  0.00  0.00    +0.240 C 
ATOM     22  O   UNL     1     -11.949  13.870  64.265  0.00  0.00    -0.441 OA
ATOM     23  C   UNL     1     -11.312  14.773  65.120  0.00  0.00    +0.349 C 
ATOM     24  O   UNL     1     -10.667  15.760  64.652  0.00  0.00    -0.247 OA
ATOM     25  O   UNL     1     -12.514  14.744  67.189  0.00  0.00    -0.210 OA
ENDROOT
BRANCH   1  27
ATOM     26  C   UNL     1     -10.696  16.193  68.152  0.00  0.00    +0.004 C 
ATOM     27  C   UNL     1     -10.218  15.279  67.210  0.00  0.00    +0.046 C 
ENDBRANCH   1  27
BRANCH   9  28
ATOM     28  C   UNL     1      -9.134   5.400  70.141  0.00  0.00    +0.102 C 
BRANCH  28  29
ATOM     29  N   UNL     1      -9.805   4.264  69.563  0.00  0.00    -0.266 NA
ATOM     30  C   UNL     1      -9.746   4.243  68.123  0.00  0.00    +0.090 C 
ATOM     31  C   UNL     1      -9.431   3.009  70.165  0.00  0.00    +0.090 C 
ENDBRANCH  28  29
ENDBRANCH   9  28
TORSDOF 3
ENDMDL
MODEL 7
REMARK VINA RESULT:      -6.4      6.345     11.009
REMARK  Name = 
REMARK  3 active torsions:
REMARK  status: ('A' for Active; 'I' for Inactive)
REMARK    1  A    between atoms: C_2  and  C_3
REMARK    2  A    between atoms: C_25  and  C_26
REMARK    3  A    between atoms: C_26  and  N_27
REMARK                            x       y       z     vdW  Elec       q    Type
REMARK                         _______ _______ _______ _____ _____    ______ ____
ROOT
ATOM      1  C   UNL     1     -12.136  14.932  71.341  0.00  0.00    +0.233 C 
ATOM      2  C   UNL     1     -11.355  15.411  70.161  0.00  0.00    +0.021 A 
ATOM      3  C   UNL     1     -10.814  16.689  70.140  0.00  0.00    +0.017 A 
ATOM      4  C   UNL     1     -10.462  17.200  68.902  0.00  0.00    +0.080 A 
ATOM      5  C   UNL     1      -9.620  18.346  68.536  0.00  0.00    +0.095 A 
ATOM      6  C   UNL     1      -9.592  18.376  67.157  0.00  0.00    +0.020 A 
ATOM      7  C   UNL     1      -8.479  18.792  66.438  0.00  0.00    +0.000 A 
ATOM      8  C   UNL     1      -7.496  19.470  67.138  0.00  0.00    +0.018 A 
ATOM      9  C   UNL     1      -6.520  20.147  66.417  0.00  0.00    +0.034 A 
ATOM     10  C   UNL     1      -5.685  21.037  67.073  0.00  0.00    +0.193 A 
ATOM     11  O   UNL     1      -5.293  22.250  66.499  0.00  0.00    -0.287 OA
ATOM     12  C   UNL     1      -5.668  20.976  68.460  0.00  0.00    +0.043 A 
ATOM     13  C   UNL     1      -6.534  20.163  69.175  0.00  0.00    +0.022 A 
ATOM     14  C   UNL     1      -7.609  19.585  68.514  0.00  0.00    +0.081 A 
ATOM     15  C   UNL     1     -10.687  17.473  66.688  0.00  0.00    +0.137 C 
ATOM     16  N   UNL     1      -8.661  19.055  69.177  0.00  0.00    -0.244 NA
ATOM     17  N   UNL     1     -10.777  16.521  67.771  0.00  0.00    -0.290 N 
ATOM     18  C   UNL     1     -11.097  15.206  67.800  0.00  0.00    +0.260 A 
ATOM     19  O   UNL     1     -10.881  14.478  66.784  0.00  0.00    -0.267 OA
ATOM     20  C   UNL     1     -11.334  14.605  69.029  0.00  0.00    +0.076 A 
ATOM     21  C   UNL     1     -11.166  13.137  69.241  0.00  0.00    +0.240 C 
ATOM     22  O   UNL     1     -12.063  12.732  70.268  0.00  0.00    -0.441 OA
ATOM     23  C   UNL     1     -12.811  13.661  70.995  0.00  0.00    +0.349 C 
ATOM     24  O   UNL     1     -14.043  13.462  71.224  0.00  0.00    -0.247 OA
ATOM     25  O   UNL     1     -11.289  14.800  72.449  0.00  0.00    -0.210 OA
ENDROOT
BRANCH   1  27
ATOM     26  C   UNL     1     -13.543  15.938  73.080  0.00  0.00    +0.004 C 
ATOM     27  C   UNL     1     -13.227  15.925  71.719  0.00  0.00    +0.046 C 
ENDBRANCH   1  27
BRANCH   9  28
ATOM     28  C   UNL     1      -6.724  20.305  64.945  0.00  0.00    +0.102 C 
BRANCH  28  29
ATOM     29  N   UNL     1      -5.567  19.906  64.185  0.00  0.00    -0.266 NA
ATOM     30  C   UNL     1      -5.137  18.561  64.474  0.00  0.00    +0.090 C 
ATOM     31  C   UNL     1      -5.688  20.173  62.774  0.00  0.00    +0.090 C 
ENDBRANCH  28  29
ENDBRANCH   9  28
TORSDOF 3
ENDMDL
MODEL 8
REMARK VINA RESULT:      -6.3      5.208      8.418
REMARK  Name = 
REMARK  3 active torsions:
REMARK  status: ('A' for Active; 'I' for Inactive)
REMARK    1  A    between atoms: C_2  and  C_3
REMARK    2  A    between atoms: C_25  and  C_26
REMARK    3  A    between atoms: C_26  and  N_27
REMARK                            x       y       z     vdW  Elec       q    Type
REMARK                         _______ _______ _______ _____ _____    ______ ____
ROOT
ATOM      1  C   UNL     1      -5.429  20.375  66.437  0.00  0.00    +0.233 C 
ATOM      2  C   UNL     1      -5.851  18.943  66.376  0.00  0.00    +0.021 A 
ATOM      3  C   UNL     1      -7.196  18.599  66.382  0.00  0.00    +0.017 A 
ATOM      4  C   UNL     1      -7.507  17.293  66.720  0.00  0.00    +0.080 A 
ATOM      5  C   UNL     1      -8.745  16.520  66.548  0.00  0.00    +0.095 A 
ATOM      6  C   UNL     1      -8.481  15.260  67.041  0.00  0.00    +0.020 A 
ATOM      7  C   UNL     1      -9.044  14.110  66.503  0.00  0.00    +0.000 A 
ATOM      8  C   UNL     1     -10.120  14.279  65.648  0.00  0.00    +0.018 A 
ATOM      9  C   UNL     1     -10.884  13.165  65.322  0.00  0.00    +0.034 A 
ATOM     10  C   UNL     1     -12.103  13.339  64.686  0.00  0.00    +0.193 A 
ATOM     11  O   UNL     1     -13.223  12.564  65.000  0.00  0.00    -0.287 OA
ATOM     12  C   UNL     1     -12.353  14.591  64.140  0.00  0.00    +0.043 A 
ATOM     13  C   UNL     1     -11.493  15.663  64.325  0.00  0.00    +0.022 A 
ATOM     14  C   UNL     1     -10.491  15.561  65.280  0.00  0.00    +0.081 A 
ATOM     15  C   UNL     1      -7.213  15.365  67.827  0.00  0.00    +0.137 C 
ATOM     16  N   UNL     1      -9.829  16.644  65.746  0.00  0.00    -0.244 NA
ATOM     17  N   UNL     1      -6.537  16.455  67.161  0.00  0.00    -0.290 N 
ATOM     18  C   UNL     1      -5.225  16.715  66.949  0.00  0.00    +0.260 A 
ATOM     19  O   UNL     1      -4.393  15.761  66.876  0.00  0.00    -0.267 OA
ATOM     20  C   UNL     1      -4.862  17.972  66.483  0.00  0.00    +0.076 A 
ATOM     21  C   UNL     1      -3.595  18.205  65.731  0.00  0.00    +0.240 C 
ATOM     22  O   UNL     1      -3.173  19.540  65.975  0.00  0.00    -0.441 OA
ATOM     23  C   UNL     1      -3.971  20.442  66.684  0.00  0.00    +0.349 C 
ATOM     24  O   UNL     1      -3.468  21.182  67.584  0.00  0.00    -0.247 OA
ATOM     25  O   UNL     1      -5.800  21.030  65.256  0.00  0.00    -0.210 OA
ENDROOT
BRANCH   1  27
ATOM     26  C   UNL     1      -6.071  20.405  68.804  0.00  0.00    +0.004 C 
ATOM     27  C   UNL     1      -6.108  21.099  67.593  0.00  0.00    +0.046 C 
ENDBRANCH   1  27
BRANCH   9  28
ATOM     28  C   UNL     1     -10.651  11.908  66.096  0.00  0.00    +0.102 C 
BRANCH  28  29
ATOM     29  N   UNL     1     -10.393  10.778  65.240  0.00  0.00    -0.266 NA
ATOM     30  C   UNL     1      -9.431  11.059  64.205  0.00  0.00    +0.090 C 
ATOM     31  C   UNL     1     -10.109   9.564  65.964  0.00  0.00    +0.090 C 
ENDBRANCH  28  29
ENDBRANCH   9  28
TORSDOF 3
ENDMDL
MODEL 9
REMARK VINA RESULT:      -6.3      1.314      1.532
REMARK  Name = 
REMARK  3 active torsions:
REMARK  status: ('A' for Active; 'I' for Inactive)
REMARK    1  A    between atoms: C_2  and  C_3
REMARK    2  A    between atoms: C_25  and  C_26
REMARK    3  A    between atoms: C_26  and  N_27
REMARK                            x       y       z     vdW  Elec       q    Type
REMARK                         _______ _______ _______ _____ _____    ______ ____
ROOT
ATOM      1  C   UNL     1     -10.624  15.191  67.139  0.00  0.00    +0.233 C 
ATOM      2  C   UNL     1     -10.461  13.726  66.891  0.00  0.00    +0.021 A 
ATOM      3  C   UNL     1     -10.227  12.851  67.943  0.00  0.00    +0.017 A 
ATOM      4  C   UNL     1      -9.702  11.611  67.620  0.00  0.00    +0.080 A 
ATOM      5  C   UNL     1      -9.610  10.370  68.401  0.00  0.00    +0.095 A 
ATOM      6  C   UNL     1      -9.018   9.440  67.573  0.00  0.00    +0.020 A 
ATOM      7  C   UNL     1      -9.337   8.089  67.611  0.00  0.00    +0.000 A 
ATOM      8  C   UNL     1     -10.046   7.642  68.714  0.00  0.00    +0.018 A 
ATOM      9  C   UNL     1     -10.132   6.273  68.932  0.00  0.00    +0.034 A 
ATOM     10  C   UNL     1     -10.607   5.808  70.148  0.00  0.00    +0.193 A 
ATOM     11  O   UNL     1     -10.052   4.693  70.784  0.00  0.00    -0.287 OA
ATOM     12  C   UNL     1     -11.252   6.726  70.964  0.00  0.00    +0.043 A 
ATOM     13  C   UNL     1     -11.313   8.077  70.652  0.00  0.00    +0.022 A 
ATOM     14  C   UNL     1     -10.502   8.567  69.638  0.00  0.00    +0.081 A 
ATOM     15  C   UNL     1      -8.435  10.200  66.424  0.00  0.00    +0.137 C 
ATOM     16  N   UNL     1     -10.260   9.889  69.486  0.00  0.00    -0.244 NA
ATOM     17  N   UNL     1      -9.309  11.348  66.349  0.00  0.00    -0.290 N 
ATOM     18  C   UNL     1      -9.731  12.102  65.307  0.00  0.00    +0.260 A 
ATOM     19  O   UNL     1      -9.811  11.593  64.148  0.00  0.00    -0.267 OA
ATOM     20  C   UNL     1     -10.384  13.298  65.571  0.00  0.00    +0.076 A 
ATOM     21  C   UNL     1     -11.328  13.920  64.597  0.00  0.00    +0.240 C 
ATOM     22  O   UNL     1     -11.299  15.329  64.789  0.00  0.00    -0.441 OA
ATOM     23  C   UNL     1     -10.593  15.910  65.845  0.00  0.00    +0.349 C 
ATOM     24  O   UNL     1      -9.863  16.929  65.652  0.00  0.00    -0.247 OA
ATOM     25  O   UNL     1     -11.808  15.424  67.849  0.00  0.00    -0.210 OA
ENDROOT
BRANCH   1  27
ATOM     26  C   UNL     1      -9.880  16.407  69.134  0.00  0.00    +0.004 C 
ATOM     27  C   UNL     1      -9.475  15.738  67.977  0.00  0.00    +0.046 C 
ENDBRANCH   1  27
BRANCH   9  28
ATOM     28  C   UNL     1      -9.261   5.379  68.111  0.00  0.00    +0.102 C 
BRANCH  28  29
ATOM     29  N   UNL     1     -10.013   4.365  67.418  0.00  0.00    -0.266 NA
ATOM     30  C   UNL     1     -10.470   4.786  66.118  0.00  0.00    +0.090 C 
ATOM     31  C   UNL     1      -9.363   3.078  67.402  0.00  0.00    +0.090 C 
ENDBRANCH  28  29
ENDBRANCH   9  28
TORSDOF 3
ENDMDL
