MODEL 1
REMARK VINA RESULT:      -7.1      0.000      0.000
REMARK  Name = 
REMARK  8 active torsions:
REMARK  status: ('A' for Active; 'I' for Inactive)
REMARK    1  A    between atoms: C_2  and  N_3
REMARK    2  A    between atoms: C_2  and  C_16
REMARK    3  A    between atoms: N_3  and  C_4
REMARK    4  A    between atoms: C_4  and  C_5
REMARK    5  A    between atoms: C_4  and  C_13
REMARK    6  A    between atoms: C_5  and  C_6
REMARK    7  A    between atoms: C_6  and  C_7
REMARK    8  A    between atoms: CA_22  and  C_23
REMARK                            x       y       z     vdW  Elec       q    Type
REMARK                         _______ _______ _______ _____ _____    ______ ____
ROOT
ATOM      1  N   UNL     1      -9.253  15.641  67.773  0.00  0.00    -0.200 NA
ENDROOT
BRANCH   1   3
ATOM      2  CB  UNL     1      -7.706  13.965  67.331  0.00  0.00    +0.029 C 
ATOM      3  CA  UNL     1      -9.003  14.641  66.580  0.00  0.00    +0.149 C 
BRANCH   3   4
ATOM      4  C   UNL     1     -10.005  13.511  67.146  0.00  0.00    +0.242 C 
ATOM      5  N   UNL     1     -10.758  12.822  66.129  0.00  0.00    -0.270 N 
ATOM      6  CA  UNL     1     -10.876  13.448  64.691  0.00  0.00    +0.179 C 
ATOM      7  CB  UNL     1     -10.233  12.178  63.879  0.00  0.00    +0.033 C 
ATOM      8  CG  UNL     1      -9.990  11.132  64.823  0.00  0.00    +0.024 C 
ATOM      9  CD  UNL     1     -10.745  11.423  66.033  0.00  0.00    +0.094 C 
ATOM     10  O   UNL     1      -9.593  12.818  68.105  0.00  0.00    -0.273 OA
BRANCH   6  11
ATOM     11  C   UNL     1     -12.389  12.945  64.452  0.00  0.00    +0.382 C 
ATOM     12  OXT UNL     1     -12.736  12.288  63.339  0.00  0.00    -0.244 OA
ATOM     13  O   UNL     1     -13.232  13.551  65.177  0.00  0.00    -0.244 OA
ENDBRANCH   6  11
ENDBRANCH   3   4
ENDBRANCH   1   3
BRANCH   1  14
ATOM     14  CA  UNL     1     -10.699  16.094  67.330  0.00  0.00    +0.176 C 
BRANCH  14  15
ATOM     15  C   UNL     1     -10.278  17.621  67.049  0.00  0.00    +0.380 C 
ATOM     16  OXT UNL     1     -10.736  18.624  67.820  0.00  0.00    -0.244 OA
ATOM     17  O   UNL     1      -9.935  17.799  65.849  0.00  0.00    -0.244 OA
ENDBRANCH  14  15
BRANCH  14  18
ATOM     18  C   UNL     1     -11.142  16.438  68.877  0.00  0.00    +0.034 C 
BRANCH  18  19
ATOM     19  C   UNL     1     -12.155  15.341  69.188  0.00  0.00    +0.028 C 
BRANCH  19  20
ATOM     20  C   UNL     1     -12.558  15.395  70.607  0.00  0.00    -0.022 A 
ATOM     21  C   UNL     1     -13.763  14.964  71.094  0.00  0.00    -0.004 A 
ATOM     22  C   UNL     1     -14.185  15.357  72.358  0.00  0.00    -0.000 A 
ATOM     23  C   UNL     1     -13.322  15.943  73.253  0.00  0.00    -0.000 A 
ATOM     24  C   UNL     1     -12.032  16.189  72.831  0.00  0.00    -0.000 A 
ATOM     25  C   UNL     1     -11.703  16.010  71.506  0.00  0.00    -0.004 A 
ENDBRANCH  19  20
ENDBRANCH  18  19
ENDBRANCH  14  18
ENDBRANCH   1  14
TORSDOF 8
ENDMDL
MODEL 2
REMARK VINA RESULT:      -7.0      3.255      4.427
REMARK  Name = 
REMARK  8 active torsions:
REMARK  status: ('A' for Active; 'I' for Inactive)
REMARK    1  A    between atoms: C_2  and  N_3
REMARK    2  A    between atoms: C_2  and  C_16
REMARK    3  A    between atoms: N_3  and  C_4
REMARK    4  A    between atoms: C_4  and  C_5
REMARK    5  A    between atoms: C_4  and  C_13
REMARK    6  A    between atoms: C_5  and  C_6
REMARK    7  A    between atoms: C_6  and  C_7
REMARK    8  A    between atoms: CA_22  and  C_23
REMARK                            x       y       z     vdW  Elec       q    Type
REMARK                         _______ _______ _______ _____ _____    ______ ____
ROOT
ATOM      1  N   UNL     1     -11.497  15.742  70.340  0.00  0.00    -0.200 NA
ENDROOT
BRANCH   1   3
ATOM      2  CB  UNL     1     -10.571  17.030  68.643  0.00  0.00    +0.029 C 
ATOM      3  CA  UNL     1     -11.705  15.850  68.781  0.00  0.00    +0.149 C 
BRANCH   3   4
ATOM      4  C   UNL     1     -10.641  14.691  68.428  0.00  0.00    +0.242 C 
ATOM      5  N   UNL     1     -10.842  14.073  67.141  0.00  0.00    -0.270 N 
ATOM      6  CA  UNL     1     -12.221  14.243  66.404  0.00  0.00    +0.179 C 
ATOM      7  CB  UNL     1     -11.622  14.922  65.039  0.00  0.00    +0.033 C 
ATOM      8  CG  UNL     1     -10.196  14.931  65.141  0.00  0.00    +0.024 C 
ATOM      9  CD  UNL     1      -9.808  14.005  66.196  0.00  0.00    +0.094 C 
ATOM     10  O   UNL     1      -9.454  14.886  68.777  0.00  0.00    -0.273 OA
BRANCH   6  11
ATOM     11  C   UNL     1     -12.214  12.760  65.771  0.00  0.00    +0.382 C 
ATOM     12  OXT UNL     1     -12.741  12.517  64.564  0.00  0.00    -0.244 OA
ATOM     13  O   UNL     1     -12.047  11.853  66.638  0.00  0.00    -0.244 OA
ENDBRANCH   6  11
ENDBRANCH   3   4
ENDBRANCH   1   3
BRANCH   1  14
ATOM     14  CA  UNL     1     -12.861  15.013  70.657  0.00  0.00    +0.176 C 
BRANCH  14  15
ATOM     15  C   UNL     1     -13.074  15.743  72.074  0.00  0.00    +0.380 C 
ATOM     16  OXT UNL     1     -14.306  16.039  72.527  0.00  0.00    -0.244 OA
ATOM     17  O   UNL     1     -12.054  16.400  72.420  0.00  0.00    -0.244 OA
ENDBRANCH  14  15
BRANCH  14  18
ATOM     18  C   UNL     1     -12.096  13.737  71.361  0.00  0.00    +0.034 C 
BRANCH  18  19
ATOM     19  C   UNL     1     -13.229  12.736  71.564  0.00  0.00    +0.028 C 
BRANCH  19  20
ATOM     20  C   UNL     1     -12.778  11.370  71.237  0.00  0.00    -0.022 A 
ATOM     21  C   UNL     1     -13.170  10.238  71.901  0.00  0.00    -0.004 A 
ATOM     22  C   UNL     1     -12.451   9.058  71.752  0.00  0.00    -0.000 A 
ATOM     23  C   UNL     1     -11.517   8.908  70.755  0.00  0.00    -0.000 A 
ATOM     24  C   UNL     1     -11.269   9.993  69.940  0.00  0.00    -0.000 A 
ATOM     25  C   UNL     1     -11.817  11.217  70.251  0.00  0.00    -0.004 A 
ENDBRANCH  19  20
ENDBRANCH  18  19
ENDBRANCH  14  18
ENDBRANCH   1  14
TORSDOF 8
ENDMDL
MODEL 3
REMARK VINA RESULT:      -6.6      1.863      4.772
REMARK  Name = 
REMARK  8 active torsions:
REMARK  status: ('A' for Active; 'I' for Inactive)
REMARK    1  A    between atoms: C_2  and  N_3
REMARK    2  A    between atoms: C_2  and  C_16
REMARK    3  A    between atoms: N_3  and  C_4
REMARK    4  A    between atoms: C_4  and  C_5
REMARK    5  A    between atoms: C_4  and  C_13
REMARK    6  A    between atoms: C_5  and  C_6
REMARK    7  A    between atoms: C_6  and  C_7
REMARK    8  A    between atoms: CA_22  and  C_23
REMARK                            x       y       z     vdW  Elec       q    Type
REMARK                         _______ _______ _______ _____ _____    ______ ____
ROOT
ATOM      1  N   UNL     1      -9.844  13.592  67.100  0.00  0.00    -0.200 NA
ENDROOT
BRANCH   1   3
ATOM      2  CB  UNL     1      -7.917  13.545  68.396  0.00  0.00    +0.029 C 
ATOM      3  CA  UNL     1      -9.182  14.564  68.149  0.00  0.00    +0.149 C 
BRANCH   3   4
ATOM      4  C   UNL     1      -8.371  15.414  67.045  0.00  0.00    +0.242 C 
ATOM      5  N   UNL     1      -8.767  16.797  66.951  0.00  0.00    -0.270 N 
ATOM      6  CA  UNL     1     -10.139  17.255  67.567  0.00  0.00    +0.179 C 
ATOM      7  CB  UNL     1      -9.521  18.381  68.586  0.00  0.00    +0.033 C 
ATOM      8  CG  UNL     1      -8.114  18.462  68.350  0.00  0.00    +0.024 C 
ATOM      9  CD  UNL     1      -7.829  17.833  67.067  0.00  0.00    +0.094 C 
ATOM     10  O   UNL     1      -7.147  15.172  66.930  0.00  0.00    -0.273 OA
BRANCH   6  11
ATOM     11  C   UNL     1     -10.443  18.342  66.415  0.00  0.00    +0.382 C 
ATOM     12  OXT UNL     1     -10.835  19.586  66.718  0.00  0.00    -0.244 OA
ATOM     13  O   UNL     1     -10.656  17.816  65.283  0.00  0.00    -0.244 OA
ENDBRANCH   6  11
ENDBRANCH   3   4
ENDBRANCH   1   3
BRANCH   1  14
ATOM     14  CA  UNL     1     -10.406  12.550  68.145  0.00  0.00    +0.176 C 
BRANCH  14  15
ATOM     15  C   UNL     1     -11.350  11.795  67.084  0.00  0.00    +0.380 C 
ATOM     16  OXT UNL     1     -12.181  12.482  66.278  0.00  0.00    -0.244 OA
ATOM     17  O   UNL     1     -11.576  10.602  67.424  0.00  0.00    -0.244 OA
ENDBRANCH  14  15
BRANCH  14  18
ATOM     18  C   UNL     1     -11.623  13.558  68.602  0.00  0.00    +0.034 C 
BRANCH  18  19
ATOM     19  C   UNL     1     -12.031  12.999  69.961  0.00  0.00    +0.028 C 
BRANCH  19  20
ATOM     20  C   UNL     1     -12.333  14.094  70.902  0.00  0.00    -0.022 A 
ATOM     21  C   UNL     1     -11.765  15.339  70.862  0.00  0.00    -0.004 A 
ATOM     22  C   UNL     1     -11.848  16.180  71.965  0.00  0.00    -0.000 A 
ATOM     23  C   UNL     1     -12.709  15.919  73.003  0.00  0.00    -0.000 A 
ATOM     24  C   UNL     1     -13.448  14.755  72.946  0.00  0.00    -0.000 A 
ATOM     25  C   UNL     1     -13.179  13.826  71.966  0.00  0.00    -0.004 A 
ENDBRANCH  19  20
ENDBRANCH  18  19
ENDBRANCH  14  18
ENDBRANCH   1  14
TORSDOF 8
ENDMDL
MODEL 4
REMARK VINA RESULT:      -6.4      4.012      6.950
REMARK  Name = 
REMARK  8 active torsions:
REMARK  status: ('A' for Active; 'I' for Inactive)
REMARK    1  A    between atoms: C_2  and  N_3
REMARK    2  A    between atoms: C_2  and  C_16
REMARK    3  A    between atoms: N_3  and  C_4
REMARK    4  A    between atoms: C_4  and  C_5
REMARK    5  A    between atoms: C_4  and  C_13
REMARK    6  A    between atoms: C_5  and  C_6
REMARK    7  A    between atoms: C_6  and  C_7
REMARK    8  A    between atoms: CA_22  and  C_23
REMARK                            x       y       z     vdW  Elec       q    Type
REMARK                         _______ _______ _______ _____ _____    ______ ____
ROOT
ATOM      1  N   UNL     1      -9.176  18.159  67.644  0.00  0.00    -0.200 NA
ENDROOT
BRANCH   1   3
ATOM      2  CB  UNL     1      -6.990  17.952  66.886  0.00  0.00    +0.029 C 
ATOM      3  CA  UNL     1      -7.770  17.977  68.332  0.00  0.00    +0.149 C 
BRANCH   3   4
ATOM      4  C   UNL     1      -7.512  19.558  68.521  0.00  0.00    +0.242 C 
ATOM      5  N   UNL     1      -6.352  19.879  69.313  0.00  0.00    -0.270 N 
ATOM      6  CA  UNL     1      -5.707  18.777  70.229  0.00  0.00    +0.179 C 
ATOM      7  CB  UNL     1      -4.213  18.824  69.558  0.00  0.00    +0.033 C 
ATOM      8  CG  UNL     1      -4.202  19.869  68.583  0.00  0.00    +0.024 C 
ATOM      9  CD  UNL     1      -5.350  20.732  68.826  0.00  0.00    +0.094 C 
ATOM     10  O   UNL     1      -7.736  20.290  67.530  0.00  0.00    -0.273 OA
BRANCH   6  11
ATOM     11  C   UNL     1      -5.303  19.804  71.405  0.00  0.00    +0.382 C 
ATOM     12  OXT UNL     1      -4.175  19.647  72.109  0.00  0.00    -0.244 OA
ATOM     13  O   UNL     1      -6.286  20.477  71.834  0.00  0.00    -0.244 OA
ENDBRANCH   6  11
ENDBRANCH   3   4
ENDBRANCH   1   3
BRANCH   1  14
ATOM     14  CA  UNL     1      -9.468  16.625  67.416  0.00  0.00    +0.176 C 
BRANCH  14  15
ATOM     15  C   UNL     1     -10.255  16.846  66.030  0.00  0.00    +0.380 C 
ATOM     16  OXT UNL     1     -10.265  15.897  65.076  0.00  0.00    -0.244 OA
ATOM     17  O   UNL     1     -10.399  18.070  65.764  0.00  0.00    -0.244 OA
ENDBRANCH  14  15
BRANCH  14  18
ATOM     18  C   UNL     1     -10.862  16.688  68.287  0.00  0.00    +0.034 C 
BRANCH  18  19
ATOM     19  C   UNL     1     -11.049  15.241  68.730  0.00  0.00    +0.028 C 
BRANCH  19  20
ATOM     20  C   UNL     1     -11.725  15.182  70.039  0.00  0.00    -0.022 A 
ATOM     21  C   UNL     1     -11.655  16.155  71.000  0.00  0.00    -0.004 A 
ATOM     22  C   UNL     1     -12.033  15.873  72.307  0.00  0.00    -0.000 A 
ATOM     23  C   UNL     1     -12.731  14.732  72.622  0.00  0.00    -0.000 A 
ATOM     24  C   UNL     1     -12.991  13.838  71.604  0.00  0.00    -0.000 A 
ATOM     25  C   UNL     1     -12.406  14.022  70.372  0.00  0.00    -0.004 A 
ENDBRANCH  19  20
ENDBRANCH  18  19
ENDBRANCH  14  18
ENDBRANCH   1  14
TORSDOF 8
ENDMDL
MODEL 5
REMARK VINA RESULT:      -6.4      2.352      5.358
REMARK  Name = 
REMARK  8 active torsions:
REMARK  status: ('A' for Active; 'I' for Inactive)
REMARK    1  A    between atoms: C_2  and  N_3
REMARK    2  A    between atoms: C_2  and  C_16
REMARK    3  A    between atoms: N_3  and  C_4
REMARK    4  A    between atoms: C_4  and  C_5
REMARK    5  A    between atoms: C_4  and  C_13
REMARK    6  A    between atoms: C_5  and  C_6
REMARK    7  A    between atoms: C_6  and  C_7
REMARK    8  A    between atoms: CA_22  and  C_23
REMARK                            x       y       z     vdW  Elec       q    Type
REMARK                         _______ _______ _______ _____ _____    ______ ____
ROOT
ATOM      1  N   UNL     1     -11.116  15.182  67.424  0.00  0.00    -0.200 NA
ENDROOT
BRANCH   1   3
ATOM      2  CB  UNL     1     -10.587  16.658  65.709  0.00  0.00    +0.029 C 
ATOM      3  CA  UNL     1      -9.785  15.824  66.876  0.00  0.00    +0.149 C 
BRANCH   3   4
ATOM      4  C   UNL     1      -9.818  17.078  67.890  0.00  0.00    +0.242 C 
ATOM      5  N   UNL     1      -8.636  17.903  67.852  0.00  0.00    -0.270 N 
ATOM      6  CA  UNL     1      -7.319  17.344  67.202  0.00  0.00    +0.179 C 
ATOM      7  CB  UNL     1      -7.148  18.523  66.078  0.00  0.00    +0.033 C 
ATOM      8  CG  UNL     1      -8.176  19.492  66.298  0.00  0.00    +0.024 C 
ATOM      9  CD  UNL     1      -8.720  19.285  67.633  0.00  0.00    +0.094 C 
ATOM     10  O   UNL     1     -10.913  17.671  68.021  0.00  0.00    -0.273 OA
BRANCH   6  11
ATOM     11  C   UNL     1      -6.335  18.080  68.247  0.00  0.00    +0.382 C 
ATOM     12  OXT UNL     1      -5.230  18.712  67.834  0.00  0.00    -0.244 OA
ATOM     13  O   UNL     1      -6.484  17.675  69.437  0.00  0.00    -0.244 OA
ENDBRANCH   6  11
ENDBRANCH   3   4
ENDBRANCH   1   3
BRANCH   1  14
ATOM     14  CA  UNL     1     -10.607  13.688  67.436  0.00  0.00    +0.176 C 
BRANCH  14  15
ATOM     15  C   UNL     1     -11.772  13.146  66.467  0.00  0.00    +0.380 C 
ATOM     16  OXT UNL     1     -12.646  13.989  65.888  0.00  0.00    -0.244 OA
ATOM     17  O   UNL     1     -12.059  11.942  66.708  0.00  0.00    -0.244 OA
ENDBRANCH  14  15
BRANCH  14  18
ATOM     18  C   UNL     1     -11.478  13.328  68.784  0.00  0.00    +0.034 C 
BRANCH  18  19
ATOM     19  C   UNL     1     -12.042  14.684  69.193  0.00  0.00    +0.028 C 
BRANCH  19  20
ATOM     20  C   UNL     1     -12.255  14.738  70.652  0.00  0.00    -0.022 A 
ATOM     21  C   UNL     1     -12.897  13.776  71.385  0.00  0.00    -0.004 A 
ATOM     22  C   UNL     1     -13.346  14.060  72.669  0.00  0.00    -0.000 A 
ATOM     23  C   UNL     1     -12.935  15.186  73.340  0.00  0.00    -0.000 A 
ATOM     24  C   UNL     1     -12.107  16.064  72.671  0.00  0.00    -0.000 A 
ATOM     25  C   UNL     1     -11.867  15.884  71.328  0.00  0.00    -0.004 A 
ENDBRANCH  19  20
ENDBRANCH  18  19
ENDBRANCH  14  18
ENDBRANCH   1  14
TORSDOF 8
ENDMDL
MODEL 6
REMARK VINA RESULT:      -6.2      3.121      5.010
REMARK  Name = 
REMARK  8 active torsions:
REMARK  status: ('A' for Active; 'I' for Inactive)
REMARK    1  A    between atoms: C_2  and  N_3
REMARK    2  A    between atoms: C_2  and  C_16
REMARK    3  A    between atoms: N_3  and  C_4
REMARK    4  A    between atoms: C_4  and  C_5
REMARK    5  A    between atoms: C_4  and  C_13
REMARK    6  A    between atoms: C_5  and  C_6
REMARK    7  A    between atoms: C_6  and  C_7
REMARK    8  A    between atoms: CA_22  and  C_23
REMARK                            x       y       z     vdW  Elec       q    Type
REMARK                         _______ _______ _______ _____ _____    ______ ____
ROOT
ATOM      1  N   UNL     1      -7.302  15.812  68.201  0.00  0.00    -0.200 NA
ENDROOT
BRANCH   1   3
ATOM      2  CB  UNL     1      -8.317  13.726  68.066  0.00  0.00    +0.029 C 
ATOM      3  CA  UNL     1      -8.118  15.038  67.096  0.00  0.00    +0.149 C 
BRANCH   3   4
ATOM      4  C   UNL     1      -9.542  15.659  67.529  0.00  0.00    +0.242 C 
ATOM      5  N   UNL     1     -10.631  15.315  66.649  0.00  0.00    -0.270 N 
ATOM      6  CA  UNL     1     -10.323  14.764  65.209  0.00  0.00    +0.179 C 
ATOM      7  CB  UNL     1     -11.125  13.345  65.375  0.00  0.00    +0.033 C 
ATOM      8  CG  UNL     1     -11.769  13.350  66.651  0.00  0.00    +0.024 C 
ATOM      9  CD  UNL     1     -11.804  14.722  67.139  0.00  0.00    +0.094 C 
ATOM     10  O   UNL     1      -9.799  15.688  68.754  0.00  0.00    -0.273 OA
BRANCH   6  11
ATOM     11  C   UNL     1     -11.584  15.494  64.518  0.00  0.00    +0.382 C 
ATOM     12  OXT UNL     1     -12.541  14.791  63.898  0.00  0.00    -0.244 OA
ATOM     13  O   UNL     1     -11.377  16.720  64.281  0.00  0.00    -0.244 OA
ENDBRANCH   6  11
ENDBRANCH   3   4
ENDBRANCH   1   3
BRANCH   1  14
ATOM     14  CA  UNL     1      -6.208  16.411  67.233  0.00  0.00    +0.176 C 
BRANCH  14  15
ATOM     15  C   UNL     1      -4.991  15.585  67.885  0.00  0.00    +0.380 C 
ATOM     16  OXT UNL     1      -4.564  14.429  67.345  0.00  0.00    -0.244 OA
ATOM     17  O   UNL     1      -4.852  15.846  69.111  0.00  0.00    -0.244 OA
ENDBRANCH  14  15
BRANCH  14  18
ATOM     18  C   UNL     1      -5.940  17.701  68.219  0.00  0.00    +0.034 C 
BRANCH  18  19
ATOM     19  C   UNL     1      -6.289  18.885  67.324  0.00  0.00    +0.028 C 
BRANCH  19  20
ATOM     20  C   UNL     1      -7.724  19.209  67.427  0.00  0.00    -0.022 A 
ATOM     21  C   UNL     1      -8.424  19.296  68.601  0.00  0.00    -0.004 A 
ATOM     22  C   UNL     1      -9.813  19.268  68.589  0.00  0.00    -0.000 A 
ATOM     23  C   UNL     1     -10.524  19.428  67.424  0.00  0.00    -0.000 A 
ATOM     24  C   UNL     1      -9.811  19.555  66.250  0.00  0.00    -0.000 A 
ATOM     25  C   UNL     1      -8.450  19.343  66.255  0.00  0.00    -0.004 A 
ENDBRANCH  19  20
ENDBRANCH  18  19
ENDBRANCH  14  18
ENDBRANCH   1  14
TORSDOF 8
ENDMDL
MODEL 7
REMARK VINA RESULT:      -6.2      4.082      7.958
REMARK  Name = 
REMARK  8 active torsions:
REMARK  status: ('A' for Active; 'I' for Inactive)
REMARK    1  A    between atoms: C_2  and  N_3
REMARK    2  A    between atoms: C_2  and  C_16
REMARK    3  A    between atoms: N_3  and  C_4
REMARK    4  A    between atoms: C_4  and  C_5
REMARK    5  A    between atoms: C_4  and  C_13
REMARK    6  A    between atoms: C_5  and  C_6
REMARK    7  A    between atoms: C_6  and  C_7
REMARK    8  A    between atoms: CA_22  and  C_23
REMARK                            x       y       z     vdW  Elec       q    Type
REMARK                         _______ _______ _______ _____ _____    ______ ____
ROOT
ATOM      1  N   UNL     1      -9.053  17.981  68.123  0.00  0.00    -0.200 NA
ENDROOT
BRANCH   1   3
ATOM      2  CB  UNL     1      -7.240  18.171  66.682  0.00  0.00    +0.029 C 
ATOM      3  CA  UNL     1      -7.486  17.979  68.296  0.00  0.00    +0.149 C 
BRANCH   3   4
ATOM      4  C   UNL     1      -7.383  19.565  68.569  0.00  0.00    +0.242 C 
ATOM      5  N   UNL     1      -6.262  19.954  69.387  0.00  0.00    -0.270 N 
ATOM      6  CA  UNL     1      -5.517  18.872  70.250  0.00  0.00    +0.179 C 
ATOM      7  CB  UNL     1      -4.032  19.099  69.595  0.00  0.00    +0.033 C 
ATOM      8  CG  UNL     1      -4.119  20.191  68.677  0.00  0.00    +0.024 C 
ATOM      9  CD  UNL     1      -5.346  20.924  68.954  0.00  0.00    +0.094 C 
ATOM     10  O   UNL     1      -7.673  20.324  67.616  0.00  0.00    -0.273 OA
BRANCH   6  11
ATOM     11  C   UNL     1      -5.219  19.870  71.482  0.00  0.00    +0.382 C 
ATOM     12  OXT UNL     1      -4.096  19.768  72.204  0.00  0.00    -0.244 OA
ATOM     13  O   UNL     1      -6.260  20.441  71.919  0.00  0.00    -0.244 OA
ENDBRANCH   6  11
ENDBRANCH   3   4
ENDBRANCH   1   3
BRANCH   1  14
ATOM     14  CA  UNL     1      -9.079  17.338  66.682  0.00  0.00    +0.176 C 
BRANCH  14  15
ATOM     15  C   UNL     1     -10.510  17.956  66.288  0.00  0.00    +0.380 C 
ATOM     16  OXT UNL     1     -10.929  17.986  65.009  0.00  0.00    -0.244 OA
ATOM     17  O   UNL     1     -10.914  18.787  67.147  0.00  0.00    -0.244 OA
ENDBRANCH  14  15
BRANCH  14  18
ATOM     18  C   UNL     1      -9.765  15.949  67.237  0.00  0.00    +0.034 C 
BRANCH  18  19
ATOM     19  C   UNL     1      -9.305  14.915  66.215  0.00  0.00    +0.028 C 
BRANCH  19  20
ATOM     20  C   UNL     1     -10.465  14.252  65.589  0.00  0.00    -0.022 A 
ATOM     21  C   UNL     1     -11.762  14.387  66.008  0.00  0.00    -0.004 A 
ATOM     22  C   UNL     1     -12.728  13.481  65.587  0.00  0.00    -0.000 A 
ATOM     23  C   UNL     1     -12.492  12.610  64.551  0.00  0.00    -0.000 A 
ATOM     24  C   UNL     1     -11.237  12.619  63.979  0.00  0.00    -0.000 A 
ATOM     25  C   UNL     1     -10.229  13.352  64.563  0.00  0.00    -0.004 A 
ENDBRANCH  19  20
ENDBRANCH  18  19
ENDBRANCH  14  18
ENDBRANCH   1  14
TORSDOF 8
ENDMDL
MODEL 8
REMARK VINA RESULT:      -6.1      2.844      5.543
REMARK  Name = 
REMARK  8 active torsions:
REMARK  status: ('A' for Active; 'I' for Inactive)
REMARK    1  A    between atoms: C_2  and  N_3
REMARK    2  A    between atoms: C_2  and  C_16
REMARK    3  A    between atoms: N_3  and  C_4
REMARK    4  A    between atoms: C_4  and  C_5
REMARK    5  A    between atoms: C_4  and  C_13
REMARK    6  A    between atoms: C_5  and  C_6
REMARK    7  A    between atoms: C_6  and  C_7
REMARK    8  A    between atoms: CA_22  and  C_23
REMARK                            x       y       z     vdW  Elec       q    Type
REMARK                         _______ _______ _______ _____ _____    ______ ____
ROOT
ATOM      1  N   UNL     1     -10.690  17.397  67.667  0.00  0.00    -0.200 NA
ENDROOT
BRANCH   1   3
ATOM      2  CB  UNL     1     -10.553  19.691  67.326  0.00  0.00    +0.029 C 
ATOM      3  CA  UNL     1      -9.809  18.339  66.761  0.00  0.00    +0.149 C 
BRANCH   3   4
ATOM      4  C   UNL     1      -8.612  18.468  67.834  0.00  0.00    +0.242 C 
ATOM      5  N   UNL     1      -7.303  18.618  67.248  0.00  0.00    -0.270 N 
ATOM      6  CA  UNL     1      -7.081  18.244  65.737  0.00  0.00    +0.179 C 
ATOM      7  CB  UNL     1      -6.533  19.713  65.259  0.00  0.00    +0.033 C 
ATOM      8  CG  UNL     1      -6.432  20.543  66.418  0.00  0.00    +0.024 C 
ATOM      9  CD  UNL     1      -6.466  19.688  67.597  0.00  0.00    +0.094 C 
ATOM     10  O   UNL     1      -8.845  19.141  68.865  0.00  0.00    -0.273 OA
BRANCH   6  11
ATOM     11  C   UNL     1      -5.592  17.668  65.962  0.00  0.00    +0.382 C 
ATOM     12  OXT UNL     1      -4.571  18.056  65.188  0.00  0.00    -0.244 OA
ATOM     13  O   UNL     1      -5.575  16.588  66.623  0.00  0.00    -0.244 OA
ENDBRANCH   6  11
ENDBRANCH   3   4
ENDBRANCH   1   3
BRANCH   1  14
ATOM     14  CA  UNL     1      -9.821  16.093  67.474  0.00  0.00    +0.176 C 
BRANCH  14  15
ATOM     15  C   UNL     1     -10.614  15.600  66.165  0.00  0.00    +0.380 C 
ATOM     16  OXT UNL     1     -11.665  14.765  66.259  0.00  0.00    -0.244 OA
ATOM     17  O   UNL     1      -9.895  15.661  65.131  0.00  0.00    -0.244 OA
ENDBRANCH  14  15
BRANCH  14  18
ATOM     18  C   UNL     1     -10.793  15.213  68.468  0.00  0.00    +0.034 C 
BRANCH  18  19
ATOM     19  C   UNL     1     -11.013  16.157  69.646  0.00  0.00    +0.028 C 
BRANCH  19  20
ATOM     20  C   UNL     1     -11.676  15.451  70.759  0.00  0.00    -0.022 A 
ATOM     21  C   UNL     1     -12.177  14.179  70.690  0.00  0.00    -0.004 A 
ATOM     22  C   UNL     1     -13.069  13.727  71.655  0.00  0.00    -0.000 A 
ATOM     23  C   UNL     1     -13.264  14.414  72.830  0.00  0.00    -0.000 A 
ATOM     24  C   UNL     1     -12.589  15.605  72.995  0.00  0.00    -0.000 A 
ATOM     25  C   UNL     1     -11.898  16.149  71.935  0.00  0.00    -0.004 A 
ENDBRANCH  19  20
ENDBRANCH  18  19
ENDBRANCH  14  18
ENDBRANCH   1  14
TORSDOF 8
ENDMDL
MODEL 9
REMARK VINA RESULT:      -6.1      2.580      6.683
REMARK  Name = 
REMARK  8 active torsions:
REMARK  status: ('A' for Active; 'I' for Inactive)
REMARK    1  A    between atoms: C_2  and  N_3
REMARK    2  A    between atoms: C_2  and  C_16
REMARK    3  A    between atoms: N_3  and  C_4
REMARK    4  A    between atoms: C_4  and  C_5
REMARK    5  A    between atoms: C_4  and  C_13
REMARK    6  A    between atoms: C_5  and  C_6
REMARK    7  A    between atoms: C_6  and  C_7
REMARK    8  A    between atoms: CA_22  and  C_23
REMARK                            x       y       z     vdW  Elec       q    Type
REMARK                         _______ _______ _______ _____ _____    ______ ____
ROOT
ATOM      1  N   UNL     1     -10.850  15.176  66.784  0.00  0.00    -0.200 NA
ENDROOT
BRANCH   1   3
ATOM      2  CB  UNL     1     -11.173  16.323  68.778  0.00  0.00    +0.029 C 
ATOM      3  CA  UNL     1     -10.646  16.665  67.260  0.00  0.00    +0.149 C 
BRANCH   3   4
ATOM      4  C   UNL     1      -9.102  16.457  67.676  0.00  0.00    +0.242 C 
ATOM      5  N   UNL     1      -8.263  17.605  67.438  0.00  0.00    -0.270 N 
ATOM      6  CA  UNL     1      -8.759  18.742  66.472  0.00  0.00    +0.179 C 
ATOM      7  CB  UNL     1      -8.672  19.964  67.560  0.00  0.00    +0.033 C 
ATOM      8  CG  UNL     1      -8.115  19.439  68.767  0.00  0.00    +0.024 C 
ATOM      9  CD  UNL     1      -7.483  18.163  68.462  0.00  0.00    +0.094 C 
ATOM     10  O   UNL     1      -8.880  15.808  68.724  0.00  0.00    -0.273 OA
BRANCH   6  11
ATOM     11  C   UNL     1      -7.293  19.055  65.876  0.00  0.00    +0.382 C 
ATOM     12  OXT UNL     1      -6.851  20.312  65.743  0.00  0.00    -0.244 OA
ATOM     13  O   UNL     1      -6.811  18.089  65.216  0.00  0.00    -0.244 OA
ENDBRANCH   6  11
ENDBRANCH   3   4
ENDBRANCH   1   3
BRANCH   1  14
ATOM     14  CA  UNL     1     -10.231  15.359  65.343  0.00  0.00    +0.176 C 
BRANCH  14  15
ATOM     15  C   UNL     1     -11.650  15.584  64.619  0.00  0.00    +0.380 C 
ATOM     16  OXT UNL     1     -12.492  14.557  64.401  0.00  0.00    -0.244 OA
ATOM     17  O   UNL     1     -11.647  16.616  63.895  0.00  0.00    -0.244 OA
ENDBRANCH  14  15
BRANCH  14  18
ATOM     18  C   UNL     1     -10.268  13.741  65.045  0.00  0.00    +0.034 C 
BRANCH  18  19
ATOM     19  C   UNL     1     -10.009  13.140  66.422  0.00  0.00    +0.028 C 
BRANCH  19  20
ATOM     20  C   UNL     1      -9.872  11.674  66.330  0.00  0.00    -0.022 A 
ATOM     21  C   UNL     1      -9.495  10.992  65.203  0.00  0.00    -0.004 A 
ATOM     22  C   UNL     1      -9.717   9.624  65.109  0.00  0.00    -0.000 A 
ATOM     23  C   UNL     1     -10.055   8.874  66.209  0.00  0.00    -0.000 A 
ATOM     24  C   UNL     1     -10.230   9.536  67.407  0.00  0.00    -0.000 A 
ATOM     25  C   UNL     1     -10.238  10.913  67.428  0.00  0.00    -0.004 A 
ENDBRANCH  19  20
ENDBRANCH  18  19
ENDBRANCH  14  18
ENDBRANCH   1  14
TORSDOF 8
ENDMDL
