MODEL 1
REMARK VINA RESULT:      -4.9      0.000      0.000
REMARK  Name = 
REMARK  3 active torsions:
REMARK  status: ('A' for Active; 'I' for Inactive)
REMARK    1  A    between atoms: C_2  and  C_3
REMARK    2  A    between atoms: C_3  and  C_4
REMARK    3  A    between atoms: C_4  and  C_5
REMARK                            x       y       z     vdW  Elec       q    Type
REMARK                         _______ _______ _______ _____ _____    ______ ____
ROOT
ATOM      1  C   UNL     1     -11.288  13.627  65.658  0.00  0.00    +0.028 C 
ATOM      2  C   UNL     1     -12.364  13.116  64.709  0.00  0.00    +0.002 C 
ATOM      3  C   UNL     1     -11.743  12.502  63.483  0.00  0.00    +0.000 C 
ATOM      4  C   UNL     1     -10.516  11.681  63.860  0.00  0.00    +0.000 C 
ATOM      5  C   UNL     1     -10.725  11.235  65.300  0.00  0.00    +0.000 C 
ATOM      6  C   UNL     1     -10.464  12.454  66.173  0.00  0.00    +0.002 C 
ENDROOT
BRANCH   1   8
ATOM      7  N   UNL     1     -11.830  13.429  68.025  0.00  0.00    -0.131 NA
ATOM      8  C   UNL     1     -11.944  14.282  66.844  0.00  0.00    +0.110 C 
ENDBRANCH   1   8
BRANCH   1   9
ATOM      9  C   UNL     1     -10.437  14.591  64.888  0.00  0.00    +0.115 C 
BRANCH   9  10
ATOM     10  C   UNL     1     -10.893  16.008  65.041  0.00  0.00    +0.365 C 
ATOM     11  O   UNL     1     -11.622  16.516  63.960  0.00  0.00    -0.246 OA
ATOM     12  O   UNL     1     -10.022  16.798  65.516  0.00  0.00    -0.246 OA
ENDBRANCH   9  10
ENDBRANCH   1   9
TORSDOF 3
ENDMDL
MODEL 2
REMARK VINA RESULT:      -4.8      1.391      2.732
REMARK  Name = 
REMARK  3 active torsions:
REMARK  status: ('A' for Active; 'I' for Inactive)
REMARK    1  A    between atoms: C_2  and  C_3
REMARK    2  A    between atoms: C_3  and  C_4
REMARK    3  A    between atoms: C_4  and  C_5
REMARK                            x       y       z     vdW  Elec       q    Type
REMARK                         _______ _______ _______ _____ _____    ______ ____
ROOT
ATOM      1  C   UNL     1     -11.134  13.668  65.372  0.00  0.00    +0.028 C 
ATOM      2  C   UNL     1     -10.253  12.583  65.975  0.00  0.00    +0.002 C 
ATOM      3  C   UNL     1      -9.458  13.126  67.133  0.00  0.00    +0.000 C 
ATOM      4  C   UNL     1     -10.318  14.057  67.978  0.00  0.00    +0.000 C 
ATOM      5  C   UNL     1     -11.759  13.614  67.775  0.00  0.00    +0.000 C 
ATOM      6  C   UNL     1     -12.173  14.108  66.396  0.00  0.00    +0.002 C 
ENDROOT
BRANCH   1   8
ATOM      7  N   UNL     1     -13.152  12.538  64.603  0.00  0.00    -0.131 NA
ATOM      8  C   UNL     1     -11.871  13.105  64.186  0.00  0.00    +0.110 C 
ENDBRANCH   1   8
BRANCH   1   9
ATOM      9  C   UNL     1     -10.239  14.805  64.985  0.00  0.00    +0.115 C 
BRANCH   9  10
ATOM     10  C   UNL     1     -10.929  16.131  65.059  0.00  0.00    +0.365 C 
ATOM     11  O   UNL     1     -11.581  16.525  63.886  0.00  0.00    -0.246 OA
ATOM     12  O   UNL     1     -10.264  17.045  65.634  0.00  0.00    -0.246 OA
ENDBRANCH   9  10
ENDBRANCH   1   9
TORSDOF 3
ENDMDL
MODEL 3
REMARK VINA RESULT:      -4.5      2.344      3.500
REMARK  Name = 
REMARK  3 active torsions:
REMARK  status: ('A' for Active; 'I' for Inactive)
REMARK    1  A    between atoms: C_2  and  C_3
REMARK    2  A    between atoms: C_3  and  C_4
REMARK    3  A    between atoms: C_4  and  C_5
REMARK                            x       y       z     vdW  Elec       q    Type
REMARK                         _______ _______ _______ _____ _____    ______ ____
ROOT
ATOM      1  C   UNL     1     -10.901  14.289  66.130  0.00  0.00    +0.028 C 
ATOM      2  C   UNL     1     -11.004  14.803  67.560  0.00  0.00    +0.002 C 
ATOM      3  C   UNL     1     -11.914  13.925  68.377  0.00  0.00    +0.000 C 
ATOM      4  C   UNL     1     -11.680  12.458  68.042  0.00  0.00    +0.000 C 
ATOM      5  C   UNL     1     -10.245  12.355  67.545  0.00  0.00    +0.000 C 
ATOM      6  C   UNL     1     -10.237  12.918  66.130  0.00  0.00    +0.002 C 
ENDROOT
BRANCH   1   8
ATOM      7  N   UNL     1     -10.797  16.382  64.888  0.00  0.00    -0.131 NA
ATOM      8  C   UNL     1     -10.030  15.219  65.330  0.00  0.00    +0.110 C 
ENDBRANCH   1   8
BRANCH   1   9
ATOM      9  C   UNL     1     -12.294  14.217  65.581  0.00  0.00    +0.115 C 
BRANCH   9  10
ATOM     10  C   UNL     1     -12.420  13.230  64.463  0.00  0.00    +0.365 C 
ATOM     11  O   UNL     1     -12.475  13.791  63.183  0.00  0.00    -0.246 OA
ATOM     12  O   UNL     1     -13.248  12.294  64.672  0.00  0.00    -0.246 OA
ENDBRANCH   9  10
ENDBRANCH   1   9
TORSDOF 3
ENDMDL
MODEL 4
REMARK VINA RESULT:      -4.5      2.477      3.264
REMARK  Name = 
REMARK  3 active torsions:
REMARK  status: ('A' for Active; 'I' for Inactive)
REMARK    1  A    between atoms: C_2  and  C_3
REMARK    2  A    between atoms: C_3  and  C_4
REMARK    3  A    between atoms: C_4  and  C_5
REMARK                            x       y       z     vdW  Elec       q    Type
REMARK                         _______ _______ _______ _____ _____    ______ ____
ROOT
ATOM      1  C   UNL     1     -11.177  14.789  65.716  0.00  0.00    +0.028 C 
ATOM      2  C   UNL     1     -10.063  13.758  65.597  0.00  0.00    +0.002 C 
ATOM      3  C   UNL     1     -10.594  12.371  65.842  0.00  0.00    +0.000 C 
ATOM      4  C   UNL     1     -11.955  12.197  65.181  0.00  0.00    +0.000 C 
ATOM      5  C   UNL     1     -11.994  13.174  64.016  0.00  0.00    +0.000 C 
ATOM      6  C   UNL     1     -12.206  14.557  64.618  0.00  0.00    +0.002 C 
ENDROOT
BRANCH   1   8
ATOM      7  N   UNL     1     -11.222  16.819  64.368  0.00  0.00    -0.131 NA
ATOM      8  C   UNL     1     -10.601  16.166  65.520  0.00  0.00    +0.110 C 
ENDBRANCH   1   8
BRANCH   1   9
ATOM      9  C   UNL     1     -11.788  14.628  67.075  0.00  0.00    +0.115 C 
BRANCH   9  10
ATOM     10  C   UNL     1     -11.142  15.504  68.103  0.00  0.00    +0.365 C 
ATOM     11  O   UNL     1     -10.135  14.890  68.854  0.00  0.00    -0.246 OA
ATOM     12  O   UNL     1     -11.946  16.220  68.772  0.00  0.00    -0.246 OA
ENDBRANCH   9  10
ENDBRANCH   1   9
TORSDOF 3
ENDMDL
MODEL 5
REMARK VINA RESULT:      -4.5      1.907      3.497
REMARK  Name = 
REMARK  3 active torsions:
REMARK  status: ('A' for Active; 'I' for Inactive)
REMARK    1  A    between atoms: C_2  and  C_3
REMARK    2  A    between atoms: C_3  and  C_4
REMARK    3  A    between atoms: C_4  and  C_5
REMARK                            x       y       z     vdW  Elec       q    Type
REMARK                         _______ _______ _______ _____ _____    ______ ____
ROOT
ATOM      1  C   UNL     1     -10.685  13.260  66.509  0.00  0.00    +0.028 C 
ATOM      2  C   UNL     1      -9.293  13.820  66.766  0.00  0.00    +0.002 C 
ATOM      3  C   UNL     1      -9.190  15.238  66.268  0.00  0.00    +0.000 C 
ATOM      4  C   UNL     1     -10.464  16.009  66.590  0.00  0.00    +0.000 C 
ATOM      5  C   UNL     1     -11.075  15.339  67.811  0.00  0.00    +0.000 C 
ATOM      6  C   UNL     1     -11.707  14.043  67.322  0.00  0.00    +0.002 C 
ENDROOT
BRANCH   1   8
ATOM      7  N   UNL     1     -11.936  11.590  67.768  0.00  0.00    -0.131 NA
ATOM      8  C   UNL     1     -10.735  11.828  66.968  0.00  0.00    +0.110 C 
ENDBRANCH   1   8
BRANCH   1   9
ATOM      9  C   UNL     1     -10.950  13.385  65.039  0.00  0.00    +0.115 C 
BRANCH   9  10
ATOM     10  C   UNL     1     -12.399  13.604  64.734  0.00  0.00    +0.365 C 
ATOM     11  O   UNL     1     -13.148  12.437  64.549  0.00  0.00    -0.246 OA
ATOM     12  O   UNL     1     -12.631  14.527  63.896  0.00  0.00    -0.246 OA
ENDBRANCH   9  10
ENDBRANCH   1   9
TORSDOF 3
ENDMDL
MODEL 6
REMARK VINA RESULT:      -4.4      4.076      5.948
REMARK  Name = 
REMARK  3 active torsions:
REMARK  status: ('A' for Active; 'I' for Inactive)
REMARK    1  A    between atoms: C_2  and  C_3
REMARK    2  A    between atoms: C_3  and  C_4
REMARK    3  A    between atoms: C_4  and  C_5
REMARK                            x       y       z     vdW  Elec       q    Type
REMARK                         _______ _______ _______ _____ _____    ______ ____
ROOT
ATOM      1  C   UNL     1      -9.884  17.645  66.728  0.00  0.00    +0.028 C 
ATOM      2  C   UNL     1     -10.519  18.902  66.151  0.00  0.00    +0.002 C 
ATOM      3  C   UNL     1     -10.061  20.123  66.904  0.00  0.00    +0.000 C 
ATOM      4  C   UNL     1      -8.576  20.022  67.229  0.00  0.00    +0.000 C 
ATOM      5  C   UNL     1      -7.965  19.119  66.168  0.00  0.00    +0.000 C 
ATOM      6  C   UNL     1      -8.375  17.697  66.523  0.00  0.00    +0.002 C 
ENDROOT
BRANCH   1   8
ATOM      7  N   UNL     1     -10.940  16.836  64.686  0.00  0.00    -0.131 NA
ATOM      8  C   UNL     1     -10.405  16.442  65.988  0.00  0.00    +0.110 C 
ENDBRANCH   1   8
BRANCH   1   9
ATOM      9  C   UNL     1     -10.232  17.599  68.185  0.00  0.00    +0.115 C 
BRANCH   9  10
ATOM     10  C   UNL     1     -10.734  16.255  68.613  0.00  0.00    +0.365 C 
ATOM     11  O   UNL     1     -12.051  16.239  69.086  0.00  0.00    -0.246 OA
ATOM     12  O   UNL     1      -9.912  15.574  69.296  0.00  0.00    -0.246 OA
ENDBRANCH   9  10
ENDBRANCH   1   9
TORSDOF 3
ENDMDL
MODEL 7
REMARK VINA RESULT:      -4.4      3.427      5.624
REMARK  Name = 
REMARK  3 active torsions:
REMARK  status: ('A' for Active; 'I' for Inactive)
REMARK    1  A    between atoms: C_2  and  C_3
REMARK    2  A    between atoms: C_3  and  C_4
REMARK    3  A    between atoms: C_4  and  C_5
REMARK                            x       y       z     vdW  Elec       q    Type
REMARK                         _______ _______ _______ _____ _____    ______ ____
ROOT
ATOM      1  C   UNL     1     -10.004  17.505  67.429  0.00  0.00    +0.028 C 
ATOM      2  C   UNL     1      -8.770  17.719  68.295  0.00  0.00    +0.002 C 
ATOM      3  C   UNL     1      -7.800  18.650  67.616  0.00  0.00    +0.000 C 
ATOM      4  C   UNL     1      -8.544  19.794  66.940  0.00  0.00    +0.000 C 
ATOM      5  C   UNL     1      -9.848  19.968  67.703  0.00  0.00    +0.000 C 
ATOM      6  C   UNL     1     -10.755  18.821  67.278  0.00  0.00    +0.002 C 
ENDROOT
BRANCH   1   8
ATOM      7  N   UNL     1     -10.993  16.809  69.545  0.00  0.00    -0.131 NA
ATOM      8  C   UNL     1     -10.924  16.529  68.112  0.00  0.00    +0.110 C 
ENDBRANCH   1   8
BRANCH   1   9
ATOM      9  C   UNL     1      -9.533  16.993  66.102  0.00  0.00    +0.115 C 
BRANCH   9  10
ATOM     10  C   UNL     1     -10.599  16.246  65.363  0.00  0.00    +0.365 C 
ATOM     11  O   UNL     1     -10.288  14.916  65.059  0.00  0.00    -0.246 OA
ATOM     12  O   UNL     1     -11.148  16.895  64.422  0.00  0.00    -0.246 OA
ENDBRANCH   9  10
ENDBRANCH   1   9
TORSDOF 3
ENDMDL
MODEL 8
REMARK VINA RESULT:      -4.3      3.893      5.958
REMARK  Name = 
REMARK  3 active torsions:
REMARK  status: ('A' for Active; 'I' for Inactive)
REMARK    1  A    between atoms: C_2  and  C_3
REMARK    2  A    between atoms: C_3  and  C_4
REMARK    3  A    between atoms: C_4  and  C_5
REMARK                            x       y       z     vdW  Elec       q    Type
REMARK                         _______ _______ _______ _____ _____    ______ ____
ROOT
ATOM      1  C   UNL     1      -9.012  17.669  66.860  0.00  0.00    +0.028 C 
ATOM      2  C   UNL     1      -8.972  19.030  66.179  0.00  0.00    +0.002 C 
ATOM      3  C   UNL     1     -10.032  19.939  66.742  0.00  0.00    +0.000 C 
ATOM      4  C   UNL     1     -10.127  19.774  68.254  0.00  0.00    +0.000 C 
ATOM      5  C   UNL     1      -8.759  19.296  68.720  0.00  0.00    +0.000 C 
ATOM      6  C   UNL     1      -8.660  17.827  68.334  0.00  0.00    +0.002 C 
ENDROOT
BRANCH   1   8
ATOM      7  N   UNL     1      -6.724  17.497  66.040  0.00  0.00    -0.131 NA
ATOM      8  C   UNL     1      -7.978  16.771  66.236  0.00  0.00    +0.110 C 
ENDBRANCH   1   8
BRANCH   1   9
ATOM      9  C   UNL     1     -10.399  17.127  66.689  0.00  0.00    +0.115 C 
BRANCH   9  10
ATOM     10  C   UNL     1     -10.539  16.288  65.458  0.00  0.00    +0.365 C 
ATOM     11  O   UNL     1     -11.166  16.921  64.379  0.00  0.00    -0.246 OA
ATOM     12  O   UNL     1     -10.913  15.095  65.667  0.00  0.00    -0.246 OA
ENDBRANCH   9  10
ENDBRANCH   1   9
TORSDOF 3
ENDMDL
MODEL 9
REMARK VINA RESULT:      -4.1      1.931      2.377
REMARK  Name = 
REMARK  3 active torsions:
REMARK  status: ('A' for Active; 'I' for Inactive)
REMARK    1  A    between atoms: C_2  and  C_3
REMARK    2  A    between atoms: C_3  and  C_4
REMARK    3  A    between atoms: C_4  and  C_5
REMARK                            x       y       z     vdW  Elec       q    Type
REMARK                         _______ _______ _______ _____ _____    ______ ____
ROOT
ATOM      1  C   UNL     1     -10.483  14.676  66.503  0.00  0.00    +0.028 C 
ATOM      2  C   UNL     1     -11.638  13.808  66.982  0.00  0.00    +0.002 C 
ATOM      3  C   UNL     1     -11.581  12.446  66.343  0.00  0.00    +0.000 C 
ATOM      4  C   UNL     1     -10.144  11.947  66.280  0.00  0.00    +0.000 C 
ATOM      5  C   UNL     1      -9.400  12.635  67.415  0.00  0.00    +0.000 C 
ATOM      6  C   UNL     1      -9.165  14.072  66.969  0.00  0.00    +0.002 C 
ENDROOT
BRANCH   1   8
ATOM      7  N   UNL     1      -9.288  16.533  67.533  0.00  0.00    -0.131 NA
ATOM      8  C   UNL     1     -10.602  16.044  67.118  0.00  0.00    +0.110 C 
ENDBRANCH   1   8
BRANCH   1   9
ATOM      9  C   UNL     1     -10.557  14.728  65.007  0.00  0.00    +0.115 C 
BRANCH   9  10
ATOM     10  C   UNL     1     -11.752  15.483  64.517  0.00  0.00    +0.365 C 
ATOM     11  O   UNL     1     -12.715  14.707  63.863  0.00  0.00    -0.246 OA
ATOM     12  O   UNL     1     -11.489  16.590  63.958  0.00  0.00    -0.246 OA
ENDBRANCH   9  10
ENDBRANCH   1   9
TORSDOF 3
ENDMDL
