MODEL 1
REMARK VINA RESULT:      -4.9      0.000      0.000
REMARK  Name = 
REMARK  4 active torsions:
REMARK  status: ('A' for Active; 'I' for Inactive)
REMARK    1  A    between atoms: C_2  and  C_4
REMARK    2  A    between atoms: C_4  and  C_5
REMARK    3  A    between atoms: C_5  and  C_6
REMARK    4  A    between atoms: C_6  and  C_7
REMARK                            x       y       z     vdW  Elec       q    Type
REMARK                         _______ _______ _______ _____ _____    ______ ____
ROOT
ATOM      1  C   UNL     1     -13.415  12.851  72.130  0.00  0.00    +0.027 C 
ENDROOT
BRANCH   1   2
ATOM      2  C   UNL     1     -12.871  11.663  71.413  0.00  0.00    -0.022 A 
ATOM      3  C   UNL     1     -12.099  11.924  70.292  0.00  0.00    -0.004 A 
ATOM      4  C   UNL     1     -11.385  10.837  69.802  0.00  0.00    -0.000 A 
ATOM      5  C   UNL     1     -11.220   9.686  70.559  0.00  0.00    -0.000 A 
ATOM      6  C   UNL     1     -12.159   9.431  71.546  0.00  0.00    -0.000 A 
ATOM      7  C   UNL     1     -13.109  10.370  71.863  0.00  0.00    -0.004 A 
ENDBRANCH   1   2
BRANCH   1   8
ATOM      8  C   UNL     1     -12.959  14.068  71.350  0.00  0.00    +0.016 C 
BRANCH   8   9
ATOM      9  C   UNL     1     -12.186  14.964  72.311  0.00  0.00    +0.114 C 
BRANCH   9  11
ATOM     10  O   UNL     1     -12.929  16.155  74.175  0.00  0.00    -0.246 OA
ATOM     11  C   UNL     1     -13.211  15.812  72.989  0.00  0.00    +0.365 C 
ATOM     12  O   UNL     1     -14.460  16.062  72.467  0.00  0.00    -0.246 OA
ENDBRANCH   9  11
ENDBRANCH   8   9
ENDBRANCH   1   8
TORSDOF 4
ENDMDL
MODEL 2
REMARK VINA RESULT:      -4.9      7.212      8.974
REMARK  Name = 
REMARK  4 active torsions:
REMARK  status: ('A' for Active; 'I' for Inactive)
REMARK    1  A    between atoms: C_2  and  C_4
REMARK    2  A    between atoms: C_4  and  C_5
REMARK    3  A    between atoms: C_5  and  C_6
REMARK    4  A    between atoms: C_6  and  C_7
REMARK                            x       y       z     vdW  Elec       q    Type
REMARK                         _______ _______ _______ _____ _____    ______ ____
ROOT
ATOM      1  C   UNL     1     -10.503  16.288  67.121  0.00  0.00    +0.027 C 
ENDROOT
BRANCH   1   2
ATOM      2  C   UNL     1     -10.362  17.761  67.300  0.00  0.00    -0.022 A 
ATOM      3  C   UNL     1     -10.012  18.194  68.569  0.00  0.00    -0.004 A 
ATOM      4  C   UNL     1      -9.622  19.526  68.651  0.00  0.00    -0.000 A 
ATOM      5  C   UNL     1      -9.314  20.255  67.513  0.00  0.00    -0.000 A 
ATOM      6  C   UNL     1      -9.866  19.832  66.314  0.00  0.00    -0.000 A 
ATOM      7  C   UNL     1     -10.550  18.644  66.243  0.00  0.00    -0.004 A 
ENDBRANCH   1   2
BRANCH   1   8
ATOM      8  C   UNL     1      -9.830  15.949  65.806  0.00  0.00    +0.016 C 
BRANCH   8   9
ATOM      9  C   UNL     1     -10.573  14.762  65.205  0.00  0.00    +0.114 C 
BRANCH   9  11
ATOM     10  O   UNL     1     -12.579  14.535  64.033  0.00  0.00    -0.246 OA
ATOM     11  C   UNL     1     -11.670  15.348  64.378  0.00  0.00    +0.365 C 
ATOM     12  O   UNL     1     -11.634  16.619  63.853  0.00  0.00    -0.246 OA
ENDBRANCH   9  11
ENDBRANCH   8   9
ENDBRANCH   1   8
TORSDOF 4
ENDMDL
MODEL 3
REMARK VINA RESULT:      -4.9      4.188      5.745
REMARK  Name = 
REMARK  4 active torsions:
REMARK  status: ('A' for Active; 'I' for Inactive)
REMARK    1  A    between atoms: C_2  and  C_4
REMARK    2  A    between atoms: C_4  and  C_5
REMARK    3  A    between atoms: C_5  and  C_6
REMARK    4  A    between atoms: C_6  and  C_7
REMARK                            x       y       z     vdW  Elec       q    Type
REMARK                         _______ _______ _______ _____ _____    ______ ____
ROOT
ATOM      1  C   UNL     1     -11.121  14.550  69.559  0.00  0.00    +0.027 C 
ENDROOT
BRANCH   1   2
ATOM      2  C   UNL     1     -11.953  14.806  70.769  0.00  0.00    -0.022 A 
ATOM      3  C   UNL     1     -12.747  13.755  71.201  0.00  0.00    -0.004 A 
ATOM      4  C   UNL     1     -13.299  13.916  72.466  0.00  0.00    -0.000 A 
ATOM      5  C   UNL     1     -12.836  14.895  73.333  0.00  0.00    -0.000 A 
ATOM      6  C   UNL     1     -12.208  15.997  72.775  0.00  0.00    -0.000 A 
ATOM      7  C   UNL     1     -11.913  16.026  71.434  0.00  0.00    -0.004 A 
ENDBRANCH   1   2
BRANCH   1   8
ATOM      8  C   UNL     1     -12.025  13.866  68.554  0.00  0.00    +0.016 C 
BRANCH   8   9
ATOM      9  C   UNL     1     -11.700  14.443  67.181  0.00  0.00    +0.114 C 
BRANCH   9  11
ATOM     10  O   UNL     1     -13.118  14.003  65.380  0.00  0.00    -0.246 OA
ATOM     11  C   UNL     1     -12.289  13.492  66.192  0.00  0.00    +0.365 C 
ATOM     12  O   UNL     1     -12.116  12.128  66.248  0.00  0.00    -0.246 OA
ENDBRANCH   9  11
ENDBRANCH   8   9
ENDBRANCH   1   8
TORSDOF 4
ENDMDL
MODEL 4
REMARK VINA RESULT:      -4.8      2.096      3.297
REMARK  Name = 
REMARK  4 active torsions:
REMARK  status: ('A' for Active; 'I' for Inactive)
REMARK    1  A    between atoms: C_2  and  C_4
REMARK    2  A    between atoms: C_4  and  C_5
REMARK    3  A    between atoms: C_5  and  C_6
REMARK    4  A    between atoms: C_6  and  C_7
REMARK                            x       y       z     vdW  Elec       q    Type
REMARK                         _______ _______ _______ _____ _____    ______ ____
ROOT
ATOM      1  C   UNL     1     -12.358  13.794  70.785  0.00  0.00    +0.027 C 
ENDROOT
BRANCH   1   2
ATOM      2  C   UNL     1     -11.896  13.520  69.394  0.00  0.00    -0.022 A 
ATOM      3  C   UNL     1     -11.624  12.195  69.089  0.00  0.00    -0.004 A 
ATOM      4  C   UNL     1     -11.461  11.925  67.735  0.00  0.00    -0.000 A 
ATOM      5  C   UNL     1     -11.848  12.840  66.768  0.00  0.00    -0.000 A 
ATOM      6  C   UNL     1     -11.916  14.173  67.141  0.00  0.00    -0.000 A 
ATOM      7  C   UNL     1     -11.768  14.537  68.457  0.00  0.00    -0.004 A 
ENDBRANCH   1   2
BRANCH   1   8
ATOM      8  C   UNL     1     -12.699  15.269  70.840  0.00  0.00    +0.016 C 
BRANCH   8   9
ATOM      9  C   UNL     1     -11.979  15.859  72.047  0.00  0.00    +0.114 C 
BRANCH   9  11
ATOM     10  O   UNL     1     -14.210  16.024  72.709  0.00  0.00    -0.246 OA
ATOM     11  C   UNL     1     -13.012  15.978  73.118  0.00  0.00    +0.365 C 
ATOM     12  O   UNL     1     -12.715  16.215  74.441  0.00  0.00    -0.246 OA
ENDBRANCH   9  11
ENDBRANCH   8   9
ENDBRANCH   1   8
TORSDOF 4
ENDMDL
MODEL 5
REMARK VINA RESULT:      -4.8      4.124      5.698
REMARK  Name = 
REMARK  4 active torsions:
REMARK  status: ('A' for Active; 'I' for Inactive)
REMARK    1  A    between atoms: C_2  and  C_4
REMARK    2  A    between atoms: C_4  and  C_5
REMARK    3  A    between atoms: C_5  and  C_6
REMARK    4  A    between atoms: C_6  and  C_7
REMARK                            x       y       z     vdW  Elec       q    Type
REMARK                         _______ _______ _______ _____ _____    ______ ____
ROOT
ATOM      1  C   UNL     1     -11.782  15.406  69.151  0.00  0.00    +0.027 C 
ENDROOT
BRANCH   1   2
ATOM      2  C   UNL     1     -12.050  15.020  70.565  0.00  0.00    -0.022 A 
ATOM      3  C   UNL     1     -11.838  16.003  71.520  0.00  0.00    -0.004 A 
ATOM      4  C   UNL     1     -12.345  15.717  72.782  0.00  0.00    -0.000 A 
ATOM      5  C   UNL     1     -13.252  14.685  72.974  0.00  0.00    -0.000 A 
ATOM      6  C   UNL     1     -13.255  13.656  72.046  0.00  0.00    -0.000 A 
ATOM      7  C   UNL     1     -12.507  13.751  70.898  0.00  0.00    -0.004 A 
ENDBRANCH   1   2
BRANCH   1   8
ATOM      8  C   UNL     1     -11.807  14.124  68.344  0.00  0.00    +0.016 C 
BRANCH   8   9
ATOM      9  C   UNL     1     -11.719  14.509  66.872  0.00  0.00    +0.114 C 
BRANCH   9  11
ATOM     10  O   UNL     1     -13.005  13.613  65.143  0.00  0.00    -0.246 OA
ATOM     11  C   UNL     1     -12.239  13.333  66.113  0.00  0.00    +0.365 C 
ATOM     12  O   UNL     1     -12.077  12.029  66.521  0.00  0.00    -0.246 OA
ENDBRANCH   9  11
ENDBRANCH   8   9
ENDBRANCH   1   8
TORSDOF 4
ENDMDL
MODEL 6
REMARK VINA RESULT:      -4.8      7.181      8.823
REMARK  Name = 
REMARK  4 active torsions:
REMARK  status: ('A' for Active; 'I' for Inactive)
REMARK    1  A    between atoms: C_2  and  C_4
REMARK    2  A    between atoms: C_4  and  C_5
REMARK    3  A    between atoms: C_5  and  C_6
REMARK    4  A    between atoms: C_6  and  C_7
REMARK                            x       y       z     vdW  Elec       q    Type
REMARK                         _______ _______ _______ _____ _____    ______ ____
ROOT
ATOM      1  C   UNL     1     -10.338  16.173  67.037  0.00  0.00    +0.027 C 
ENDROOT
BRANCH   1   2
ATOM      2  C   UNL     1      -9.985  17.606  67.243  0.00  0.00    -0.022 A 
ATOM      3  C   UNL     1     -10.307  18.472  66.209  0.00  0.00    -0.004 A 
ATOM      4  C   UNL     1     -10.223  19.823  66.524  0.00  0.00    -0.000 A 
ATOM      5  C   UNL     1     -10.132  20.249  67.841  0.00  0.00    -0.000 A 
ATOM      6  C   UNL     1      -9.626  19.352  68.769  0.00  0.00    -0.000 A 
ATOM      7  C   UNL     1      -9.388  18.046  68.418  0.00  0.00    -0.004 A 
ENDBRANCH   1   2
BRANCH   1   8
ATOM      8  C   UNL     1      -9.687  15.755  65.733  0.00  0.00    +0.016 C 
BRANCH   8   9
ATOM      9  C   UNL     1     -10.508  14.605  65.162  0.00  0.00    +0.114 C 
BRANCH   9  11
ATOM     10  O   UNL     1     -12.722  14.504  64.431  0.00  0.00    -0.246 OA
ATOM     11  C   UNL     1     -11.692  15.237  64.507  0.00  0.00    +0.365 C 
ATOM     12  O   UNL     1     -11.646  16.448  63.855  0.00  0.00    -0.246 OA
ENDBRANCH   9  11
ENDBRANCH   8   9
ENDBRANCH   1   8
TORSDOF 4
ENDMDL
MODEL 7
REMARK VINA RESULT:      -4.8      6.139      7.078
REMARK  Name = 
REMARK  4 active torsions:
REMARK  status: ('A' for Active; 'I' for Inactive)
REMARK    1  A    between atoms: C_2  and  C_4
REMARK    2  A    between atoms: C_4  and  C_5
REMARK    3  A    between atoms: C_5  and  C_6
REMARK    4  A    between atoms: C_6  and  C_7
REMARK                            x       y       z     vdW  Elec       q    Type
REMARK                         _______ _______ _______ _____ _____    ______ ____
ROOT
ATOM      1  C   UNL     1     -12.498  13.932  65.904  0.00  0.00    +0.027 C 
ENDROOT
BRANCH   1   2
ATOM      2  C   UNL     1     -11.935  12.655  65.381  0.00  0.00    -0.022 A 
ATOM      3  C   UNL     1     -12.054  12.446  64.016  0.00  0.00    -0.004 A 
ATOM      4  C   UNL     1     -11.295  11.396  63.512  0.00  0.00    -0.000 A 
ATOM      5  C   UNL     1     -10.277  10.823  64.260  0.00  0.00    -0.000 A 
ATOM      6  C   UNL     1     -10.353  10.941  65.639  0.00  0.00    -0.000 A 
ATOM      7  C   UNL     1     -11.308  11.740  66.218  0.00  0.00    -0.004 A 
ENDBRANCH   1   2
BRANCH   1   8
ATOM      8  C   UNL     1     -11.331  14.714  66.473  0.00  0.00    +0.016 C 
BRANCH   8   9
ATOM      9  C   UNL     1     -10.455  15.143  65.301  0.00  0.00    +0.114 C 
BRANCH   9  11
ATOM     10  O   UNL     1     -11.606  16.614  63.902  0.00  0.00    -0.246 OA
ATOM     11  C   UNL     1     -10.897  16.524  64.948  0.00  0.00    +0.365 C 
ATOM     12  O   UNL     1     -10.433  17.658  65.577  0.00  0.00    -0.246 OA
ENDBRANCH   9  11
ENDBRANCH   8   9
ENDBRANCH   1   8
TORSDOF 4
ENDMDL
MODEL 8
REMARK VINA RESULT:      -4.7      3.942      5.397
REMARK  Name = 
REMARK  4 active torsions:
REMARK  status: ('A' for Active; 'I' for Inactive)
REMARK    1  A    between atoms: C_2  and  C_4
REMARK    2  A    between atoms: C_4  and  C_5
REMARK    3  A    between atoms: C_5  and  C_6
REMARK    4  A    between atoms: C_6  and  C_7
REMARK                            x       y       z     vdW  Elec       q    Type
REMARK                         _______ _______ _______ _____ _____    ______ ____
ROOT
ATOM      1  C   UNL     1     -11.850  14.542  69.250  0.00  0.00    +0.027 C 
ENDROOT
BRANCH   1   2
ATOM      2  C   UNL     1     -12.123  14.666  70.710  0.00  0.00    -0.022 A 
ATOM      3  C   UNL     1     -11.652  15.815  71.326  0.00  0.00    -0.004 A 
ATOM      4  C   UNL     1     -12.145  16.040  72.607  0.00  0.00    -0.000 A 
ATOM      5  C   UNL     1     -13.244  15.343  73.086  0.00  0.00    -0.000 A 
ATOM      6  C   UNL     1     -13.520  14.112  72.512  0.00  0.00    -0.000 A 
ATOM      7  C   UNL     1     -12.829  13.690  71.402  0.00  0.00    -0.004 A 
ENDBRANCH   1   2
BRANCH   1   8
ATOM      8  C   UNL     1     -11.628  15.950  68.734  0.00  0.00    +0.016 C 
BRANCH   8   9
ATOM      9  C   UNL     1     -10.480  15.894  67.733  0.00  0.00    +0.114 C 
BRANCH   9  11
ATOM     10  O   UNL     1     -10.874  18.191  67.841  0.00  0.00    -0.246 OA
ATOM     11  C   UNL     1     -10.403  17.256  67.127  0.00  0.00    +0.365 C 
ATOM     12  O   UNL     1     -10.031  17.492  65.823  0.00  0.00    -0.246 OA
ENDBRANCH   9  11
ENDBRANCH   8   9
ENDBRANCH   1   8
TORSDOF 4
ENDMDL
MODEL 9
REMARK VINA RESULT:      -4.6      3.249      5.474
REMARK  Name = 
REMARK  4 active torsions:
REMARK  status: ('A' for Active; 'I' for Inactive)
REMARK    1  A    between atoms: C_2  and  C_4
REMARK    2  A    between atoms: C_4  and  C_5
REMARK    3  A    between atoms: C_5  and  C_6
REMARK    4  A    between atoms: C_6  and  C_7
REMARK                            x       y       z     vdW  Elec       q    Type
REMARK                         _______ _______ _______ _____ _____    ______ ____
ROOT
ATOM      1  C   UNL     1     -12.304  12.300  70.426  0.00  0.00    +0.027 C 
ENDROOT
BRANCH   1   2
ATOM      2  C   UNL     1     -12.541  13.615  71.084  0.00  0.00    -0.022 A 
ATOM      3  C   UNL     1     -13.339  13.598  72.218  0.00  0.00    -0.004 A 
ATOM      4  C   UNL     1     -13.327  14.771  72.964  0.00  0.00    -0.000 A 
ATOM      5  C   UNL     1     -12.361  15.743  72.757  0.00  0.00    -0.000 A 
ATOM      6  C   UNL     1     -11.747  15.781  71.515  0.00  0.00    -0.000 A 
ATOM      7  C   UNL     1     -11.973  14.786  70.596  0.00  0.00    -0.004 A 
ENDBRANCH   1   2
BRANCH   1   8
ATOM      8  C   UNL     1     -12.817  11.242  71.383  0.00  0.00    +0.016 C 
BRANCH   8   9
ATOM      9  C   UNL     1     -11.994   9.980  71.153  0.00  0.00    +0.114 C 
BRANCH   9  11
ATOM     10  O   UNL     1     -13.778   9.122  72.389  0.00  0.00    -0.246 OA
ATOM     11  C   UNL     1     -12.562   8.952  72.074  0.00  0.00    +0.365 C 
ATOM     12  O   UNL     1     -11.805   7.991  72.704  0.00  0.00    -0.246 OA
ENDBRANCH   9  11
ENDBRANCH   8   9
ENDBRANCH   1   8
TORSDOF 4
ENDMDL
