MODEL 1
REMARK VINA RESULT:      -7.0      0.000      0.000
REMARK  Name = 
REMARK  3 active torsions:
REMARK  status: ('A' for Active; 'I' for Inactive)
REMARK    1  A    between atoms: C_2  and  O_3
REMARK    2  A    between atoms: O_3  and  C_4
REMARK    3  A    between atoms: C_21  and  C_22
REMARK                            x       y       z     vdW  Elec       q    Type
REMARK                         _______ _______ _______ _____ _____    ______ ____
ROOT
ATOM      1  O   UNL     1      -9.718  14.805  68.950  0.00  0.00    -0.226 OA
ATOM      2  C   UNL     1     -10.576  14.370  69.151  0.00  0.00    +0.405 C 
ATOM      3  N   UNL     1     -11.217  13.607  68.108  0.00  0.00    -0.240 N 
ATOM      4  C   UNL     1     -10.051  12.807  67.349  0.00  0.00    +0.123 C 
ATOM      5  C   UNL     1     -10.983  12.480  66.034  0.00  0.00    -0.004 A 
ATOM      6  C   UNL     1     -10.987  13.654  65.277  0.00  0.00    -0.023 A 
ATOM      7  C   UNL     1     -11.393  13.508  63.954  0.00  0.00    -0.004 A 
ATOM      8  C   UNL     1     -11.719  12.250  63.458  0.00  0.00    -0.000 A 
ATOM      9  C   UNL     1     -11.224  11.145  64.141  0.00  0.00    -0.000 A 
ATOM     10  C   UNL     1     -11.304  14.902  66.043  0.00  0.00    +0.048 C 
ATOM     11  C   UNL     1     -10.502  11.390  65.305  0.00  0.00    -0.003 A 
ATOM     12  C   UNL     1     -12.040  14.446  67.272  0.00  0.00    +0.102 C 
ENDROOT
BRANCH   4  13
ATOM     13  C   UNL     1     -10.471  11.382  68.051  0.00  0.00    -0.000 A 
ATOM     14  C   UNL     1     -11.651  11.456  68.766  0.00  0.00    -0.002 A 
ATOM     15  C   UNL     1     -11.882  10.689  69.873  0.00  0.00    -0.000 A 
ATOM     16  C   UNL     1     -10.904   9.779  70.249  0.00  0.00    -0.000 A 
ATOM     17  C   UNL     1      -9.610   9.932  69.764  0.00  0.00    -0.000 A 
ATOM     18  C   UNL     1      -9.396  10.917  68.808  0.00  0.00    -0.002 A 
ENDBRANCH   4  13
BRANCH   2  19
ATOM     19  O   UNL     1     -11.394  15.199  69.926  0.00  0.00    -0.437 OA
BRANCH  19  20
ATOM     20  C   UNL     1     -11.353  14.832  71.445  0.00  0.00    +0.186 C 
ATOM     21  C   UNL     1     -12.804  14.013  71.327  0.00  0.00    +0.044 C 
ATOM     22  C   UNL     1     -13.057  13.579  72.747  0.00  0.00    +0.021 C 
ATOM     23  C   UNL     1     -12.723  14.779  73.622  0.00  0.00    +0.072 C 
ATOM     24  N   UNL     1     -13.066  15.949  72.843  0.00  0.00    -0.270 NA
ATOM     25  C   UNL     1     -14.286  15.740  72.057  0.00  0.00    +0.072 C 
ATOM     26  C   UNL     1     -13.787  15.013  70.808  0.00  0.00    +0.021 C 
ATOM     27  C   UNL     1     -12.070  16.281  71.864  0.00  0.00    +0.116 C 
ENDBRANCH  19  20
ENDBRANCH   2  19
TORSDOF 3
ENDMDL
MODEL 2
REMARK VINA RESULT:      -6.7      3.065      5.833
REMARK  Name = 
REMARK  3 active torsions:
REMARK  status: ('A' for Active; 'I' for Inactive)
REMARK    1  A    between atoms: C_2  and  O_3
REMARK    2  A    between atoms: O_3  and  C_4
REMARK    3  A    between atoms: C_21  and  C_22
REMARK                            x       y       z     vdW  Elec       q    Type
REMARK                         _______ _______ _______ _____ _____    ______ ____
ROOT
ATOM      1  O   UNL     1     -12.021  16.627  68.256  0.00  0.00    -0.226 OA
ATOM      2  C   UNL     1     -11.145  16.395  68.636  0.00  0.00    +0.405 C 
ATOM      3  N   UNL     1     -11.052  15.223  69.473  0.00  0.00    -0.240 N 
ATOM      4  C   UNL     1     -11.970  14.101  68.786  0.00  0.00    +0.123 C 
ATOM      5  C   UNL     1     -12.033  13.169  70.140  0.00  0.00    -0.004 A 
ATOM      6  C   UNL     1     -12.985  13.771  70.966  0.00  0.00    -0.023 A 
ATOM      7  C   UNL     1     -13.476  12.970  71.991  0.00  0.00    -0.004 A 
ATOM      8  C   UNL     1     -13.049  11.652  72.114  0.00  0.00    -0.000 A 
ATOM      9  C   UNL     1     -12.498  11.050  70.988  0.00  0.00    -0.000 A 
ATOM     10  C   UNL     1     -12.812  15.247  71.162  0.00  0.00    +0.048 C 
ATOM     11  C   UNL     1     -12.356  11.841  69.852  0.00  0.00    -0.003 A 
ATOM     12  C   UNL     1     -11.370  15.530  70.846  0.00  0.00    +0.102 C 
ENDROOT
BRANCH   4  13
ATOM     13  C   UNL     1     -10.666  13.272  68.227  0.00  0.00    -0.000 A 
ATOM     14  C   UNL     1      -9.463  13.840  68.597  0.00  0.00    -0.002 A 
ATOM     15  C   UNL     1      -8.345  13.752  67.817  0.00  0.00    -0.000 A 
ATOM     16  C   UNL     1      -8.431  13.026  66.637  0.00  0.00    -0.000 A 
ATOM     17  C   UNL     1      -9.682  12.752  66.097  0.00  0.00    -0.000 A 
ATOM     18  C   UNL     1     -10.796  13.103  66.848  0.00  0.00    -0.002 A 
ENDBRANCH   4  13
BRANCH   2  19
ATOM     19  O   UNL     1     -10.461  17.538  69.064  0.00  0.00    -0.437 OA
BRANCH  19  20
ATOM     20  C   UNL     1      -9.014  17.625  68.479  0.00  0.00    +0.186 C 
ATOM     21  C   UNL     1      -9.061  19.293  68.503  0.00  0.00    +0.044 C 
ATOM     22  C   UNL     1      -7.736  19.672  67.896  0.00  0.00    +0.021 C 
ATOM     23  C   UNL     1      -7.543  18.755  66.696  0.00  0.00    +0.072 C 
ATOM     24  N   UNL     1      -8.867  18.505  66.168  0.00  0.00    -0.270 NA
ATOM     25  C   UNL     1      -9.714  19.699  66.240  0.00  0.00    +0.072 C 
ATOM     26  C   UNL     1     -10.245  19.674  67.674  0.00  0.00    +0.021 C 
ATOM     27  C   UNL     1      -9.589  17.515  66.914  0.00  0.00    +0.116 C 
ENDBRANCH  19  20
ENDBRANCH   2  19
TORSDOF 3
ENDMDL
MODEL 3
REMARK VINA RESULT:      -6.6      3.164      5.851
REMARK  Name = 
REMARK  3 active torsions:
REMARK  status: ('A' for Active; 'I' for Inactive)
REMARK    1  A    between atoms: C_2  and  O_3
REMARK    2  A    between atoms: O_3  and  C_4
REMARK    3  A    between atoms: C_21  and  C_22
REMARK                            x       y       z     vdW  Elec       q    Type
REMARK                         _______ _______ _______ _____ _____    ______ ____
ROOT
ATOM      1  O   UNL     1      -7.541  13.438  67.108  0.00  0.00    -0.226 OA
ATOM      2  C   UNL     1      -8.439  13.299  67.482  0.00  0.00    +0.405 C 
ATOM      3  N   UNL     1      -9.271  14.455  67.711  0.00  0.00    -0.240 N 
ATOM      4  C   UNL     1      -9.049  15.430  66.456  0.00  0.00    +0.123 C 
ATOM      5  C   UNL     1      -9.686  16.739  67.222  0.00  0.00    -0.004 A 
ATOM      6  C   UNL     1      -8.675  17.210  68.062  0.00  0.00    -0.023 A 
ATOM      7  C   UNL     1      -8.845  18.511  68.527  0.00  0.00    -0.004 A 
ATOM      8  C   UNL     1      -9.942  19.261  68.117  0.00  0.00    -0.000 A 
ATOM      9  C   UNL     1     -10.584  18.870  66.947  0.00  0.00    -0.000 A 
ATOM     10  C   UNL     1      -8.026  16.168  68.921  0.00  0.00    +0.048 C 
ATOM     11  C   UNL     1     -10.118  17.716  66.323  0.00  0.00    -0.003 A 
ATOM     12  C   UNL     1      -9.015  15.040  69.004  0.00  0.00    +0.102 C 
ENDROOT
BRANCH   4  13
ATOM     13  C   UNL     1     -10.509  15.048  65.807  0.00  0.00    -0.000 A 
ATOM     14  C   UNL     1     -11.445  14.685  66.754  0.00  0.00    -0.002 A 
ATOM     15  C   UNL     1     -12.440  13.786  66.489  0.00  0.00    -0.000 A 
ATOM     16  C   UNL     1     -12.520  13.264  65.205  0.00  0.00    -0.000 A 
ATOM     17  C   UNL     1     -11.414  13.350  64.367  0.00  0.00    -0.000 A 
ATOM     18  C   UNL     1     -10.323  14.084  64.816  0.00  0.00    -0.002 A 
ENDBRANCH   4  13
BRANCH   2  19
ATOM     19  O   UNL     1      -8.424  12.318  68.479  0.00  0.00    -0.437 OA
BRANCH  19  20
ATOM     20  C   UNL     1      -8.535  10.871  67.899  0.00  0.00    +0.186 C 
ATOM     21  C   UNL     1     -10.174  11.055  67.643  0.00  0.00    +0.044 C 
ATOM     22  C   UNL     1     -10.581   9.704  67.114  0.00  0.00    +0.021 C 
ATOM     23  C   UNL     1      -9.876   8.677  67.988  0.00  0.00    +0.072 C 
ATOM     24  N   UNL     1      -9.791   9.267  69.308  0.00  0.00    -0.270 NA
ATOM     25  C   UNL     1     -10.997  10.030  69.640  0.00  0.00    +0.072 C 
ATOM     26  C   UNL     1     -10.754  11.388  68.980  0.00  0.00    +0.021 C 
ATOM     27  C   UNL     1      -8.726  10.221  69.426  0.00  0.00    +0.116 C 
ENDBRANCH  19  20
ENDBRANCH   2  19
TORSDOF 3
ENDMDL
MODEL 4
REMARK VINA RESULT:      -6.5      2.925      5.434
REMARK  Name = 
REMARK  3 active torsions:
REMARK  status: ('A' for Active; 'I' for Inactive)
REMARK    1  A    between atoms: C_2  and  O_3
REMARK    2  A    between atoms: O_3  and  C_4
REMARK    3  A    between atoms: C_21  and  C_22
REMARK                            x       y       z     vdW  Elec       q    Type
REMARK                         _______ _______ _______ _____ _____    ______ ____
ROOT
ATOM      1  O   UNL     1     -11.248  15.353  66.835  0.00  0.00    -0.226 OA
ATOM      2  C   UNL     1     -10.395  15.052  67.220  0.00  0.00    +0.405 C 
ATOM      3  N   UNL     1     -10.432  14.081  68.286  0.00  0.00    -0.240 N 
ATOM      4  C   UNL     1     -11.575  13.023  67.898  0.00  0.00    +0.123 C 
ATOM      5  C   UNL     1     -11.684  12.418  69.423  0.00  0.00    -0.004 A 
ATOM      6  C   UNL     1     -12.456  13.337  70.137  0.00  0.00    -0.023 A 
ATOM      7  C   UNL     1     -12.991  12.866  71.331  0.00  0.00    -0.004 A 
ATOM      8  C   UNL     1     -12.780  11.547  71.719  0.00  0.00    -0.000 A 
ATOM      9  C   UNL     1     -12.426  10.637  70.728  0.00  0.00    -0.000 A 
ATOM     10  C   UNL     1     -12.026  14.767  70.001  0.00  0.00    +0.048 C 
ATOM     11  C   UNL     1     -12.245  11.138  69.442  0.00  0.00    -0.003 A 
ATOM     12  C   UNL     1     -10.586  14.716  69.572  0.00  0.00    +0.102 C 
ENDROOT
BRANCH   4  13
ATOM     13  C   UNL     1     -10.474  11.878  67.478  0.00  0.00    -0.000 A 
ATOM     14  C   UNL     1      -9.185  12.202  67.851  0.00  0.00    -0.002 A 
ATOM     15  C   UNL     1      -8.094  11.794  67.136  0.00  0.00    -0.000 A 
ATOM     16  C   UNL     1      -8.309  10.991  66.024  0.00  0.00    -0.000 A 
ATOM     17  C   UNL     1      -9.576  10.946  65.453  0.00  0.00    -0.000 A 
ATOM     18  C   UNL     1     -10.603  11.606  66.116  0.00  0.00    -0.002 A 
ENDBRANCH   4  13
BRANCH   2  19
ATOM     19  O   UNL     1      -9.500  16.118  67.361  0.00  0.00    -0.437 OA
BRANCH  19  20
ATOM     20  C   UNL     1     -10.140  17.493  66.982  0.00  0.00    +0.186 C 
ATOM     21  C   UNL     1      -8.646  18.124  66.586  0.00  0.00    +0.044 C 
ATOM     22  C   UNL     1      -8.973  19.549  66.223  0.00  0.00    +0.021 C 
ATOM     23  C   UNL     1      -9.952  20.041  67.281  0.00  0.00    +0.072 C 
ATOM     24  N   UNL     1      -9.587  19.365  68.507  0.00  0.00    -0.270 NA
ATOM     25  C   UNL     1      -8.133  19.231  68.642  0.00  0.00    +0.072 C 
ATOM     26  C   UNL     1      -7.811  17.983  67.818  0.00  0.00    +0.021 C 
ATOM     27  C   UNL     1     -10.071  18.015  68.567  0.00  0.00    +0.116 C 
ENDBRANCH  19  20
ENDBRANCH   2  19
TORSDOF 3
ENDMDL
MODEL 5
REMARK VINA RESULT:      -6.4      5.065      7.968
REMARK  Name = 
REMARK  3 active torsions:
REMARK  status: ('A' for Active; 'I' for Inactive)
REMARK    1  A    between atoms: C_2  and  O_3
REMARK    2  A    between atoms: O_3  and  C_4
REMARK    3  A    between atoms: C_21  and  C_22
REMARK                            x       y       z     vdW  Elec       q    Type
REMARK                         _______ _______ _______ _____ _____    ______ ____
ROOT
ATOM      1  O   UNL     1      -6.850  15.927  66.716  0.00  0.00    -0.226 OA
ATOM      2  C   UNL     1      -7.545  16.132  67.380  0.00  0.00    +0.405 C 
ATOM      3  N   UNL     1      -7.278  17.165  68.350  0.00  0.00    -0.240 N 
ATOM      4  C   UNL     1      -6.523  18.343  67.565  0.00  0.00    +0.123 C 
ATOM      5  C   UNL     1      -5.971  19.054  68.941  0.00  0.00    -0.004 A 
ATOM      6  C   UNL     1      -4.866  18.297  69.337  0.00  0.00    -0.023 A 
ATOM      7  C   UNL     1      -4.019  18.913  70.252  0.00  0.00    -0.004 A 
ATOM      8  C   UNL     1      -4.276  20.213  70.677  0.00  0.00    -0.000 A 
ATOM      9  C   UNL     1      -5.092  20.999  69.872  0.00  0.00    -0.000 A 
ATOM     10  C   UNL     1      -5.094  16.816  69.380  0.00  0.00    +0.048 C 
ATOM     11  C   UNL     1      -5.641  20.397  68.744  0.00  0.00    -0.003 A 
ATOM     12  C   UNL     1      -6.583  16.640  69.500  0.00  0.00    +0.102 C 
ENDROOT
BRANCH   4  13
ATOM     13  C   UNL     1      -7.861  19.296  67.559  0.00  0.00    -0.000 A 
ATOM     14  C   UNL     1      -8.747  18.993  68.574  0.00  0.00    -0.002 A 
ATOM     15  C   UNL     1     -10.097  19.162  68.438  0.00  0.00    -0.000 A 
ATOM     16  C   UNL     1     -10.568  19.701  67.248  0.00  0.00    -0.000 A 
ATOM     17  C   UNL     1      -9.749  19.687  66.125  0.00  0.00    -0.000 A 
ATOM     18  C   UNL     1      -8.439  19.256  66.291  0.00  0.00    -0.002 A 
ENDBRANCH   4  13
BRANCH   2  19
ATOM     19  O   UNL     1      -8.159  14.964  67.845  0.00  0.00    -0.437 OA
BRANCH  19  20
ATOM     20  C   UNL     1      -9.062  14.289  66.763  0.00  0.00    +0.186 C 
ATOM     21  C   UNL     1     -10.226  15.474  66.937  0.00  0.00    +0.044 C 
ATOM     22  C   UNL     1     -11.311  15.015  66.000  0.00  0.00    +0.021 C 
ATOM     23  C   UNL     1     -11.456  13.516  66.222  0.00  0.00    +0.072 C 
ATOM     24  N   UNL     1     -11.160  13.290  67.621  0.00  0.00    -0.270 NA
ATOM     25  C   UNL     1     -11.687  14.363  68.468  0.00  0.00    +0.072 C 
ATOM     26  C   UNL     1     -10.613  15.448  68.381  0.00  0.00    +0.021 C 
ATOM     27  C   UNL     1      -9.753  13.279  67.900  0.00  0.00    +0.116 C 
ENDBRANCH  19  20
ENDBRANCH   2  19
TORSDOF 3
ENDMDL
MODEL 6
REMARK VINA RESULT:      -6.4      5.126      7.722
REMARK  Name = 
REMARK  3 active torsions:
REMARK  status: ('A' for Active; 'I' for Inactive)
REMARK    1  A    between atoms: C_2  and  O_3
REMARK    2  A    between atoms: O_3  and  C_4
REMARK    3  A    between atoms: C_21  and  C_22
REMARK                            x       y       z     vdW  Elec       q    Type
REMARK                         _______ _______ _______ _____ _____    ______ ____
ROOT
ATOM      1  O   UNL     1      -6.803  16.960  69.251  0.00  0.00    -0.226 OA
ATOM      2  C   UNL     1      -7.033  17.229  68.334  0.00  0.00    +0.405 C 
ATOM      3  N   UNL     1      -8.115  16.543  67.672  0.00  0.00    -0.240 N 
ATOM      4  C   UNL     1      -9.261  16.331  68.775  0.00  0.00    +0.123 C 
ATOM      5  C   UNL     1     -10.045  15.183  67.896  0.00  0.00    -0.004 A 
ATOM      6  C   UNL     1      -9.321  14.004  68.089  0.00  0.00    -0.023 A 
ATOM      7  C   UNL     1      -9.990  12.832  67.755  0.00  0.00    -0.004 A 
ATOM      8  C   UNL     1     -11.306  12.883  67.306  0.00  0.00    -0.000 A 
ATOM      9  C   UNL     1     -12.043  14.021  67.612  0.00  0.00    -0.000 A 
ATOM     10  C   UNL     1      -7.841  14.128  67.882  0.00  0.00    +0.048 C 
ATOM     11  C   UNL     1     -11.380  15.045  68.282  0.00  0.00    -0.003 A 
ATOM     12  C   UNL     1      -7.655  15.343  67.017  0.00  0.00    +0.102 C 
ENDROOT
BRANCH   4  13
ATOM     13  C   UNL     1     -10.199  17.519  68.134  0.00  0.00    -0.000 A 
ATOM     14  C   UNL     1     -10.217  17.510  66.753  0.00  0.00    -0.002 A 
ATOM     15  C   UNL     1     -10.366  18.654  66.019  0.00  0.00    -0.000 A 
ATOM     16  C   UNL     1     -10.548  19.847  66.704  0.00  0.00    -0.000 A 
ATOM     17  C   UNL     1     -10.196  19.921  68.047  0.00  0.00    -0.000 A 
ATOM     18  C   UNL     1      -9.806  18.744  68.674  0.00  0.00    -0.002 A 
ENDBRANCH   4  13
BRANCH   2  19
ATOM     19  O   UNL     1      -5.882  17.482  67.579  0.00  0.00    -0.437 OA
BRANCH  19  20
ATOM     20  C   UNL     1      -5.382  18.956  67.723  0.00  0.00    +0.186 C 
ATOM     21  C   UNL     1      -6.632  19.516  66.769  0.00  0.00    +0.044 C 
ATOM     22  C   UNL     1      -6.347  20.992  66.679  0.00  0.00    +0.021 C 
ATOM     23  C   UNL     1      -4.849  21.119  66.438  0.00  0.00    +0.072 C 
ATOM     24  N   UNL     1      -4.472  19.964  65.652  0.00  0.00    -0.270 NA
ATOM     25  C   UNL     1      -5.501  19.619  64.666  0.00  0.00    +0.072 C 
ATOM     26  C   UNL     1      -6.502  18.788  65.469  0.00  0.00    +0.021 C 
ATOM     27  C   UNL     1      -4.328  18.774  66.441  0.00  0.00    +0.116 C 
ENDBRANCH  19  20
ENDBRANCH   2  19
TORSDOF 3
ENDMDL
MODEL 7
REMARK VINA RESULT:      -6.4      3.553      5.123
REMARK  Name = 
REMARK  3 active torsions:
REMARK  status: ('A' for Active; 'I' for Inactive)
REMARK    1  A    between atoms: C_2  and  O_3
REMARK    2  A    between atoms: O_3  and  C_4
REMARK    3  A    between atoms: C_21  and  C_22
REMARK                            x       y       z     vdW  Elec       q    Type
REMARK                         _______ _______ _______ _____ _____    ______ ____
ROOT
ATOM      1  O   UNL     1      -8.819  11.037  69.010  0.00  0.00    -0.226 OA
ATOM      2  C   UNL     1      -9.457  10.299  68.894  0.00  0.00    +0.405 C 
ATOM      3  N   UNL     1     -10.371  10.355  67.780  0.00  0.00    -0.240 N 
ATOM      4  C   UNL     1      -9.534  10.918  66.532  0.00  0.00    +0.123 C 
ATOM      5  C   UNL     1     -10.877  11.299  65.663  0.00  0.00    -0.004 A 
ATOM      6  C   UNL     1     -11.336  12.506  66.195  0.00  0.00    -0.023 A 
ATOM      7  C   UNL     1     -12.230  13.208  65.392  0.00  0.00    -0.004 A 
ATOM      8  C   UNL     1     -12.575  12.719  64.137  0.00  0.00    -0.000 A 
ATOM      9  C   UNL     1     -11.711  11.802  63.548  0.00  0.00    -0.000 A 
ATOM     10  C   UNL     1     -11.460  12.536  67.688  0.00  0.00    +0.048 C 
ATOM     11  C   UNL     1     -10.609  11.398  64.296  0.00  0.00    -0.003 A 
ATOM     12  C   UNL     1     -11.562  11.098  68.113  0.00  0.00    +0.102 C 
ENDROOT
BRANCH   4  13
ATOM     13  C   UNL     1      -9.448   9.436  65.827  0.00  0.00    -0.000 A 
ATOM     14  C   UNL     1     -10.183   8.475  66.494  0.00  0.00    -0.002 A 
ATOM     15  C   UNL     1      -9.815   7.159  66.513  0.00  0.00    -0.000 A 
ATOM     16  C   UNL     1      -8.685   6.790  65.796  0.00  0.00    -0.000 A 
ATOM     17  C   UNL     1      -7.769   7.765  65.419  0.00  0.00    -0.000 A 
ATOM     18  C   UNL     1      -8.107   9.091  65.664  0.00  0.00    -0.002 A 
ENDBRANCH   4  13
BRANCH   2  19
ATOM     19  O   UNL     1      -9.977   9.882  70.124  0.00  0.00    -0.437 OA
BRANCH  19  20
ATOM     20  C   UNL     1      -9.715   8.367  70.404  0.00  0.00    +0.186 C 
ATOM     21  C   UNL     1     -11.334   8.010  70.210  0.00  0.00    +0.044 C 
ATOM     22  C   UNL     1     -11.386   6.533  70.504  0.00  0.00    +0.021 C 
ATOM     23  C   UNL     1     -10.516   6.316  71.734  0.00  0.00    +0.072 C 
ATOM     24  N   UNL     1     -10.649   7.515  72.534  0.00  0.00    -0.270 NA
ATOM     25  C   UNL     1     -12.017   8.041  72.500  0.00  0.00    +0.072 C 
ATOM     26  C   UNL     1     -12.054   8.858  71.208  0.00  0.00    +0.021 C 
ATOM     27  C   UNL     1      -9.843   8.600  72.053  0.00  0.00    +0.116 C 
ENDBRANCH  19  20
ENDBRANCH   2  19
TORSDOF 3
ENDMDL
MODEL 8
REMARK VINA RESULT:      -6.4      2.496      6.691
REMARK  Name = 
REMARK  3 active torsions:
REMARK  status: ('A' for Active; 'I' for Inactive)
REMARK    1  A    between atoms: C_2  and  O_3
REMARK    2  A    between atoms: O_3  and  C_4
REMARK    3  A    between atoms: C_21  and  C_22
REMARK                            x       y       z     vdW  Elec       q    Type
REMARK                         _______ _______ _______ _____ _____    ______ ____
ROOT
ATOM      1  O   UNL     1     -12.082  11.378  67.383  0.00  0.00    -0.226 OA
ATOM      2  C   UNL     1     -11.266  11.305  67.926  0.00  0.00    +0.405 C 
ATOM      3  N   UNL     1     -11.191  12.061  69.152  0.00  0.00    -0.240 N 
ATOM      4  C   UNL     1     -12.640  11.966  69.834  0.00  0.00    +0.123 C 
ATOM      5  C   UNL     1     -12.368  13.236  70.843  0.00  0.00    -0.004 A 
ATOM      6  C   UNL     1     -12.556  14.380  70.064  0.00  0.00    -0.023 A 
ATOM      7  C   UNL     1     -12.744  15.560  70.776  0.00  0.00    -0.004 A 
ATOM      8  C   UNL     1     -12.780  15.540  72.166  0.00  0.00    -0.000 A 
ATOM      9  C   UNL     1     -13.061  14.325  72.781  0.00  0.00    -0.000 A 
ATOM     10  C   UNL     1     -11.827  14.382  68.755  0.00  0.00    +0.048 C 
ATOM     11  C   UNL     1     -13.213  13.216  71.955  0.00  0.00    -0.003 A 
ATOM     12  C   UNL     1     -10.702  13.398  68.917  0.00  0.00    +0.102 C 
ENDROOT
BRANCH   4  13
ATOM     13  C   UNL     1     -12.117  10.899  70.969  0.00  0.00    -0.000 A 
ATOM     14  C   UNL     1     -11.015  10.173  70.563  0.00  0.00    -0.002 A 
ATOM     15  C   UNL     1     -10.786   8.895  70.990  0.00  0.00    -0.000 A 
ATOM     16  C   UNL     1     -11.681   8.343  71.898  0.00  0.00    -0.000 A 
ATOM     17  C   UNL     1     -12.940   8.913  72.043  0.00  0.00    -0.000 A 
ATOM     18  C   UNL     1     -13.189  10.101  71.367  0.00  0.00    -0.002 A 
ENDBRANCH   4  13
BRANCH   2  19
ATOM     19  O   UNL     1     -10.123  11.284  67.120  0.00  0.00    -0.437 OA
BRANCH  19  20
ATOM     20  C   UNL     1     -10.083  10.044  66.168  0.00  0.00    +0.186 C 
ATOM     21  C   UNL     1      -9.403   9.098  67.363  0.00  0.00    +0.044 C 
ATOM     22  C   UNL     1      -9.183   7.783  66.661  0.00  0.00    +0.021 C 
ATOM     23  C   UNL     1      -8.610   8.125  65.292  0.00  0.00    +0.072 C 
ATOM     24  N   UNL     1      -7.816   9.321  65.480  0.00  0.00    -0.270 NA
ATOM     25  C   UNL     1      -7.100   9.302  66.758  0.00  0.00    +0.072 C 
ATOM     26  C   UNL     1      -8.143   9.797  67.761  0.00  0.00    +0.021 C 
ATOM     27  C   UNL     1      -8.609  10.516  65.538  0.00  0.00    +0.116 C 
ENDBRANCH  19  20
ENDBRANCH   2  19
TORSDOF 3
ENDMDL
MODEL 9
REMARK VINA RESULT:      -6.4      2.976      5.563
REMARK  Name = 
REMARK  3 active torsions:
REMARK  status: ('A' for Active; 'I' for Inactive)
REMARK    1  A    between atoms: C_2  and  O_3
REMARK    2  A    between atoms: O_3  and  C_4
REMARK    3  A    between atoms: C_21  and  C_22
REMARK                            x       y       z     vdW  Elec       q    Type
REMARK                         _______ _______ _______ _____ _____    ______ ____
ROOT
ATOM      1  O   UNL     1     -12.289  12.286  66.556  0.00  0.00    -0.226 OA
ATOM      2  C   UNL     1     -11.381  12.558  66.813  0.00  0.00    +0.405 C 
ATOM      3  N   UNL     1     -10.736  11.852  67.893  0.00  0.00    -0.240 N 
ATOM      4  C   UNL     1     -11.104  10.302  67.706  0.00  0.00    +0.123 C 
ATOM      5  C   UNL     1     -10.676   9.903  69.243  0.00  0.00    -0.004 A 
ATOM      6  C   UNL     1     -11.748  10.298  70.046  0.00  0.00    -0.023 A 
ATOM      7  C   UNL     1     -11.780   9.735  71.317  0.00  0.00    -0.004 A 
ATOM      8  C   UNL     1     -10.811   8.813  71.697  0.00  0.00    -0.000 A 
ATOM      9  C   UNL     1     -10.115   8.162  70.685  0.00  0.00    -0.000 A 
ATOM     10  C   UNL     1     -12.231  11.698  69.815  0.00  0.00    +0.048 C 
ATOM     11  C   UNL     1     -10.398   8.540  69.376  0.00  0.00    -0.003 A 
ATOM     12  C   UNL     1     -11.080  12.422  69.174  0.00  0.00    +0.102 C 
ENDROOT
BRANCH   4  13
ATOM     13  C   UNL     1      -9.602   9.937  67.149  0.00  0.00    -0.000 A 
ATOM     14  C   UNL     1      -8.688  10.952  67.351  0.00  0.00    -0.002 A 
ATOM     15  C   UNL     1      -7.640  11.169  66.500  0.00  0.00    -0.000 A 
ATOM     16  C   UNL     1      -7.484  10.302  65.427  0.00  0.00    -0.000 A 
ATOM     17  C   UNL     1      -8.557   9.515  65.027  0.00  0.00    -0.000 A 
ATOM     18  C   UNL     1      -9.700   9.538  65.816  0.00  0.00    -0.002 A 
ENDBRANCH   4  13
BRANCH   2  19
ATOM     19  O   UNL     1     -11.246  13.951  66.793  0.00  0.00    -0.437 OA
BRANCH  19  20
ATOM     20  C   UNL     1      -9.814  14.408  66.365  0.00  0.00    +0.186 C 
ATOM     21  C   UNL     1      -9.643  15.315  67.756  0.00  0.00    +0.044 C 
ATOM     22  C   UNL     1      -8.294  15.959  67.570  0.00  0.00    +0.021 C 
ATOM     23  C   UNL     1      -8.250  16.437  66.125  0.00  0.00    +0.072 C 
ATOM     24  N   UNL     1      -9.607  16.808  65.786  0.00  0.00    -0.270 NA
ATOM     25  C   UNL     1     -10.291  17.454  66.910  0.00  0.00    +0.072 C 
ATOM     26  C   UNL     1     -10.787  16.278  67.751  0.00  0.00    +0.021 C 
ATOM     27  C   UNL     1     -10.435  15.678  65.473  0.00  0.00    +0.116 C 
ENDBRANCH  19  20
ENDBRANCH   2  19
TORSDOF 3
ENDMDL
