MODEL 1
REMARK VINA RESULT:      -6.0      0.000      0.000
REMARK  Name = 
REMARK  10 active torsions:
REMARK  status: ('A' for Active; 'I' for Inactive)
REMARK    1  A    between atoms: O_2  and  C_3
REMARK    2  A    between atoms: C_3  and  C_4
REMARK    3  A    between atoms: C_4  and  C_5
REMARK    4  A    between atoms: C_5  and  C_6
REMARK    5  A    between atoms: C_6  and  C_7
REMARK    6  A    between atoms: C_7  and  C_13
REMARK    7  A    between atoms: N_8  and  O_9
REMARK    8  A    between atoms: O_9  and  C_10
REMARK    9  A    between atoms: C_10  and  C_11
REMARK   10  A    between atoms: C_16  and  C_17
REMARK                            x       y       z     vdW  Elec       q    Type
REMARK                         _______ _______ _______ _____ _____    ______ ____
ROOT
ATOM      1  C   UNL     1     -10.695  14.968  67.652  0.00  0.00    +0.097 C 
ATOM      2  N   UNL     1     -11.161  15.116  66.447  0.00  0.00    -0.087 NA
ENDROOT
BRANCH   1   3
ATOM      3  C   UNL     1     -11.692  14.615  68.669  0.00  0.00    +0.017 A 
ATOM      4  C   UNL     1     -12.019  15.623  69.565  0.00  0.00    +0.001 A 
ATOM      5  C   UNL     1     -12.922  15.327  70.563  0.00  0.00    +0.004 A 
ATOM      6  C   UNL     1     -12.765  14.100  71.188  0.00  0.00    +0.071 A 
ATOM      7  C   UNL     1     -12.187  13.077  70.480  0.00  0.00    +0.004 A 
ATOM      8  C   UNL     1     -11.730  13.328  69.192  0.00  0.00    +0.001 A 
BRANCH   6   9
ATOM      9  C   UNL     1     -13.531  13.893  72.446  0.00  0.00    +0.419 C 
ATOM     10  F   UNL     1     -14.770  14.479  72.285  0.00  0.00    -0.166 F 
ATOM     11  F   UNL     1     -13.755  12.532  72.591  0.00  0.00    -0.166 F 
ATOM     12  F   UNL     1     -12.836  14.401  73.521  0.00  0.00    -0.166 F 
ENDBRANCH   6   9
ENDBRANCH   1   3
BRANCH   1  13
ATOM     13  C   UNL     1      -9.249  14.900  67.962  0.00  0.00    +0.049 C 
BRANCH  13  14
ATOM     14  C   UNL     1      -8.785  16.008  68.866  0.00  0.00    +0.009 C 
BRANCH  14  15
ATOM     15  C   UNL     1      -8.762  17.279  68.073  0.00  0.00    +0.032 C 
BRANCH  15  16
ATOM     16  C   UNL     1      -9.691  18.340  68.581  0.00  0.00    +0.142 C 
BRANCH  16  18
ATOM     17  C   UNL     1     -10.631  19.416  66.757  0.00  0.00    +0.174 C 
ATOM     18  O   UNL     1     -10.819  18.523  67.807  0.00  0.00    -0.351 OA
ENDBRANCH  16  18
ENDBRANCH  15  16
ENDBRANCH  14  15
ENDBRANCH  13  14
ENDBRANCH   1  13
BRANCH   2  19
ATOM     19  O   UNL     1     -12.192  14.343  65.958  0.00  0.00    -0.376 OA
BRANCH  19  20
ATOM     20  C   UNL     1     -12.026  13.057  65.419  0.00  0.00    +0.259 C 
BRANCH  20  21
ATOM     21  C   UNL     1     -11.938  13.044  63.918  0.00  0.00    +0.159 C 
ATOM     22  N   UNL     1     -12.868  12.065  63.375  0.00  0.00    -0.127 NA
ENDBRANCH  20  21
ENDBRANCH  19  20
ENDBRANCH   2  19
TORSDOF 10
ENDMDL
MODEL 2
REMARK VINA RESULT:      -6.0      1.967      4.353
REMARK  Name = 
REMARK  10 active torsions:
REMARK  status: ('A' for Active; 'I' for Inactive)
REMARK    1  A    between atoms: O_2  and  C_3
REMARK    2  A    between atoms: C_3  and  C_4
REMARK    3  A    between atoms: C_4  and  C_5
REMARK    4  A    between atoms: C_5  and  C_6
REMARK    5  A    between atoms: C_6  and  C_7
REMARK    6  A    between atoms: C_7  and  C_13
REMARK    7  A    between atoms: N_8  and  O_9
REMARK    8  A    between atoms: O_9  and  C_10
REMARK    9  A    between atoms: C_10  and  C_11
REMARK   10  A    between atoms: C_16  and  C_17
REMARK                            x       y       z     vdW  Elec       q    Type
REMARK                         _______ _______ _______ _____ _____    ______ ____
ROOT
ATOM      1  C   UNL     1     -10.363  15.542  68.030  0.00  0.00    +0.097 C 
ATOM      2  N   UNL     1     -10.009  16.748  67.698  0.00  0.00    -0.087 NA
ENDROOT
BRANCH   1   3
ATOM      3  C   UNL     1     -11.362  15.458  69.103  0.00  0.00    +0.017 A 
ATOM      4  C   UNL     1     -11.039  16.122  70.278  0.00  0.00    +0.001 A 
ATOM      5  C   UNL     1     -11.928  16.039  71.328  0.00  0.00    +0.004 A 
ATOM      6  C   UNL     1     -12.480  14.790  71.566  0.00  0.00    +0.071 A 
ATOM      7  C   UNL     1     -12.602  13.919  70.512  0.00  0.00    +0.004 A 
ATOM      8  C   UNL     1     -12.112  14.300  69.269  0.00  0.00    +0.001 A 
BRANCH   6   9
ATOM      9  C   UNL     1     -13.200  14.618  72.856  0.00  0.00    +0.419 C 
ATOM     10  F   UNL     1     -13.750  13.352  72.864  0.00  0.00    -0.166 F 
ATOM     11  F   UNL     1     -12.260  14.646  73.876  0.00  0.00    -0.166 F 
ATOM     12  F   UNL     1     -14.140  15.610  73.017  0.00  0.00    -0.166 F 
ENDBRANCH   6   9
ENDBRANCH   1   3
BRANCH   1  13
ATOM     13  C   UNL     1     -10.006  14.342  67.241  0.00  0.00    +0.049 C 
BRANCH  13  14
ATOM     14  C   UNL     1     -10.245  14.512  65.766  0.00  0.00    +0.009 C 
BRANCH  14  15
ATOM     15  C   UNL     1     -11.710  14.340  65.507  0.00  0.00    +0.032 C 
BRANCH  15  16
ATOM     16  C   UNL     1     -12.219  12.950  65.743  0.00  0.00    +0.142 C 
BRANCH  16  18
ATOM     17  C   UNL     1     -12.311  12.269  63.530  0.00  0.00    +0.174 C 
ATOM     18  O   UNL     1     -13.004  12.453  64.721  0.00  0.00    -0.351 OA
ENDBRANCH  16  18
ENDBRANCH  15  16
ENDBRANCH  14  15
ENDBRANCH  13  14
ENDBRANCH   1  13
BRANCH   2  19
ATOM     19  O   UNL     1     -10.894  17.804  67.706  0.00  0.00    -0.376 OA
BRANCH  19  20
ATOM     20  C   UNL     1     -10.516  19.150  67.579  0.00  0.00    +0.259 C 
BRANCH  20  21
ATOM     21  C   UNL     1     -10.194  19.551  66.167  0.00  0.00    +0.159 C 
ATOM     22  N   UNL     1      -8.757  19.485  65.947  0.00  0.00    -0.127 NA
ENDBRANCH  20  21
ENDBRANCH  19  20
ENDBRANCH   2  19
TORSDOF 10
ENDMDL
MODEL 3
REMARK VINA RESULT:      -5.8      2.353      4.328
REMARK  Name = 
REMARK  10 active torsions:
REMARK  status: ('A' for Active; 'I' for Inactive)
REMARK    1  A    between atoms: O_2  and  C_3
REMARK    2  A    between atoms: C_3  and  C_4
REMARK    3  A    between atoms: C_4  and  C_5
REMARK    4  A    between atoms: C_5  and  C_6
REMARK    5  A    between atoms: C_6  and  C_7
REMARK    6  A    between atoms: C_7  and  C_13
REMARK    7  A    between atoms: N_8  and  O_9
REMARK    8  A    between atoms: O_9  and  C_10
REMARK    9  A    between atoms: C_10  and  C_11
REMARK   10  A    between atoms: C_16  and  C_17
REMARK                            x       y       z     vdW  Elec       q    Type
REMARK                         _______ _______ _______ _____ _____    ______ ____
ROOT
ATOM      1  C   UNL     1     -10.777  13.484  68.276  0.00  0.00    +0.097 C 
ATOM      2  N   UNL     1     -10.974  13.946  67.076  0.00  0.00    -0.087 NA
ENDROOT
BRANCH   1   3
ATOM      3  C   UNL     1     -11.516  14.174  69.340  0.00  0.00    +0.017 A 
ATOM      4  C   UNL     1     -10.867  15.257  69.917  0.00  0.00    +0.001 A 
ATOM      5  C   UNL     1     -11.504  15.913  70.947  0.00  0.00    +0.004 A 
ATOM      6  C   UNL     1     -12.128  15.112  71.891  0.00  0.00    +0.071 A 
ATOM      7  C   UNL     1     -12.577  13.875  71.502  0.00  0.00    +0.004 A 
ATOM      8  C   UNL     1     -12.336  13.455  70.200  0.00  0.00    +0.001 A 
BRANCH   6   9
ATOM      9  C   UNL     1     -12.558  15.780  73.149  0.00  0.00    +0.419 C 
ATOM     10  F   UNL     1     -13.924  15.964  73.080  0.00  0.00    -0.166 F 
ATOM     11  F   UNL     1     -12.330  14.902  74.198  0.00  0.00    -0.166 F 
ATOM     12  F   UNL     1     -11.869  16.958  73.326  0.00  0.00    -0.166 F 
ENDBRANCH   6   9
ENDBRANCH   1   3
BRANCH   1  13
ATOM     13  C   UNL     1     -10.077  12.210  68.552  0.00  0.00    +0.049 C 
BRANCH  13  14
ATOM     14  C   UNL     1     -10.690  11.033  67.845  0.00  0.00    +0.009 C 
BRANCH  14  15
ATOM     15  C   UNL     1     -11.534  10.284  68.829  0.00  0.00    +0.032 C 
BRANCH  15  16
ATOM     16  C   UNL     1     -10.825   9.916  70.097  0.00  0.00    +0.142 C 
BRANCH  16  18
ATOM     17  C   UNL     1     -12.906   9.852  71.115  0.00  0.00    +0.174 C 
ATOM     18  O   UNL     1     -11.555  10.156  71.245  0.00  0.00    -0.351 OA
ENDBRANCH  16  18
ENDBRANCH  15  16
ENDBRANCH  14  15
ENDBRANCH  13  14
ENDBRANCH   1  13
BRANCH   2  19
ATOM     19  O   UNL     1     -12.197  14.433  66.667  0.00  0.00    -0.376 OA
BRANCH  19  20
ATOM     20  C   UNL     1     -12.866  14.008  65.508  0.00  0.00    +0.259 C 
BRANCH  20  21
ATOM     21  C   UNL     1     -12.360  12.699  64.970  0.00  0.00    +0.159 C 
ATOM     22  N   UNL     1     -12.513  12.664  63.523  0.00  0.00    -0.127 NA
ENDBRANCH  20  21
ENDBRANCH  19  20
ENDBRANCH   2  19
TORSDOF 10
ENDMDL
MODEL 4
REMARK VINA RESULT:      -5.8      4.448      6.990
REMARK  Name = 
REMARK  10 active torsions:
REMARK  status: ('A' for Active; 'I' for Inactive)
REMARK    1  A    between atoms: O_2  and  C_3
REMARK    2  A    between atoms: C_3  and  C_4
REMARK    3  A    between atoms: C_4  and  C_5
REMARK    4  A    between atoms: C_5  and  C_6
REMARK    5  A    between atoms: C_6  and  C_7
REMARK    6  A    between atoms: C_7  and  C_13
REMARK    7  A    between atoms: N_8  and  O_9
REMARK    8  A    between atoms: O_9  and  C_10
REMARK    9  A    between atoms: C_10  and  C_11
REMARK   10  A    between atoms: C_16  and  C_17
REMARK                            x       y       z     vdW  Elec       q    Type
REMARK                         _______ _______ _______ _____ _____    ______ ____
ROOT
ATOM      1  C   UNL     1     -11.164  16.218  68.292  0.00  0.00    +0.097 C 
ATOM      2  N   UNL     1     -12.110  16.141  69.180  0.00  0.00    -0.087 NA
ENDROOT
BRANCH   1   3
ATOM      3  C   UNL     1     -10.115  17.203  68.581  0.00  0.00    +0.017 A 
ATOM      4  C   UNL     1     -10.299  18.458  68.016  0.00  0.00    +0.001 A 
ATOM      5  C   UNL     1      -9.321  19.406  68.226  0.00  0.00    +0.004 A 
ATOM      6  C   UNL     1      -8.010  18.969  68.118  0.00  0.00    +0.071 A 
ATOM      7  C   UNL     1      -7.738  17.651  68.388  0.00  0.00    +0.004 A 
ATOM      8  C   UNL     1      -8.791  16.800  68.698  0.00  0.00    +0.001 A 
BRANCH   6   9
ATOM      9  C   UNL     1      -6.962  20.022  68.048  0.00  0.00    +0.419 C 
ATOM     10  F   UNL     1      -6.572  20.313  69.339  0.00  0.00    -0.166 F 
ATOM     11  F   UNL     1      -5.854  19.481  67.413  0.00  0.00    -0.166 F 
ATOM     12  F   UNL     1      -7.435  21.124  67.372  0.00  0.00    -0.166 F 
ENDBRANCH   6   9
ENDBRANCH   1   3
BRANCH   1  13
ATOM     13  C   UNL     1     -10.989  15.232  67.203  0.00  0.00    +0.049 C 
BRANCH  13  14
ATOM     14  C   UNL     1     -11.908  14.048  67.322  0.00  0.00    +0.009 C 
BRANCH  14  15
ATOM     15  C   UNL     1     -12.116  13.477  65.953  0.00  0.00    +0.032 C 
BRANCH  15  16
ATOM     16  C   UNL     1     -12.215  14.502  64.865  0.00  0.00    +0.142 C 
BRANCH  16  18
ATOM     17  C   UNL     1     -12.140  12.667  63.452  0.00  0.00    +0.174 C 
ATOM     18  O   UNL     1     -12.546  13.986  63.628  0.00  0.00    -0.351 OA
ENDBRANCH  16  18
ENDBRANCH  15  16
ENDBRANCH  14  15
ENDBRANCH  13  14
ENDBRANCH   1  13
BRANCH   2  19
ATOM     19  O   UNL     1     -11.870  16.307  70.527  0.00  0.00    -0.376 OA
BRANCH  19  20
ATOM     20  C   UNL     1     -11.812  15.253  71.453  0.00  0.00    +0.259 C 
BRANCH  20  21
ATOM     21  C   UNL     1     -12.758  15.418  72.610  0.00  0.00    +0.159 C 
ATOM     22  N   UNL     1     -14.087  15.751  72.120  0.00  0.00    -0.127 NA
ENDBRANCH  20  21
ENDBRANCH  19  20
ENDBRANCH   2  19
TORSDOF 10
ENDMDL
MODEL 5
REMARK VINA RESULT:      -5.7      2.792      4.359
REMARK  Name = 
REMARK  10 active torsions:
REMARK  status: ('A' for Active; 'I' for Inactive)
REMARK    1  A    between atoms: O_2  and  C_3
REMARK    2  A    between atoms: C_3  and  C_4
REMARK    3  A    between atoms: C_4  and  C_5
REMARK    4  A    between atoms: C_5  and  C_6
REMARK    5  A    between atoms: C_6  and  C_7
REMARK    6  A    between atoms: C_7  and  C_13
REMARK    7  A    between atoms: N_8  and  O_9
REMARK    8  A    between atoms: O_9  and  C_10
REMARK    9  A    between atoms: C_10  and  C_11
REMARK   10  A    between atoms: C_16  and  C_17
REMARK                            x       y       z     vdW  Elec       q    Type
REMARK                         _______ _______ _______ _____ _____    ______ ____
ROOT
ATOM      1  C   UNL     1     -11.577  13.648  68.240  0.00  0.00    +0.097 C 
ATOM      2  N   UNL     1     -11.164  12.436  68.013  0.00  0.00    -0.087 NA
ENDROOT
BRANCH   1   3
ATOM      3  C   UNL     1     -11.549  14.064  69.648  0.00  0.00    +0.017 A 
ATOM      4  C   UNL     1     -12.609  13.621  70.426  0.00  0.00    +0.001 A 
ATOM      5  C   UNL     1     -12.648  14.018  71.745  0.00  0.00    +0.004 A 
ATOM      6  C   UNL     1     -12.333  15.344  71.995  0.00  0.00    +0.071 A 
ATOM      7  C   UNL     1     -11.493  15.990  71.123  0.00  0.00    +0.004 A 
ATOM      8  C   UNL     1     -11.044  15.310  69.998  0.00  0.00    +0.001 A 
BRANCH   6   9
ATOM      9  C   UNL     1     -12.654  15.858  73.354  0.00  0.00    +0.419 C 
ATOM     10  F   UNL     1     -11.921  17.011  73.550  0.00  0.00    -0.166 F 
ATOM     11  F   UNL     1     -13.989  16.233  73.364  0.00  0.00    -0.166 F 
ATOM     12  F   UNL     1     -12.399  14.895  74.303  0.00  0.00    -0.166 F 
ENDBRANCH   6   9
ENDBRANCH   1   3
BRANCH   1  13
ATOM     13  C   UNL     1     -11.815  14.640  67.169  0.00  0.00    +0.049 C 
BRANCH  13  14
ATOM     14  C   UNL     1     -10.590  14.928  66.346  0.00  0.00    +0.009 C 
BRANCH  14  15
ATOM     15  C   UNL     1     -10.967  14.839  64.899  0.00  0.00    +0.032 C 
BRANCH  15  16
ATOM     16  C   UNL     1     -12.343  14.300  64.651  0.00  0.00    +0.142 C 
BRANCH  16  18
ATOM     17  C   UNL     1     -12.236  12.341  63.419  0.00  0.00    +0.174 C 
ATOM     18  O   UNL     1     -12.505  13.705  63.416  0.00  0.00    -0.351 OA
ENDBRANCH  16  18
ENDBRANCH  15  16
ENDBRANCH  14  15
ENDBRANCH  13  14
ENDBRANCH   1  13
BRANCH   2  19
ATOM     19  O   UNL     1     -10.141  11.860  68.735  0.00  0.00    -0.376 OA
BRANCH  19  20
ATOM     20  C   UNL     1     -10.140  10.525  69.171  0.00  0.00    +0.259 C 
BRANCH  20  21
ATOM     21  C   UNL     1     -11.431  10.104  69.817  0.00  0.00    +0.159 C 
ATOM     22  N   UNL     1     -11.183   9.664  71.182  0.00  0.00    -0.127 NA
ENDBRANCH  20  21
ENDBRANCH  19  20
ENDBRANCH   2  19
TORSDOF 10
ENDMDL
MODEL 6
REMARK VINA RESULT:      -5.7      4.120      6.295
REMARK  Name = 
REMARK  10 active torsions:
REMARK  status: ('A' for Active; 'I' for Inactive)
REMARK    1  A    between atoms: O_2  and  C_3
REMARK    2  A    between atoms: C_3  and  C_4
REMARK    3  A    between atoms: C_4  and  C_5
REMARK    4  A    between atoms: C_5  and  C_6
REMARK    5  A    between atoms: C_6  and  C_7
REMARK    6  A    between atoms: C_7  and  C_13
REMARK    7  A    between atoms: N_8  and  O_9
REMARK    8  A    between atoms: O_9  and  C_10
REMARK    9  A    between atoms: C_10  and  C_11
REMARK   10  A    between atoms: C_16  and  C_17
REMARK                            x       y       z     vdW  Elec       q    Type
REMARK                         _______ _______ _______ _____ _____    ______ ____
ROOT
ATOM      1  C   UNL     1     -11.355  15.283  68.365  0.00  0.00    +0.097 C 
ATOM      2  N   UNL     1     -11.388  16.583  68.356  0.00  0.00    -0.087 NA
ENDROOT
BRANCH   1   3
ATOM      3  C   UNL     1     -11.192  14.653  67.049  0.00  0.00    +0.017 A 
ATOM      4  C   UNL     1     -12.352  14.147  66.477  0.00  0.00    +0.001 A 
ATOM      5  C   UNL     1     -12.243  13.511  65.260  0.00  0.00    +0.004 A 
ATOM      6  C   UNL     1     -11.167  12.651  65.111  0.00  0.00    +0.071 A 
ATOM      7  C   UNL     1     -10.033  12.892  65.847  0.00  0.00    +0.004 A 
ATOM      8  C   UNL     1     -10.034  13.946  66.752  0.00  0.00    +0.001 A 
BRANCH   6   9
ATOM      9  C   UNL     1     -11.199  11.745  63.932  0.00  0.00    +0.419 C 
ATOM     10  F   UNL     1     -10.279  12.214  63.017  0.00  0.00    -0.166 F 
ATOM     11  F   UNL     1     -10.748  10.498  64.339  0.00  0.00    -0.166 F 
ATOM     12  F   UNL     1     -12.474  11.671  63.418  0.00  0.00    -0.166 F 
ENDBRANCH   6   9
ENDBRANCH   1   3
BRANCH   1  13
ATOM     13  C   UNL     1     -11.228  14.481  69.602  0.00  0.00    +0.049 C 
BRANCH  13  14
ATOM     14  C   UNL     1     -12.511  14.390  70.382  0.00  0.00    +0.009 C 
BRANCH  14  15
ATOM     15  C   UNL     1     -12.424  15.340  71.537  0.00  0.00    +0.032 C 
BRANCH  15  16
ATOM     16  C   UNL     1     -13.722  15.560  72.253  0.00  0.00    +0.142 C 
BRANCH  16  18
ATOM     17  C   UNL     1     -12.493  15.660  74.215  0.00  0.00    +0.174 C 
ATOM     18  O   UNL     1     -13.590  16.133  73.503  0.00  0.00    -0.351 OA
ENDBRANCH  16  18
ENDBRANCH  15  16
ENDBRANCH  14  15
ENDBRANCH  13  14
ENDBRANCH   1  13
BRANCH   2  19
ATOM     19  O   UNL     1     -10.633  17.332  67.479  0.00  0.00    -0.376 OA
BRANCH  19  20
ATOM     20  C   UNL     1      -9.456  18.010  67.835  0.00  0.00    +0.259 C 
BRANCH  20  21
ATOM     21  C   UNL     1      -8.211  17.385  67.273  0.00  0.00    +0.159 C 
ATOM     22  N   UNL     1      -8.411  17.054  65.870  0.00  0.00    -0.127 NA
ENDBRANCH  20  21
ENDBRANCH  19  20
ENDBRANCH   2  19
TORSDOF 10
ENDMDL
MODEL 7
REMARK VINA RESULT:      -5.7      3.165      4.442
REMARK  Name = 
REMARK  10 active torsions:
REMARK  status: ('A' for Active; 'I' for Inactive)
REMARK    1  A    between atoms: O_2  and  C_3
REMARK    2  A    between atoms: C_3  and  C_4
REMARK    3  A    between atoms: C_4  and  C_5
REMARK    4  A    between atoms: C_5  and  C_6
REMARK    5  A    between atoms: C_6  and  C_7
REMARK    6  A    between atoms: C_7  and  C_13
REMARK    7  A    between atoms: N_8  and  O_9
REMARK    8  A    between atoms: O_9  and  C_10
REMARK    9  A    between atoms: C_10  and  C_11
REMARK   10  A    between atoms: C_16  and  C_17
REMARK                            x       y       z     vdW  Elec       q    Type
REMARK                         _______ _______ _______ _____ _____    ______ ____
ROOT
ATOM      1  C   UNL     1     -11.707  13.265  68.700  0.00  0.00    +0.097 C 
ATOM      2  N   UNL     1     -12.210  13.395  67.509  0.00  0.00    -0.087 NA
ENDROOT
BRANCH   1   3
ATOM      3  C   UNL     1     -11.748  11.905  69.251  0.00  0.00    +0.017 A 
ATOM      4  C   UNL     1     -12.375  11.774  70.483  0.00  0.00    +0.001 A 
ATOM      5  C   UNL     1     -12.404  10.523  71.059  0.00  0.00    +0.004 A 
ATOM      6  C   UNL     1     -11.232   9.787  70.987  0.00  0.00    +0.071 A 
ATOM      7  C   UNL     1     -10.376  10.026  69.941  0.00  0.00    +0.004 A 
ATOM      8  C   UNL     1     -10.689  11.032  69.036  0.00  0.00    +0.001 A 
BRANCH   6   9
ATOM      9  C   UNL     1     -11.154   8.577  71.849  0.00  0.00    +0.419 C 
ATOM     10  F   UNL     1     -11.011   7.482  71.021  0.00  0.00    -0.166 F 
ATOM     11  F   UNL     1      -9.989   8.660  72.597  0.00  0.00    -0.166 F 
ATOM     12  F   UNL     1     -12.263   8.493  72.660  0.00  0.00    -0.166 F 
ENDBRANCH   6   9
ENDBRANCH   1   3
BRANCH   1  13
ATOM     13  C   UNL     1     -10.917  14.322  69.370  0.00  0.00    +0.049 C 
BRANCH  13  14
ATOM     14  C   UNL     1     -11.672  15.612  69.531  0.00  0.00    +0.009 C 
BRANCH  14  15
ATOM     15  C   UNL     1     -12.080  15.739  70.967  0.00  0.00    +0.032 C 
BRANCH  15  16
ATOM     16  C   UNL     1     -13.495  15.333  71.244  0.00  0.00    +0.142 C 
BRANCH  16  18
ATOM     17  C   UNL     1     -13.054  15.956  73.432  0.00  0.00    +0.174 C 
ATOM     18  O   UNL     1     -14.007  15.830  72.427  0.00  0.00    -0.351 OA
ENDBRANCH  16  18
ENDBRANCH  15  16
ENDBRANCH  14  15
ENDBRANCH  13  14
ENDBRANCH   1  13
BRANCH   2  19
ATOM     19  O   UNL     1     -12.094  12.412  66.550  0.00  0.00    -0.376 OA
BRANCH  19  20
ATOM     20  C   UNL     1     -11.373  12.559  65.354  0.00  0.00    +0.259 C 
BRANCH  20  21
ATOM     21  C   UNL     1     -12.173  13.184  64.246  0.00  0.00    +0.159 C 
ATOM     22  N   UNL     1     -12.916  12.157  63.530  0.00  0.00    -0.127 NA
ENDBRANCH  20  21
ENDBRANCH  19  20
ENDBRANCH   2  19
TORSDOF 10
ENDMDL
MODEL 8
REMARK VINA RESULT:      -5.7      1.870      4.712
REMARK  Name = 
REMARK  10 active torsions:
REMARK  status: ('A' for Active; 'I' for Inactive)
REMARK    1  A    between atoms: O_2  and  C_3
REMARK    2  A    between atoms: C_3  and  C_4
REMARK    3  A    between atoms: C_4  and  C_5
REMARK    4  A    between atoms: C_5  and  C_6
REMARK    5  A    between atoms: C_6  and  C_7
REMARK    6  A    between atoms: C_7  and  C_13
REMARK    7  A    between atoms: N_8  and  O_9
REMARK    8  A    between atoms: O_9  and  C_10
REMARK    9  A    between atoms: C_10  and  C_11
REMARK   10  A    between atoms: C_16  and  C_17
REMARK                            x       y       z     vdW  Elec       q    Type
REMARK                         _______ _______ _______ _____ _____    ______ ____
ROOT
ATOM      1  C   UNL     1     -10.800  14.835  67.558  0.00  0.00    +0.097 C 
ATOM      2  N   UNL     1      -9.578  15.258  67.423  0.00  0.00    -0.087 NA
ENDROOT
BRANCH   1   3
ATOM      3  C   UNL     1     -11.242  14.637  68.943  0.00  0.00    +0.017 A 
ATOM      4  C   UNL     1     -11.679  13.357  69.257  0.00  0.00    +0.001 A 
ATOM      5  C   UNL     1     -12.141  13.132  70.535  0.00  0.00    +0.004 A 
ATOM      6  C   UNL     1     -12.961  14.111  71.072  0.00  0.00    +0.071 A 
ATOM      7  C   UNL     1     -12.811  15.402  70.629  0.00  0.00    +0.004 A 
ATOM      8  C   UNL     1     -11.890  15.662  69.623  0.00  0.00    +0.001 A 
BRANCH   6   9
ATOM      9  C   UNL     1     -13.699  13.753  72.313  0.00  0.00    +0.419 C 
ATOM     10  F   UNL     1     -15.022  14.099  72.130  0.00  0.00    -0.166 F 
ATOM     11  F   UNL     1     -13.667  12.373  72.445  0.00  0.00    -0.166 F 
ATOM     12  F   UNL     1     -13.131  14.372  73.404  0.00  0.00    -0.166 F 
ENDBRANCH   6   9
ENDBRANCH   1   3
BRANCH   1  13
ATOM     13  C   UNL     1     -11.774  14.795  66.445  0.00  0.00    +0.049 C 
BRANCH  13  14
ATOM     14  C   UNL     1     -11.278  14.028  65.251  0.00  0.00    +0.009 C 
BRANCH  14  15
ATOM     15  C   UNL     1     -12.246  12.920  64.970  0.00  0.00    +0.032 C 
BRANCH  15  16
ATOM     16  C   UNL     1     -12.058  12.259  63.639  0.00  0.00    +0.142 C 
BRANCH  16  18
ATOM     17  C   UNL     1     -10.209  10.863  63.585  0.00  0.00    +0.174 C 
ATOM     18  O   UNL     1     -10.738  12.108  63.262  0.00  0.00    -0.351 OA
ENDBRANCH  16  18
ENDBRANCH  15  16
ENDBRANCH  14  15
ENDBRANCH  13  14
ENDBRANCH   1  13
BRANCH   2  19
ATOM     19  O   UNL     1      -9.000  16.137  68.313  0.00  0.00    -0.376 OA
BRANCH  19  20
ATOM     20  C   UNL     1      -8.727  17.484  68.025  0.00  0.00    +0.259 C 
BRANCH  20  21
ATOM     21  C   UNL     1      -9.750  18.435  68.580  0.00  0.00    +0.159 C 
ATOM     22  N   UNL     1     -10.818  18.636  67.611  0.00  0.00    -0.127 NA
ENDBRANCH  20  21
ENDBRANCH  19  20
ENDBRANCH   2  19
TORSDOF 10
ENDMDL
MODEL 9
REMARK VINA RESULT:      -5.4      4.078      6.136
REMARK  Name = 
REMARK  10 active torsions:
REMARK  status: ('A' for Active; 'I' for Inactive)
REMARK    1  A    between atoms: O_2  and  C_3
REMARK    2  A    between atoms: C_3  and  C_4
REMARK    3  A    between atoms: C_4  and  C_5
REMARK    4  A    between atoms: C_5  and  C_6
REMARK    5  A    between atoms: C_6  and  C_7
REMARK    6  A    between atoms: C_7  and  C_13
REMARK    7  A    between atoms: N_8  and  O_9
REMARK    8  A    between atoms: O_9  and  C_10
REMARK    9  A    between atoms: C_10  and  C_11
REMARK   10  A    between atoms: C_16  and  C_17
REMARK                            x       y       z     vdW  Elec       q    Type
REMARK                         _______ _______ _______ _____ _____    ______ ____
ROOT
ATOM      1  C   UNL     1     -10.941  15.731  68.294  0.00  0.00    +0.097 C 
ATOM      2  N   UNL     1     -11.060  14.826  67.368  0.00  0.00    -0.087 NA
ENDROOT
BRANCH   1   3
ATOM      3  C   UNL     1      -9.954  16.782  68.018  0.00  0.00    +0.017 A 
ATOM      4  C   UNL     1      -8.648  16.491  68.389  0.00  0.00    +0.001 A 
ATOM      5  C   UNL     1      -7.692  17.462  68.186  0.00  0.00    +0.004 A 
ATOM      6  C   UNL     1      -8.054  18.758  68.517  0.00  0.00    +0.071 A 
ATOM      7  C   UNL     1      -9.382  19.099  68.455  0.00  0.00    +0.004 A 
ATOM      8  C   UNL     1     -10.311  18.120  68.124  0.00  0.00    +0.001 A 
BRANCH   6   9
ATOM      9  C   UNL     1      -6.955  19.758  68.585  0.00  0.00    +0.419 C 
ATOM     10  F   UNL     1      -6.811  20.134  69.905  0.00  0.00    -0.166 F 
ATOM     11  F   UNL     1      -5.777  19.122  68.225  0.00  0.00    -0.166 F 
ATOM     12  F   UNL     1      -7.222  20.822  67.753  0.00  0.00    -0.166 F 
ENDBRANCH   6   9
ENDBRANCH   1   3
BRANCH   1  13
ATOM     13  C   UNL     1     -11.887  15.867  69.424  0.00  0.00    +0.049 C 
BRANCH  13  14
ATOM     14  C   UNL     1     -11.241  15.660  70.765  0.00  0.00    +0.009 C 
BRANCH  14  15
ATOM     15  C   UNL     1     -12.301  15.771  71.818  0.00  0.00    +0.032 C 
BRANCH  15  16
ATOM     16  C   UNL     1     -13.664  15.343  71.368  0.00  0.00    +0.142 C 
BRANCH  16  18
ATOM     17  C   UNL     1     -13.664  13.206  72.266  0.00  0.00    +0.174 C 
ATOM     18  O   UNL     1     -14.287  14.449  72.218  0.00  0.00    -0.351 OA
ENDBRANCH  16  18
ENDBRANCH  15  16
ENDBRANCH  14  15
ENDBRANCH  13  14
ENDBRANCH   1  13
BRANCH   2  19
ATOM     19  O   UNL     1     -10.937  15.125  66.028  0.00  0.00    -0.376 OA
BRANCH  19  20
ATOM     20  C   UNL     1     -10.906  14.162  65.006  0.00  0.00    +0.259 C 
BRANCH  20  21
ATOM     21  C   UNL     1     -12.240  13.942  64.350  0.00  0.00    +0.159 C 
ATOM     22  N   UNL     1     -12.882  12.762  64.912  0.00  0.00    -0.127 NA
ENDBRANCH  20  21
ENDBRANCH  19  20
ENDBRANCH   2  19
TORSDOF 10
ENDMDL
