MODEL 1
REMARK VINA RESULT:      -6.1      0.000      0.000
REMARK  Name = 
REMARK  9 active torsions:
REMARK  status: ('A' for Active; 'I' for Inactive)
REMARK    1  A    between atoms: C_2  and  C_3
REMARK    2  A    between atoms: N_5  and  C_6
REMARK    3  A    between atoms: N_5  and  C_12
REMARK    4  A    between atoms: C_12  and  C_13
REMARK    5  A    between atoms: C_13  and  O_15
REMARK    6  A    between atoms: N_19  and  C_20
REMARK    7  A    between atoms: C_20  and  C_21
REMARK    8  A    between atoms: C_21  and  C_22
REMARK    9  A    between atoms: C_22  and  O_24
REMARK                            x       y       z     vdW  Elec       q    Type
REMARK                         _______ _______ _______ _____ _____    ______ ____
ROOT
ATOM      1  C   UNL     1      -9.115  16.939  67.168  0.00  0.00    +0.156 C 
ATOM      2  C   UNL     1      -8.827  15.819  66.184  0.00  0.00    +0.047 C 
ATOM      3  C   UNL     1      -8.478  14.553  66.934  0.00  0.00    +0.074 C 
ATOM      4  N   UNL     1      -9.705  14.014  67.516  0.00  0.00    -0.272 NA
ATOM      5  C   UNL     1     -10.409  15.124  68.141  0.00  0.00    +0.074 C 
ATOM      6  C   UNL     1      -9.452  16.260  68.490  0.00  0.00    +0.047 C 
ENDROOT
BRANCH   1   8
ATOM      7  C   UNL     1      -7.336  17.952  68.541  0.00  0.00    +0.230 C 
ATOM      8  N   UNL     1      -7.989  17.825  67.277  0.00  0.00    -0.252 N 
ATOM      9  O   UNL     1      -7.340  19.069  69.095  0.00  0.00    -0.275 OA
BRANCH   8  10
ATOM     10  C   UNL     1      -7.210  18.213  66.138  0.00  0.00    +0.054 A 
ATOM     11  C   UNL     1      -7.338  19.522  65.688  0.00  0.00    +0.015 A 
ATOM     12  C   UNL     1      -6.255  20.228  65.182  0.00  0.00    +0.001 A 
ATOM     13  C   UNL     1      -5.037  19.605  65.017  0.00  0.00    +0.000 A 
ATOM     14  C   UNL     1      -5.002  18.232  65.162  0.00  0.00    +0.001 A 
ATOM     15  C   UNL     1      -5.931  17.679  66.034  0.00  0.00    +0.015 A 
ENDBRANCH   8  10
BRANCH   7  17
ATOM     16  C   UNL     1      -5.539  17.029  69.990  0.00  0.00    +0.010 C 
ATOM     17  C   UNL     1      -6.864  16.783  69.321  0.00  0.00    +0.086 C 
ENDBRANCH   7  17
ENDBRANCH   1   8
BRANCH   1  18
ATOM     18  C   UNL     1     -10.267  17.700  66.628  0.00  0.00    +0.334 C 
ATOM     19  O   UNL     1     -10.533  17.708  65.389  0.00  0.00    -0.248 OA
BRANCH  18  20
ATOM     20  O   UNL     1     -10.860  18.635  67.458  0.00  0.00    -0.443 OA
ATOM     21  C   UNL     1     -10.548  20.003  67.357  0.00  0.00    +0.256 C 
ENDBRANCH  18  20
ENDBRANCH   1  18
BRANCH   4  22
ATOM     22  C   UNL     1     -10.493  13.440  66.457  0.00  0.00    +0.084 C 
BRANCH  22  23
ATOM     23  C   UNL     1     -11.766  14.187  66.182  0.00  0.00    +0.127 C 
BRANCH  23  24
ATOM     24  C   UNL     1     -12.226  14.050  64.772  0.00  0.00    +0.319 C 
ATOM     25  O   UNL     1     -12.615  15.070  64.128  0.00  0.00    -0.250 OA
BRANCH  24  26
ATOM     26  O   UNL     1     -12.907  12.866  64.469  0.00  0.00    -0.444 OA
ATOM     27  C   UNL     1     -12.484  11.981  63.456  0.00  0.00    +0.256 C 
ENDBRANCH  24  26
ENDBRANCH  23  24
ENDBRANCH  22  23
ENDBRANCH   4  22
TORSDOF 9
ENDMDL
MODEL 2
REMARK VINA RESULT:      -6.0      3.428      6.451
REMARK  Name = 
REMARK  9 active torsions:
REMARK  status: ('A' for Active; 'I' for Inactive)
REMARK    1  A    between atoms: C_2  and  C_3
REMARK    2  A    between atoms: N_5  and  C_6
REMARK    3  A    between atoms: N_5  and  C_12
REMARK    4  A    between atoms: C_12  and  C_13
REMARK    5  A    between atoms: C_13  and  O_15
REMARK    6  A    between atoms: N_19  and  C_20
REMARK    7  A    between atoms: C_20  and  C_21
REMARK    8  A    between atoms: C_21  and  C_22
REMARK    9  A    between atoms: C_22  and  O_24
REMARK                            x       y       z     vdW  Elec       q    Type
REMARK                         _______ _______ _______ _____ _____    ______ ____
ROOT
ATOM      1  C   UNL     1     -10.596  14.222  67.961  0.00  0.00    +0.156 C 
ATOM      2  C   UNL     1     -10.628  15.578  68.643  0.00  0.00    +0.047 C 
ATOM      3  C   UNL     1     -11.998  15.826  69.231  0.00  0.00    +0.074 C 
ATOM      4  N   UNL     1     -12.144  14.988  70.419  0.00  0.00    -0.272 NA
ATOM      5  C   UNL     1     -11.673  13.657  70.067  0.00  0.00    +0.074 C 
ATOM      6  C   UNL     1     -11.747  13.423  68.561  0.00  0.00    +0.047 C 
ENDROOT
BRANCH   1   8
ATOM      7  C   UNL     1     -10.035  15.447  65.896  0.00  0.00    +0.230 C 
ATOM      8  N   UNL     1     -10.711  14.363  66.536  0.00  0.00    -0.252 N 
ATOM      9  O   UNL     1     -10.724  16.299  65.302  0.00  0.00    -0.275 OA
BRANCH   8  10
ATOM     10  C   UNL     1     -11.049  13.260  65.684  0.00  0.00    +0.054 A 
ATOM     11  C   UNL     1     -12.383  13.110  65.327  0.00  0.00    +0.015 A 
ATOM     12  C   UNL     1     -12.754  12.661  64.066  0.00  0.00    +0.001 A 
ATOM     13  C   UNL     1     -11.795  12.248  63.168  0.00  0.00    +0.000 A 
ATOM     14  C   UNL     1     -10.506  12.096  63.640  0.00  0.00    +0.001 A 
ATOM     15  C   UNL     1     -10.134  12.919  64.695  0.00  0.00    +0.015 A 
ENDBRANCH   8  10
BRANCH   7  17
ATOM     16  C   UNL     1      -8.317  17.191  66.326  0.00  0.00    +0.010 C 
ATOM     17  C   UNL     1      -8.594  15.729  66.104  0.00  0.00    +0.086 C 
ENDBRANCH   7  17
ENDBRANCH   1   8
BRANCH   1  18
ATOM     18  C   UNL     1      -9.280  13.614  68.273  0.00  0.00    +0.334 C 
ATOM     19  O   UNL     1      -9.059  12.381  68.077  0.00  0.00    -0.248 OA
BRANCH  18  20
ATOM     20  O   UNL     1      -8.407  14.347  69.056  0.00  0.00    -0.443 OA
ATOM     21  C   UNL     1      -7.019  14.122  69.008  0.00  0.00    +0.256 C 
ENDBRANCH  18  20
ENDBRANCH   1  18
BRANCH   4  22
ATOM     22  C   UNL     1     -11.340  15.554  71.471  0.00  0.00    +0.084 C 
BRANCH  22  23
ATOM     23  C   UNL     1     -12.142  16.261  72.526  0.00  0.00    +0.127 C 
BRANCH  23  24
ATOM     24  C   UNL     1     -13.376  15.521  72.909  0.00  0.00    +0.319 C 
ATOM     25  O   UNL     1     -13.312  14.291  73.206  0.00  0.00    -0.250 OA
BRANCH  24  26
ATOM     26  O   UNL     1     -14.546  15.908  72.248  0.00  0.00    -0.444 OA
ATOM     27  C   UNL     1     -15.299  15.022  71.449  0.00  0.00    +0.256 C 
ENDBRANCH  24  26
ENDBRANCH  23  24
ENDBRANCH  22  23
ENDBRANCH   4  22
TORSDOF 9
ENDMDL
MODEL 3
REMARK VINA RESULT:      -5.9      2.008      6.740
REMARK  Name = 
REMARK  9 active torsions:
REMARK  status: ('A' for Active; 'I' for Inactive)
REMARK    1  A    between atoms: C_2  and  C_3
REMARK    2  A    between atoms: N_5  and  C_6
REMARK    3  A    between atoms: N_5  and  C_12
REMARK    4  A    between atoms: C_12  and  C_13
REMARK    5  A    between atoms: C_13  and  O_15
REMARK    6  A    between atoms: N_19  and  C_20
REMARK    7  A    between atoms: C_20  and  C_21
REMARK    8  A    between atoms: C_21  and  C_22
REMARK    9  A    between atoms: C_22  and  O_24
REMARK                            x       y       z     vdW  Elec       q    Type
REMARK                         _______ _______ _______ _____ _____    ______ ____
ROOT
ATOM      1  C   UNL     1      -9.542  16.277  67.268  0.00  0.00    +0.156 C 
ATOM      2  C   UNL     1      -9.144  16.750  68.654  0.00  0.00    +0.047 C 
ATOM      3  C   UNL     1      -7.705  16.380  68.931  0.00  0.00    +0.074 C 
ATOM      4  N   UNL     1      -6.848  17.269  68.150  0.00  0.00    -0.272 NA
ATOM      5  C   UNL     1      -7.397  17.324  66.803  0.00  0.00    +0.074 C 
ATOM      6  C   UNL     1      -8.239  16.089  66.499  0.00  0.00    +0.047 C 
ENDROOT
BRANCH   1   8
ATOM      7  C   UNL     1     -11.064  14.804  68.528  0.00  0.00    +0.230 C 
ATOM      8  N   UNL     1     -10.315  15.069  67.341  0.00  0.00    -0.252 N 
ATOM      9  O   UNL     1     -10.772  13.791  69.193  0.00  0.00    -0.275 OA
BRANCH   8  10
ATOM     10  C   UNL     1     -10.752  14.370  66.168  0.00  0.00    +0.054 A 
ATOM     11  C   UNL     1      -9.995  13.283  65.749  0.00  0.00    +0.015 A 
ATOM     12  C   UNL     1     -10.585  12.153  65.197  0.00  0.00    +0.001 A 
ATOM     13  C   UNL     1     -11.941  12.128  64.953  0.00  0.00    +0.000 A 
ATOM     14  C   UNL     1     -12.629  13.319  65.071  0.00  0.00    +0.001 A 
ATOM     15  C   UNL     1     -12.123  14.237  65.983  0.00  0.00    +0.015 A 
ENDBRANCH   8  10
BRANCH   7  17
ATOM     16  C   UNL     1     -12.228  15.556  70.592  0.00  0.00    +0.010 C 
ATOM     17  C   UNL     1     -12.001  15.787  69.122  0.00  0.00    +0.086 C 
ENDBRANCH   7  17
ENDBRANCH   1   8
BRANCH   1  18
ATOM     18  C   UNL     1     -10.384  17.344  66.674  0.00  0.00    +0.334 C 
ATOM     19  O   UNL     1     -10.522  17.456  65.419  0.00  0.00    -0.248 OA
BRANCH  18  20
ATOM     20  O   UNL     1     -10.770  18.387  67.498  0.00  0.00    -0.443 OA
ATOM     21  C   UNL     1     -10.629  19.726  67.093  0.00  0.00    +0.256 C 
ENDBRANCH  18  20
ENDBRANCH   1  18
BRANCH   4  22
ATOM     22  C   UNL     1      -6.869  18.572  68.765  0.00  0.00    +0.084 C 
BRANCH  22  23
ATOM     23  C   UNL     1      -6.980  19.700  67.779  0.00  0.00    +0.127 C 
BRANCH  23  24
ATOM     24  C   UNL     1      -6.087  20.845  68.106  0.00  0.00    +0.319 C 
ATOM     25  O   UNL     1      -5.914  21.776  67.263  0.00  0.00    -0.250 OA
BRANCH  24  26
ATOM     26  O   UNL     1      -4.966  20.537  68.883  0.00  0.00    -0.444 OA
ATOM     27  C   UNL     1      -4.708  21.152  70.126  0.00  0.00    +0.256 C 
ENDBRANCH  24  26
ENDBRANCH  23  24
ENDBRANCH  22  23
ENDBRANCH   4  22
TORSDOF 9
ENDMDL
MODEL 4
REMARK VINA RESULT:      -5.8      3.412      6.049
REMARK  Name = 
REMARK  9 active torsions:
REMARK  status: ('A' for Active; 'I' for Inactive)
REMARK    1  A    between atoms: C_2  and  C_3
REMARK    2  A    between atoms: N_5  and  C_6
REMARK    3  A    between atoms: N_5  and  C_12
REMARK    4  A    between atoms: C_12  and  C_13
REMARK    5  A    between atoms: C_13  and  O_15
REMARK    6  A    between atoms: N_19  and  C_20
REMARK    7  A    between atoms: C_20  and  C_21
REMARK    8  A    between atoms: C_21  and  C_22
REMARK    9  A    between atoms: C_22  and  O_24
REMARK                            x       y       z     vdW  Elec       q    Type
REMARK                         _______ _______ _______ _____ _____    ______ ____
ROOT
ATOM      1  C   UNL     1     -10.414  14.267  67.707  0.00  0.00    +0.156 C 
ATOM      2  C   UNL     1     -10.059  15.414  68.636  0.00  0.00    +0.047 C 
ATOM      3  C   UNL     1     -11.313  16.157  69.039  0.00  0.00    +0.074 C 
ATOM      4  N   UNL     1     -12.046  15.330  69.994  0.00  0.00    -0.272 NA
ATOM      5  C   UNL     1     -12.076  13.977  69.459  0.00  0.00    +0.074 C 
ATOM      6  C   UNL     1     -11.891  13.977  67.944  0.00  0.00    +0.047 C 
ENDROOT
BRANCH   1   8
ATOM      7  C   UNL     1     -10.812  13.900  65.303  0.00  0.00    +0.230 C 
ATOM      8  N   UNL     1     -10.134  14.610  66.340  0.00  0.00    -0.252 N 
ATOM      9  O   UNL     1     -10.128  13.225  64.508  0.00  0.00    -0.275 OA
BRANCH   8  10
ATOM     10  C   UNL     1      -9.602  15.887  65.967  0.00  0.00    +0.054 A 
ATOM     11  C   UNL     1     -10.493  16.948  65.861  0.00  0.00    +0.015 A 
ATOM     12  C   UNL     1     -10.139  18.237  66.238  0.00  0.00    +0.001 A 
ATOM     13  C   UNL     1      -8.848  18.515  66.630  0.00  0.00    +0.000 A 
ATOM     14  C   UNL     1      -7.897  17.535  66.425  0.00  0.00    +0.001 A 
ATOM     15  C   UNL     1      -8.348  16.221  66.464  0.00  0.00    +0.015 A 
ENDBRANCH   8  10
BRANCH   7  17
ATOM     16  C   UNL     1     -12.720  12.530  64.489  0.00  0.00    +0.010 C 
ATOM     17  C   UNL     1     -12.286  13.741  65.269  0.00  0.00    +0.086 C 
ENDBRANCH   7  17
ENDBRANCH   1   8
BRANCH   1  18
ATOM     18  C   UNL     1      -9.557  13.120  68.093  0.00  0.00    +0.334 C 
ATOM     19  O   UNL     1      -8.339  13.280  68.406  0.00  0.00    -0.248 OA
BRANCH  18  20
ATOM     20  O   UNL     1     -10.028  11.848  67.817  0.00  0.00    -0.443 OA
ATOM     21  C   UNL     1      -9.875  10.797  68.738  0.00  0.00    +0.256 C 
ENDBRANCH  18  20
ENDBRANCH   1  18
BRANCH   4  22
ATOM     22  C   UNL     1     -11.347  15.367  71.253  0.00  0.00    +0.084 C 
BRANCH  22  23
ATOM     23  C   UNL     1     -12.048  16.177  72.306  0.00  0.00    +0.127 C 
BRANCH  23  24
ATOM     24  C   UNL     1     -13.259  15.501  72.846  0.00  0.00    +0.319 C 
ATOM     25  O   UNL     1     -13.202  14.286  73.204  0.00  0.00    -0.250 OA
BRANCH  24  26
ATOM     26  O   UNL     1     -14.476  15.892  72.279  0.00  0.00    -0.444 OA
ATOM     27  C   UNL     1     -15.248  15.037  71.464  0.00  0.00    +0.256 C 
ENDBRANCH  24  26
ENDBRANCH  23  24
ENDBRANCH  22  23
ENDBRANCH   4  22
TORSDOF 9
ENDMDL
MODEL 5
REMARK VINA RESULT:      -5.8      3.152      4.653
REMARK  Name = 
REMARK  9 active torsions:
REMARK  status: ('A' for Active; 'I' for Inactive)
REMARK    1  A    between atoms: C_2  and  C_3
REMARK    2  A    between atoms: N_5  and  C_6
REMARK    3  A    between atoms: N_5  and  C_12
REMARK    4  A    between atoms: C_12  and  C_13
REMARK    5  A    between atoms: C_13  and  O_15
REMARK    6  A    between atoms: N_19  and  C_20
REMARK    7  A    between atoms: C_20  and  C_21
REMARK    8  A    between atoms: C_21  and  C_22
REMARK    9  A    between atoms: C_22  and  O_24
REMARK                            x       y       z     vdW  Elec       q    Type
REMARK                         _______ _______ _______ _____ _____    ______ ____
ROOT
ATOM      1  C   UNL     1     -10.511  14.904  66.719  0.00  0.00    +0.156 C 
ATOM      2  C   UNL     1     -11.656  13.915  66.833  0.00  0.00    +0.047 C 
ATOM      3  C   UNL     1     -12.569  14.043  65.635  0.00  0.00    +0.074 C 
ATOM      4  N   UNL     1     -11.893  13.454  64.481  0.00  0.00    -0.272 NA
ATOM      5  C   UNL     1     -10.526  13.953  64.481  0.00  0.00    +0.074 C 
ATOM      6  C   UNL     1     -10.419  15.270  65.242  0.00  0.00    +0.047 C 
ENDROOT
BRANCH   1   8
ATOM      7  C   UNL     1     -11.298  15.851  68.854  0.00  0.00    +0.230 C 
ATOM      8  N   UNL     1     -10.738  16.050  67.555  0.00  0.00    -0.252 N 
ATOM      9  O   UNL     1     -12.407  16.363  69.101  0.00  0.00    -0.275 OA
BRANCH   8  10
ATOM     10  C   UNL     1     -10.029  17.282  67.372  0.00  0.00    +0.054 A 
ATOM     11  C   UNL     1     -10.568  18.208  66.487  0.00  0.00    +0.015 A 
ATOM     12  C   UNL     1     -10.491  19.574  66.725  0.00  0.00    +0.001 A 
ATOM     13  C   UNL     1      -9.777  20.051  67.803  0.00  0.00    +0.000 A 
ATOM     14  C   UNL     1      -8.983  19.151  68.486  0.00  0.00    +0.001 A 
ATOM     15  C   UNL     1      -9.410  17.829  68.489  0.00  0.00    +0.015 A 
ENDBRANCH   8  10
BRANCH   7  17
ATOM     16  C   UNL     1     -11.808  14.159  70.603  0.00  0.00    +0.010 C 
ATOM     17  C   UNL     1     -10.740  14.883  69.829  0.00  0.00    +0.086 C 
ENDBRANCH   7  17
ENDBRANCH   1   8
BRANCH   1  18
ATOM     18  C   UNL     1      -9.290  14.207  67.192  0.00  0.00    +0.334 C 
ATOM     19  O   UNL     1      -8.136  14.701  67.015  0.00  0.00    -0.248 OA
BRANCH  18  20
ATOM     20  O   UNL     1      -9.414  12.878  67.557  0.00  0.00    -0.443 OA
ATOM     21  C   UNL     1      -8.332  12.170  68.110  0.00  0.00    +0.256 C 
ENDBRANCH  18  20
ENDBRANCH   1  18
BRANCH   4  22
ATOM     22  C   UNL     1     -11.915  12.021  64.629  0.00  0.00    +0.084 C 
BRANCH  22  23
ATOM     23  C   UNL     1     -10.894  11.314  63.783  0.00  0.00    +0.127 C 
BRANCH  23  24
ATOM     24  C   UNL     1      -9.993  10.435  64.577  0.00  0.00    +0.319 C 
ATOM     25  O   UNL     1      -9.349   9.504  64.006  0.00  0.00    -0.250 OA
BRANCH  24  26
ATOM     26  O   UNL     1     -10.419  10.146  65.878  0.00  0.00    -0.444 OA
ATOM     27  C   UNL     1     -10.081   8.948  66.542  0.00  0.00    +0.256 C 
ENDBRANCH  24  26
ENDBRANCH  23  24
ENDBRANCH  22  23
ENDBRANCH   4  22
TORSDOF 9
ENDMDL
MODEL 6
REMARK VINA RESULT:      -5.7      3.345      5.285
REMARK  Name = 
REMARK  9 active torsions:
REMARK  status: ('A' for Active; 'I' for Inactive)
REMARK    1  A    between atoms: C_2  and  C_3
REMARK    2  A    between atoms: N_5  and  C_6
REMARK    3  A    between atoms: N_5  and  C_12
REMARK    4  A    between atoms: C_12  and  C_13
REMARK    5  A    between atoms: C_13  and  O_15
REMARK    6  A    between atoms: N_19  and  C_20
REMARK    7  A    between atoms: C_20  and  C_21
REMARK    8  A    between atoms: C_21  and  C_22
REMARK    9  A    between atoms: C_22  and  O_24
REMARK                            x       y       z     vdW  Elec       q    Type
REMARK                         _______ _______ _______ _____ _____    ______ ____
ROOT
ATOM      1  C   UNL     1      -9.567  15.514  68.182  0.00  0.00    +0.156 C 
ATOM      2  C   UNL     1      -9.740  15.609  69.687  0.00  0.00    +0.047 C 
ATOM      3  C   UNL     1     -11.075  16.237  70.014  0.00  0.00    +0.074 C 
ATOM      4  N   UNL     1     -12.121  15.254  69.743  0.00  0.00    -0.272 NA
ATOM      5  C   UNL     1     -11.830  14.663  68.445  0.00  0.00    +0.074 C 
ATOM      6  C   UNL     1     -10.971  15.593  67.594  0.00  0.00    +0.047 C 
ENDROOT
BRANCH   1   8
ATOM      7  C   UNL     1      -9.261  17.557  66.837  0.00  0.00    +0.230 C 
ATOM      8  N   UNL     1      -8.709  16.560  67.698  0.00  0.00    -0.252 N 
ATOM      9  O   UNL     1      -8.808  17.650  65.679  0.00  0.00    -0.275 OA
BRANCH   8  10
ATOM     10  C   UNL     1      -7.501  16.930  68.374  0.00  0.00    +0.054 A 
ATOM     11  C   UNL     1      -6.305  16.432  67.870  0.00  0.00    +0.015 A 
ATOM     12  C   UNL     1      -5.139  17.187  67.879  0.00  0.00    +0.001 A 
ATOM     13  C   UNL     1      -5.118  18.422  68.490  0.00  0.00    +0.000 A 
ATOM     14  C   UNL     1      -6.210  18.767  69.262  0.00  0.00    +0.001 A 
ATOM     15  C   UNL     1      -7.430  18.220  68.885  0.00  0.00    +0.015 A 
ENDBRANCH   8  10
BRANCH   7  17
ATOM     16  C   UNL     1     -10.225  19.786  67.371  0.00  0.00    +0.010 C 
ATOM     17  C   UNL     1     -10.489  18.317  67.173  0.00  0.00    +0.086 C 
ENDBRANCH   7  17
ENDBRANCH   1   8
BRANCH   1  18
ATOM     18  C   UNL     1      -8.925  14.207  67.904  0.00  0.00    +0.334 C 
ATOM     19  O   UNL     1      -8.128  13.672  68.732  0.00  0.00    -0.248 OA
BRANCH  18  20
ATOM     20  O   UNL     1      -8.978  13.732  66.605  0.00  0.00    -0.443 OA
ATOM     21  C   UNL     1      -9.433  12.432  66.322  0.00  0.00    +0.256 C 
ENDBRANCH  18  20
ENDBRANCH   1  18
BRANCH   4  22
ATOM     22  C   UNL     1     -12.081  14.255  70.780  0.00  0.00    +0.084 C 
BRANCH  22  23
ATOM     23  C   UNL     1     -13.436  13.891  71.316  0.00  0.00    +0.127 C 
BRANCH  23  24
ATOM     24  C   UNL     1     -13.860  14.753  72.453  0.00  0.00    +0.319 C 
ATOM     25  O   UNL     1     -14.361  15.896  72.232  0.00  0.00    -0.250 OA
BRANCH  24  26
ATOM     26  O   UNL     1     -13.072  14.668  73.605  0.00  0.00    -0.444 OA
ATOM     27  C   UNL     1     -12.475  15.796  74.206  0.00  0.00    +0.256 C 
ENDBRANCH  24  26
ENDBRANCH  23  24
ENDBRANCH  22  23
ENDBRANCH   4  22
TORSDOF 9
ENDMDL
MODEL 7
REMARK VINA RESULT:      -5.6      1.539      3.177
REMARK  Name = 
REMARK  9 active torsions:
REMARK  status: ('A' for Active; 'I' for Inactive)
REMARK    1  A    between atoms: C_2  and  C_3
REMARK    2  A    between atoms: N_5  and  C_6
REMARK    3  A    between atoms: N_5  and  C_12
REMARK    4  A    between atoms: C_12  and  C_13
REMARK    5  A    between atoms: C_13  and  O_15
REMARK    6  A    between atoms: N_19  and  C_20
REMARK    7  A    between atoms: C_20  and  C_21
REMARK    8  A    between atoms: C_21  and  C_22
REMARK    9  A    between atoms: C_22  and  O_24
REMARK                            x       y       z     vdW  Elec       q    Type
REMARK                         _______ _______ _______ _____ _____    ______ ____
ROOT
ATOM      1  C   UNL     1      -8.699  17.514  67.390  0.00  0.00    +0.156 C 
ATOM      2  C   UNL     1      -8.729  16.665  66.132  0.00  0.00    +0.047 C 
ATOM      3  C   UNL     1      -8.799  15.201  66.501  0.00  0.00    +0.074 C 
ATOM      4  N   UNL     1     -10.148  14.915  66.981  0.00  0.00    -0.272 NA
ATOM      5  C   UNL     1     -10.507  15.975  67.912  0.00  0.00    +0.074 C 
ATOM      6  C   UNL     1      -9.266  16.638  68.501  0.00  0.00    +0.047 C 
ENDROOT
BRANCH   1   8
ATOM      7  C   UNL     1      -6.591  18.529  66.614  0.00  0.00    +0.230 C 
ATOM      8  N   UNL     1      -7.364  17.964  67.673  0.00  0.00    -0.252 N 
ATOM      9  O   UNL     1      -5.540  17.948  66.278  0.00  0.00    -0.275 OA
BRANCH   8  10
ATOM     10  C   UNL     1      -6.940  18.310  68.998  0.00  0.00    +0.054 A 
ATOM     11  C   UNL     1      -6.062  17.444  69.638  0.00  0.00    +0.015 A 
ATOM     12  C   UNL     1      -5.055  17.913  70.473  0.00  0.00    +0.001 A 
ATOM     13  C   UNL     1      -4.971  19.256  70.770  0.00  0.00    +0.000 A 
ATOM     14  C   UNL     1      -6.030  20.057  70.394  0.00  0.00    +0.001 A 
ATOM     15  C   UNL     1      -6.735  19.658  69.265  0.00  0.00    +0.015 A 
ENDBRANCH   8  10
BRANCH   7  17
ATOM     16  C   UNL     1      -6.048  20.677  65.485  0.00  0.00    +0.010 C 
ATOM     17  C   UNL     1      -7.092  19.626  65.751  0.00  0.00    +0.086 C 
ENDBRANCH   7  17
ENDBRANCH   1   8
BRANCH   1  18
ATOM     18  C   UNL     1      -9.553  18.699  67.130  0.00  0.00    +0.334 C 
ATOM     19  O   UNL     1      -9.918  19.468  68.069  0.00  0.00    -0.248 OA
BRANCH  18  20
ATOM     20  O   UNL     1     -10.184  18.775  65.901  0.00  0.00    -0.443 OA
ATOM     21  C   UNL     1     -10.836  19.950  65.488  0.00  0.00    +0.256 C 
ENDBRANCH  18  20
ENDBRANCH   1  18
BRANCH   4  22
ATOM     22  C   UNL     1     -11.038  14.906  65.849  0.00  0.00    +0.084 C 
BRANCH  22  23
ATOM     23  C   UNL     1     -12.315  14.154  66.094  0.00  0.00    +0.127 C 
BRANCH  23  24
ATOM     24  C   UNL     1     -12.282  12.766  65.556  0.00  0.00    +0.319 C 
ATOM     25  O   UNL     1     -13.105  12.411  64.660  0.00  0.00    -0.250 OA
BRANCH  24  26
ATOM     26  O   UNL     1     -11.946  11.767  66.476  0.00  0.00    -0.444 OA
ATOM     27  C   UNL     1     -10.671  11.164  66.517  0.00  0.00    +0.256 C 
ENDBRANCH  24  26
ENDBRANCH  23  24
ENDBRANCH  22  23
ENDBRANCH   4  22
TORSDOF 9
ENDMDL
MODEL 8
REMARK VINA RESULT:      -5.6      2.586      6.653
REMARK  Name = 
REMARK  9 active torsions:
REMARK  status: ('A' for Active; 'I' for Inactive)
REMARK    1  A    between atoms: C_2  and  C_3
REMARK    2  A    between atoms: N_5  and  C_6
REMARK    3  A    between atoms: N_5  and  C_12
REMARK    4  A    between atoms: C_12  and  C_13
REMARK    5  A    between atoms: C_13  and  O_15
REMARK    6  A    between atoms: N_19  and  C_20
REMARK    7  A    between atoms: C_20  and  C_21
REMARK    8  A    between atoms: C_21  and  C_22
REMARK    9  A    between atoms: C_22  and  O_24
REMARK                            x       y       z     vdW  Elec       q    Type
REMARK                         _______ _______ _______ _____ _____    ______ ____
ROOT
ATOM      1  C   UNL     1      -9.780  15.440  67.296  0.00  0.00    +0.156 C 
ATOM      2  C   UNL     1      -9.434  16.232  66.049  0.00  0.00    +0.047 C 
ATOM      3  C   UNL     1     -10.539  17.216  65.741  0.00  0.00    +0.074 C 
ATOM      4  N   UNL     1     -10.464  18.306  66.712  0.00  0.00    -0.272 NA
ATOM      5  C   UNL     1     -10.298  17.701  68.025  0.00  0.00    +0.074 C 
ATOM      6  C   UNL     1     -10.819  16.268  68.044  0.00  0.00    +0.047 C 
ENDROOT
BRANCH   1   8
ATOM      7  C   UNL     1     -10.542  13.205  68.004  0.00  0.00    +0.230 C 
ATOM      8  N   UNL     1     -10.265  14.131  66.953  0.00  0.00    -0.252 N 
ATOM      9  O   UNL     1      -9.880  12.149  68.046  0.00  0.00    -0.275 OA
BRANCH   8  10
ATOM     10  C   UNL     1     -10.919  13.862  65.706  0.00  0.00    +0.054 A 
ATOM     11  C   UNL     1     -10.156  13.304  64.688  0.00  0.00    +0.015 A 
ATOM     12  C   UNL     1     -10.685  12.368  63.809  0.00  0.00    +0.001 A 
ATOM     13  C   UNL     1     -12.024  12.047  63.862  0.00  0.00    +0.000 A 
ATOM     14  C   UNL     1     -12.835  12.836  64.655  0.00  0.00    +0.001 A 
ATOM     15  C   UNL     1     -12.235  13.419  65.764  0.00  0.00    +0.015 A 
ENDBRANCH   8  10
BRANCH   7  17
ATOM     16  C   UNL     1     -11.913  12.319  69.879  0.00  0.00    +0.010 C 
ATOM     17  C   UNL     1     -11.402  13.540  69.165  0.00  0.00    +0.086 C 
ENDBRANCH   7  17
ENDBRANCH   1   8
BRANCH   1  18
ATOM     18  C   UNL     1      -8.527  15.292  68.075  0.00  0.00    +0.334 C 
ATOM     19  O   UNL     1      -8.507  15.455  69.331  0.00  0.00    -0.248 OA
BRANCH  18  20
ATOM     20  O   UNL     1      -7.336  15.270  67.371  0.00  0.00    -0.443 OA
ATOM     21  C   UNL     1      -6.195  14.631  67.888  0.00  0.00    +0.256 C 
ENDBRANCH  18  20
ENDBRANCH   1  18
BRANCH   4  22
ATOM     22  C   UNL     1      -9.329  19.128  66.380  0.00  0.00    +0.084 C 
BRANCH  22  23
ATOM     23  C   UNL     1      -9.026  20.178  67.411  0.00  0.00    +0.127 C 
BRANCH  23  24
ATOM     24  C   UNL     1      -7.567  20.342  67.659  0.00  0.00    +0.319 C 
ATOM     25  O   UNL     1      -6.950  21.340  67.179  0.00  0.00    -0.250 OA
BRANCH  24  26
ATOM     26  O   UNL     1      -6.824  19.159  67.712  0.00  0.00    -0.444 OA
ATOM     27  C   UNL     1      -6.622  18.437  68.907  0.00  0.00    +0.256 C 
ENDBRANCH  24  26
ENDBRANCH  23  24
ENDBRANCH  22  23
ENDBRANCH   4  22
TORSDOF 9
ENDMDL
MODEL 9
REMARK VINA RESULT:      -5.6      1.982      6.992
REMARK  Name = 
REMARK  9 active torsions:
REMARK  status: ('A' for Active; 'I' for Inactive)
REMARK    1  A    between atoms: C_2  and  C_3
REMARK    2  A    between atoms: N_5  and  C_6
REMARK    3  A    between atoms: N_5  and  C_12
REMARK    4  A    between atoms: C_12  and  C_13
REMARK    5  A    between atoms: C_13  and  O_15
REMARK    6  A    between atoms: N_19  and  C_20
REMARK    7  A    between atoms: C_20  and  C_21
REMARK    8  A    between atoms: C_21  and  C_22
REMARK    9  A    between atoms: C_22  and  O_24
REMARK                            x       y       z     vdW  Elec       q    Type
REMARK                         _______ _______ _______ _____ _____    ______ ____
ROOT
ATOM      1  C   UNL     1      -9.737  16.064  67.135  0.00  0.00    +0.156 C 
ATOM      2  C   UNL     1      -9.216  16.458  68.505  0.00  0.00    +0.047 C 
ATOM      3  C   UNL     1      -7.814  15.926  68.696  0.00  0.00    +0.074 C 
ATOM      4  N   UNL     1      -6.906  16.732  67.884  0.00  0.00    -0.272 NA
ATOM      5  C   UNL     1      -7.516  16.878  66.571  0.00  0.00    +0.074 C 
ATOM      6  C   UNL     1      -8.505  15.751  66.293  0.00  0.00    +0.047 C 
ENDROOT
BRANCH   1   8
ATOM      7  C   UNL     1     -11.211  14.425  66.032  0.00  0.00    +0.230 C 
ATOM      8  N   UNL     1     -10.635  14.947  67.230  0.00  0.00    -0.252 N 
ATOM      9  O   UNL     1     -12.450  14.474  65.905  0.00  0.00    -0.275 OA
BRANCH   8  10
ATOM     10  C   UNL     1     -10.623  14.051  68.349  0.00  0.00    +0.054 A 
ATOM     11  C   UNL     1     -11.543  14.281  69.366  0.00  0.00    +0.015 A 
ATOM     12  C   UNL     1     -12.149  13.235  70.049  0.00  0.00    +0.001 A 
ATOM     13  C   UNL     1     -11.769  11.933  69.804  0.00  0.00    +0.000 A 
ATOM     14  C   UNL     1     -10.639  11.736  69.035  0.00  0.00    +0.001 A 
ATOM     15  C   UNL     1     -10.360  12.712  68.086  0.00  0.00    +0.015 A 
ENDBRANCH   8  10
BRANCH   7  17
ATOM     16  C   UNL     1     -10.749  12.683  64.319  0.00  0.00    +0.010 C 
ATOM     17  C   UNL     1     -10.399  14.047  64.850  0.00  0.00    +0.086 C 
ENDBRANCH   7  17
ENDBRANCH   1   8
BRANCH   1  18
ATOM     18  C   UNL     1     -10.485  17.230  66.606  0.00  0.00    +0.334 C 
ATOM     19  O   UNL     1     -10.538  17.473  65.363  0.00  0.00    -0.248 OA
BRANCH  18  20
ATOM     20  O   UNL     1     -10.868  18.207  67.509  0.00  0.00    -0.443 OA
ATOM     21  C   UNL     1     -10.455  19.542  67.357  0.00  0.00    +0.256 C 
ENDBRANCH  18  20
ENDBRANCH   1  18
BRANCH   4  22
ATOM     22  C   UNL     1      -6.749  18.015  68.520  0.00  0.00    +0.084 C 
BRANCH  22  23
ATOM     23  C   UNL     1      -6.179  19.069  67.615  0.00  0.00    +0.127 C 
BRANCH  23  24
ATOM     24  C   UNL     1      -6.422  20.452  68.110  0.00  0.00    +0.319 C 
ATOM     25  O   UNL     1      -7.159  21.243  67.449  0.00  0.00    -0.250 OA
BRANCH  24  26
ATOM     26  O   UNL     1      -5.347  21.058  68.768  0.00  0.00    -0.444 OA
ATOM     27  C   UNL     1      -5.094  20.878  70.144  0.00  0.00    +0.256 C 
ENDBRANCH  24  26
ENDBRANCH  23  24
ENDBRANCH  22  23
ENDBRANCH   4  22
TORSDOF 9
ENDMDL
