MODEL 1
REMARK VINA RESULT:      -6.7      0.000      0.000
REMARK  Name = 
REMARK  7 active torsions:
REMARK  status: ('A' for Active; 'I' for Inactive)
REMARK    1  A    between atoms: C_2  and  C_3
REMARK    2  A    between atoms: C_3  and  C_4
REMARK    3  A    between atoms: C_4  and  C_5
REMARK    4  A    between atoms: C_5  and  C_6
REMARK    5  A    between atoms: C_6  and  O_8
REMARK    6  A    between atoms: O_8  and  C_9
REMARK    7  A    between atoms: C_9  and  C_10
REMARK                            x       y       z     vdW  Elec       q    Type
REMARK                         _______ _______ _______ _____ _____    ______ ____
ROOT
ATOM      1  C   UNL     1     -10.073  15.414  67.032  0.00  0.00    +0.186 C 
ATOM      2  C   UNL     1      -8.818  16.042  67.504  0.00  0.00    +0.040 C 
ATOM      3  C   UNL     1      -9.118  17.474  66.759  0.00  0.00    +0.004 C 
ATOM      4  C   UNL     1      -8.066  18.337  67.791  0.00  0.00    +0.001 C 
ATOM      5  C   UNL     1      -6.754  18.044  66.738  0.00  0.00    +0.003 C 
ATOM      6  C   UNL     1      -6.477  16.556  67.386  0.00  0.00    +0.000 C 
ATOM      7  C   UNL     1      -5.681  18.802  67.716  0.00  0.00    +0.016 C 
ATOM      8  C   UNL     1      -6.313  20.100  68.078  0.00  0.00    -0.042 C 
ATOM      9  C   UNL     1      -5.547  20.810  68.907  0.00  0.00    +0.029 C 
ATOM     10  C   UNL     1      -4.131  20.412  68.932  0.00  0.00    +0.173 C 
ATOM     11  C   UNL     1      -3.575  19.998  67.605  0.00  0.00    +0.069 C 
ATOM     12  O   UNL     1      -3.315  20.842  69.776  0.00  0.00    -0.291 OA
ATOM     13  C   UNL     1      -7.385  20.719  67.285  0.00  0.00    +0.022 C 
ATOM     14  C   UNL     1      -5.428  18.051  68.933  0.00  0.00    +0.004 C 
ATOM     15  C   UNL     1      -4.501  19.097  66.845  0.00  0.00    +0.012 C 
ATOM     16  C   UNL     1      -8.460  19.720  67.062  0.00  0.00    +0.004 C 
ATOM     17  C   UNL     1     -10.406  17.717  67.749  0.00  0.00    +0.004 C 
ATOM     18  C   UNL     1      -8.823  16.277  68.955  0.00  0.00    +0.004 C 
ATOM     19  C   UNL     1      -7.556  15.657  66.855  0.00  0.00    +0.004 C 
ATOM     20  C   UNL     1     -11.138  16.403  67.496  0.00  0.00    +0.047 C 
ENDROOT
BRANCH   1  21
ATOM     21  C   UNL     1     -10.334  14.052  67.558  0.00  0.00    +0.187 C 
ATOM     22  O   UNL     1      -9.822  13.116  66.946  0.00  0.00    -0.292 OA
ATOM     23  C   UNL     1     -11.710  13.809  68.104  0.00  0.00    +0.076 C 
ENDBRANCH   1  21
BRANCH   1  24
ATOM     24  O   UNL     1     -10.030  15.322  65.618  0.00  0.00    -0.449 OA
BRANCH  24  25
ATOM     25  C   UNL     1     -11.174  15.628  64.902  0.00  0.00    +0.317 C 
ATOM     26  O   UNL     1     -11.284  16.706  64.272  0.00  0.00    -0.250 OA
BRANCH  25  27
ATOM     27  C   UNL     1     -12.154  14.523  64.677  0.00  0.00    +0.110 C 
BRANCH  27  28
ATOM     28  C   UNL     1     -11.522  13.408  63.867  0.00  0.00    +0.012 C 
BRANCH  28  29
ATOM     29  C   UNL     1     -11.984  12.098  64.456  0.00  0.00    +0.001 C 
BRANCH  29  31
ATOM     30  C   UNL     1      -9.937  11.562  63.192  0.00  0.00    +0.000 C 
ATOM     31  C   UNL     1     -10.855  11.100  64.281  0.00  0.00    +0.000 C 
ENDBRANCH  29  31
ENDBRANCH  28  29
ENDBRANCH  27  28
ENDBRANCH  25  27
ENDBRANCH  24  25
ENDBRANCH   1  24
TORSDOF 7
ENDMDL
MODEL 2
REMARK VINA RESULT:      -6.6      2.748      4.622
REMARK  Name = 
REMARK  7 active torsions:
REMARK  status: ('A' for Active; 'I' for Inactive)
REMARK    1  A    between atoms: C_2  and  C_3
REMARK    2  A    between atoms: C_3  and  C_4
REMARK    3  A    between atoms: C_4  and  C_5
REMARK    4  A    between atoms: C_5  and  C_6
REMARK    5  A    between atoms: C_6  and  O_8
REMARK    6  A    between atoms: O_8  and  C_9
REMARK    7  A    between atoms: C_9  and  C_10
REMARK                            x       y       z     vdW  Elec       q    Type
REMARK                         _______ _______ _______ _____ _____    ______ ____
ROOT
ATOM      1  C   UNL     1     -10.149  11.457  68.115  0.00  0.00    +0.186 C 
ATOM      2  C   UNL     1      -9.831  12.902  68.204  0.00  0.00    +0.040 C 
ATOM      3  C   UNL     1     -10.216  13.201  66.636  0.00  0.00    +0.004 C 
ATOM      4  C   UNL     1     -10.466  14.867  66.919  0.00  0.00    +0.001 C 
ATOM      5  C   UNL     1      -8.821  15.194  66.597  0.00  0.00    +0.003 C 
ATOM      6  C   UNL     1      -8.372  14.805  68.133  0.00  0.00    +0.000 C 
ATOM      7  C   UNL     1      -8.981  16.790  66.920  0.00  0.00    +0.016 C 
ATOM      8  C   UNL     1     -10.185  17.236  66.165  0.00  0.00    -0.042 C 
ATOM      9  C   UNL     1     -10.447  18.528  66.370  0.00  0.00    +0.029 C 
ATOM     10  C   UNL     1      -9.317  19.313  66.889  0.00  0.00    +0.173 C 
ATOM     11  C   UNL     1      -7.980  18.922  66.340  0.00  0.00    +0.069 C 
ATOM     12  O   UNL     1      -9.434  20.486  67.306  0.00  0.00    -0.291 OA
ATOM     13  C   UNL     1     -10.723  16.504  65.010  0.00  0.00    +0.022 C 
ATOM     14  C   UNL     1      -9.197  17.042  68.334  0.00  0.00    +0.004 C 
ATOM     15  C   UNL     1      -7.786  17.437  66.293  0.00  0.00    +0.012 C 
ATOM     16  C   UNL     1     -10.903  15.078  65.383  0.00  0.00    +0.004 C 
ATOM     17  C   UNL     1     -11.785  12.837  66.953  0.00  0.00    +0.004 C 
ATOM     18  C   UNL     1     -10.785  13.631  69.051  0.00  0.00    +0.004 C 
ATOM     19  C   UNL     1      -8.418  13.306  68.220  0.00  0.00    +0.004 C 
ATOM     20  C   UNL     1     -11.577  11.461  67.579  0.00  0.00    +0.047 C 
ENDROOT
BRANCH   1  21
ATOM     21  C   UNL     1     -10.052  10.710  69.392  0.00  0.00    +0.187 C 
ATOM     22  O   UNL     1      -8.987  10.137  69.617  0.00  0.00    -0.292 OA
ATOM     23  C   UNL     1     -11.294   9.991  69.830  0.00  0.00    +0.076 C 
ENDBRANCH   1  21
BRANCH   1  24
ATOM     24  O   UNL     1      -9.252  10.852  67.198  0.00  0.00    -0.449 OA
BRANCH  24  25
ATOM     25  C   UNL     1      -9.683   9.747  66.486  0.00  0.00    +0.317 C 
ATOM     26  O   UNL     1      -9.906   8.650  67.048  0.00  0.00    -0.250 OA
BRANCH  25  27
ATOM     27  C   UNL     1     -10.135   9.976  65.079  0.00  0.00    +0.110 C 
BRANCH  27  28
ATOM     28  C   UNL     1      -9.119  10.810  64.323  0.00  0.00    +0.012 C 
BRANCH  28  29
ATOM     29  C   UNL     1      -9.880  11.731  63.402  0.00  0.00    +0.001 C 
BRANCH  29  31
ATOM     30  C   UNL     1     -12.175  12.623  63.299  0.00  0.00    +0.000 C 
ATOM     31  C   UNL     1     -11.352  11.395  63.541  0.00  0.00    +0.000 C 
ENDBRANCH  29  31
ENDBRANCH  28  29
ENDBRANCH  27  28
ENDBRANCH  25  27
ENDBRANCH  24  25
ENDBRANCH   1  24
TORSDOF 7
ENDMDL
MODEL 3
REMARK VINA RESULT:      -6.6      1.420      2.068
REMARK  Name = 
REMARK  7 active torsions:
REMARK  status: ('A' for Active; 'I' for Inactive)
REMARK    1  A    between atoms: C_2  and  C_3
REMARK    2  A    between atoms: C_3  and  C_4
REMARK    3  A    between atoms: C_4  and  C_5
REMARK    4  A    between atoms: C_5  and  C_6
REMARK    5  A    between atoms: C_6  and  O_8
REMARK    6  A    between atoms: O_8  and  C_9
REMARK    7  A    between atoms: C_9  and  C_10
REMARK                            x       y       z     vdW  Elec       q    Type
REMARK                         _______ _______ _______ _____ _____    ______ ____
ROOT
ATOM      1  C   UNL     1     -10.778  13.741  67.262  0.00  0.00    +0.186 C 
ATOM      2  C   UNL     1      -9.679  14.677  67.593  0.00  0.00    +0.040 C 
ATOM      3  C   UNL     1     -10.508  16.007  67.104  0.00  0.00    +0.004 C 
ATOM      4  C   UNL     1      -9.553  17.063  68.048  0.00  0.00    +0.001 C 
ATOM      5  C   UNL     1      -8.450  17.255  66.758  0.00  0.00    +0.003 C 
ATOM      6  C   UNL     1      -7.646  15.872  67.149  0.00  0.00    +0.000 C 
ATOM      7  C   UNL     1      -7.457  18.220  67.631  0.00  0.00    +0.016 C 
ATOM      8  C   UNL     1      -8.339  19.240  68.262  0.00  0.00    -0.042 C 
ATOM      9  C   UNL     1      -7.649  20.080  69.036  0.00  0.00    +0.029 C 
ATOM     10  C   UNL     1      -6.204  20.121  68.768  0.00  0.00    +0.173 C 
ATOM     11  C   UNL     1      -5.833  19.994  67.323  0.00  0.00    +0.069 C 
ATOM     12  O   UNL     1      -5.388  20.710  69.510  0.00  0.00    -0.291 OA
ATOM     13  C   UNL     1      -9.677  19.570  67.751  0.00  0.00    +0.022 C 
ATOM     14  C   UNL     1      -6.766  17.489  68.678  0.00  0.00    +0.004 C 
ATOM     15  C   UNL     1      -6.604  18.920  66.619  0.00  0.00    +0.012 C 
ATOM     16  C   UNL     1     -10.453  18.316  67.584  0.00  0.00    +0.004 C 
ATOM     17  C   UNL     1     -11.587  15.779  68.322  0.00  0.00    +0.004 C 
ATOM     18  C   UNL     1      -9.458  14.787  69.042  0.00  0.00    +0.004 C 
ATOM     19  C   UNL     1      -8.517  14.735  66.695  0.00  0.00    +0.004 C 
ATOM     20  C   UNL     1     -11.960  14.330  68.026  0.00  0.00    +0.047 C 
ENDROOT
BRANCH   1  21
ATOM     21  C   UNL     1     -10.539  12.327  67.641  0.00  0.00    +0.187 C 
ATOM     22  O   UNL     1      -9.841  11.661  66.878  0.00  0.00    -0.292 OA
ATOM     23  C   UNL     1     -11.695  11.609  68.273  0.00  0.00    +0.076 C 
ENDBRANCH   1  21
BRANCH   1  24
ATOM     24  O   UNL     1     -10.996  13.775  65.862  0.00  0.00    -0.449 OA
BRANCH  24  25
ATOM     25  C   UNL     1     -12.259  13.476  65.383  0.00  0.00    +0.317 C 
ATOM     26  O   UNL     1     -13.181  14.323  65.392  0.00  0.00    -0.250 OA
BRANCH  25  27
ATOM     27  C   UNL     1     -12.411  12.208  64.605  0.00  0.00    +0.110 C 
BRANCH  27  28
ATOM     28  C   UNL     1     -11.410  12.157  63.468  0.00  0.00    +0.012 C 
BRANCH  28  29
ATOM     29  C   UNL     1     -10.478  11.000  63.732  0.00  0.00    +0.001 C 
BRANCH  29  31
ATOM     30  C   UNL     1      -9.234   9.776  61.992  0.00  0.00    +0.000 C 
ATOM     31  C   UNL     1      -9.356  11.082  62.716  0.00  0.00    +0.000 C 
ENDBRANCH  29  31
ENDBRANCH  28  29
ENDBRANCH  27  28
ENDBRANCH  25  27
ENDBRANCH  24  25
ENDBRANCH   1  24
TORSDOF 7
ENDMDL
MODEL 4
REMARK VINA RESULT:      -6.6      2.032      7.478
REMARK  Name = 
REMARK  7 active torsions:
REMARK  status: ('A' for Active; 'I' for Inactive)
REMARK    1  A    between atoms: C_2  and  C_3
REMARK    2  A    between atoms: C_3  and  C_4
REMARK    3  A    between atoms: C_4  and  C_5
REMARK    4  A    between atoms: C_5  and  C_6
REMARK    5  A    between atoms: C_6  and  O_8
REMARK    6  A    between atoms: O_8  and  C_9
REMARK    7  A    between atoms: C_9  and  C_10
REMARK                            x       y       z     vdW  Elec       q    Type
REMARK                         _______ _______ _______ _____ _____    ______ ____
ROOT
ATOM      1  C   UNL     1      -7.824  19.009  68.060  0.00  0.00    +0.186 C 
ATOM      2  C   UNL     1      -8.446  17.948  67.235  0.00  0.00    +0.040 C 
ATOM      3  C   UNL     1      -9.188  17.229  68.511  0.00  0.00    +0.004 C 
ATOM      4  C   UNL     1     -10.353  16.466  67.522  0.00  0.00    +0.001 C 
ATOM      5  C   UNL     1      -9.334  15.109  67.327  0.00  0.00    +0.003 C 
ATOM      6  C   UNL     1      -8.492  15.829  66.108  0.00  0.00    +0.000 C 
ATOM      7  C   UNL     1     -10.380  14.353  66.320  0.00  0.00    +0.016 C 
ATOM      8  C   UNL     1     -11.709  14.433  66.985  0.00  0.00    -0.042 C 
ATOM      9  C   UNL     1     -12.668  13.874  66.245  0.00  0.00    +0.029 C 
ATOM     10  C   UNL     1     -12.187  12.948  65.209  0.00  0.00    +0.173 C 
ATOM     11  C   UNL     1     -11.005  12.121  65.610  0.00  0.00    +0.069 C 
ATOM     12  O   UNL     1     -12.925  12.480  64.314  0.00  0.00    -0.291 OA
ATOM     13  C   UNL     1     -11.871  14.659  68.428  0.00  0.00    +0.022 C 
ATOM     14  C   UNL     1     -10.465  15.012  65.028  0.00  0.00    +0.004 C 
ATOM     15  C   UNL     1      -9.955  12.918  66.321  0.00  0.00    +0.012 C 
ATOM     16  C   UNL     1     -11.077  15.850  68.823  0.00  0.00    +0.004 C 
ATOM     17  C   UNL     1     -10.127  18.561  68.712  0.00  0.00    +0.004 C 
ATOM     18  C   UNL     1      -9.488  18.475  66.342  0.00  0.00    +0.004 C 
ATOM     19  C   UNL     1      -7.597  16.846  66.758  0.00  0.00    +0.004 C 
ATOM     20  C   UNL     1      -9.021  19.609  68.791  0.00  0.00    +0.047 C 
ENDROOT
BRANCH   1  21
ATOM     21  C   UNL     1      -7.079  20.043  67.302  0.00  0.00    +0.187 C 
ATOM     22  O   UNL     1      -7.568  21.171  67.281  0.00  0.00    -0.292 OA
ATOM     23  C   UNL     1      -6.421  19.585  66.034  0.00  0.00    +0.076 C 
ENDBRANCH   1  21
BRANCH   1  24
ATOM     24  O   UNL     1      -6.913  18.404  68.963  0.00  0.00    -0.449 OA
BRANCH  24  25
ATOM     25  C   UNL     1      -5.975  19.206  69.590  0.00  0.00    +0.317 C 
ATOM     26  O   UNL     1      -6.313  20.095  70.405  0.00  0.00    -0.250 OA
BRANCH  25  27
ATOM     27  C   UNL     1      -4.542  18.798  69.473  0.00  0.00    +0.110 C 
BRANCH  27  28
ATOM     28  C   UNL     1      -4.406  17.584  68.575  0.00  0.00    +0.012 C 
BRANCH  28  29
ATOM     29  C   UNL     1      -4.184  16.383  69.462  0.00  0.00    +0.001 C 
BRANCH  29  31
ATOM     30  C   UNL     1      -6.260  15.095  69.784  0.00  0.00    +0.000 C 
ATOM     31  C   UNL     1      -5.046  15.258  68.923  0.00  0.00    +0.000 C 
ENDBRANCH  29  31
ENDBRANCH  28  29
ENDBRANCH  27  28
ENDBRANCH  25  27
ENDBRANCH  24  25
ENDBRANCH   1  24
TORSDOF 7
ENDMDL
MODEL 5
REMARK VINA RESULT:      -6.5      4.997      8.786
REMARK  Name = 
REMARK  7 active torsions:
REMARK  status: ('A' for Active; 'I' for Inactive)
REMARK    1  A    between atoms: C_2  and  C_3
REMARK    2  A    between atoms: C_3  and  C_4
REMARK    3  A    between atoms: C_4  and  C_5
REMARK    4  A    between atoms: C_5  and  C_6
REMARK    5  A    between atoms: C_6  and  O_8
REMARK    6  A    between atoms: O_8  and  C_9
REMARK    7  A    between atoms: C_9  and  C_10
REMARK                            x       y       z     vdW  Elec       q    Type
REMARK                         _______ _______ _______ _____ _____    ______ ____
ROOT
ATOM      1  C   UNL     1      -9.240   7.795  68.539  0.00  0.00    +0.186 C 
ATOM      2  C   UNL     1      -9.374   9.007  67.698  0.00  0.00    +0.040 C 
ATOM      3  C   UNL     1     -10.562   9.660  68.624  0.00  0.00    +0.004 C 
ATOM      4  C   UNL     1     -10.256  11.244  68.063  0.00  0.00    +0.001 C 
ATOM      5  C   UNL     1     -11.357  11.025  66.775  0.00  0.00    +0.003 C 
ATOM      6  C   UNL     1     -10.225  10.272  65.845  0.00  0.00    +0.000 C 
ATOM      7  C   UNL     1     -11.060  12.508  66.148  0.00  0.00    +0.016 C 
ATOM      8  C   UNL     1     -11.143  13.454  67.294  0.00  0.00    -0.042 C 
ATOM      9  C   UNL     1     -10.886  14.708  66.920  0.00  0.00    +0.029 C 
ATOM     10  C   UNL     1     -11.019  14.962  65.478  0.00  0.00    +0.173 C 
ATOM     11  C   UNL     1     -12.138  14.221  64.813  0.00  0.00    +0.069 C 
ATOM     12  O   UNL     1     -10.644  16.023  64.932  0.00  0.00    -0.291 OA
ATOM     13  C   UNL     1     -11.856  13.143  68.541  0.00  0.00    +0.022 C 
ATOM     14  C   UNL     1      -9.733  12.597  65.565  0.00  0.00    +0.004 C 
ATOM     15  C   UNL     1     -12.217  12.788  65.241  0.00  0.00    +0.012 C 
ATOM     16  C   UNL     1     -11.388  11.829  69.050  0.00  0.00    +0.004 C 
ATOM     17  C   UNL     1      -9.501   9.819  69.868  0.00  0.00    +0.004 C 
ATOM     18  C   UNL     1      -8.196   9.882  67.787  0.00  0.00    +0.004 C 
ATOM     19  C   UNL     1     -10.069   8.888  66.408  0.00  0.00    +0.004 C 
ATOM     20  C   UNL     1      -9.005   8.378  69.929  0.00  0.00    +0.047 C 
ENDROOT
BRANCH   1  21
ATOM     21  C   UNL     1      -8.147   6.873  68.147  0.00  0.00    +0.187 C 
ATOM     22  O   UNL     1      -8.451   5.940  67.405  0.00  0.00    -0.292 OA
ATOM     23  C   UNL     1      -7.129   6.569  69.207  0.00  0.00    +0.076 C 
ENDBRANCH   1  21
BRANCH   1  24
ATOM     24  O   UNL     1     -10.454   7.066  68.479  0.00  0.00    -0.449 OA
BRANCH  24  25
ATOM     25  C   UNL     1     -10.842   6.339  69.591  0.00  0.00    +0.317 C 
ATOM     26  O   UNL     1     -10.122   5.430  70.064  0.00  0.00    -0.250 OA
BRANCH  25  27
ATOM     27  C   UNL     1     -12.011   6.853  70.369  0.00  0.00    +0.110 C 
BRANCH  27  28
ATOM     28  C   UNL     1     -11.737   6.767  71.858  0.00  0.00    +0.012 C 
BRANCH  28  29
ATOM     29  C   UNL     1     -11.730   8.175  72.402  0.00  0.00    +0.001 C 
BRANCH  29  31
ATOM     30  C   UNL     1     -13.025  10.183  71.801  0.00  0.00    +0.000 C 
ATOM     31  C   UNL     1     -13.121   8.744  72.203  0.00  0.00    +0.000 C 
ENDBRANCH  29  31
ENDBRANCH  28  29
ENDBRANCH  27  28
ENDBRANCH  25  27
ENDBRANCH  24  25
ENDBRANCH   1  24
TORSDOF 7
ENDMDL
MODEL 6
REMARK VINA RESULT:      -6.4      2.053      4.634
REMARK  Name = 
REMARK  7 active torsions:
REMARK  status: ('A' for Active; 'I' for Inactive)
REMARK    1  A    between atoms: C_2  and  C_3
REMARK    2  A    between atoms: C_3  and  C_4
REMARK    3  A    between atoms: C_4  and  C_5
REMARK    4  A    between atoms: C_5  and  C_6
REMARK    5  A    between atoms: C_6  and  O_8
REMARK    6  A    between atoms: O_8  and  C_9
REMARK    7  A    between atoms: C_9  and  C_10
REMARK                            x       y       z     vdW  Elec       q    Type
REMARK                         _______ _______ _______ _____ _____    ______ ____
ROOT
ATOM      1  C   UNL     1     -11.193  13.859  66.564  0.00  0.00    +0.186 C 
ATOM      2  C   UNL     1     -10.389  15.102  66.535  0.00  0.00    +0.040 C 
ATOM      3  C   UNL     1      -9.554  14.732  67.899  0.00  0.00    +0.004 C 
ATOM      4  C   UNL     1      -8.263  15.778  67.504  0.00  0.00    +0.001 C 
ATOM      5  C   UNL     1      -9.035  17.074  68.306  0.00  0.00    +0.003 C 
ATOM      6  C   UNL     1      -9.969  17.420  66.994  0.00  0.00    +0.000 C 
ATOM      7  C   UNL     1      -7.863  18.142  67.903  0.00  0.00    +0.016 C 
ATOM      8  C   UNL     1      -6.576  17.473  68.238  0.00  0.00    -0.042 C 
ATOM      9  C   UNL     1      -5.526  18.235  67.925  0.00  0.00    +0.029 C 
ATOM     10  C   UNL     1      -5.828  19.664  67.755  0.00  0.00    +0.173 C 
ATOM     11  C   UNL     1      -6.859  20.201  68.699  0.00  0.00    +0.069 C 
ATOM     12  O   UNL     1      -5.009  20.485  67.288  0.00  0.00    -0.291 OA
ATOM     13  C   UNL     1      -6.475  16.361  69.193  0.00  0.00    +0.022 C 
ATOM     14  C   UNL     1      -7.871  18.452  66.484  0.00  0.00    +0.004 C 
ATOM     15  C   UNL     1      -8.039  19.290  68.847  0.00  0.00    +0.012 C 
ATOM     16  C   UNL     1      -7.465  15.317  68.825  0.00  0.00    +0.004 C 
ATOM     17  C   UNL     1      -8.857  13.462  67.126  0.00  0.00    +0.004 C 
ATOM     18  C   UNL     1      -9.438  15.125  65.414  0.00  0.00    +0.004 C 
ATOM     19  C   UNL     1     -11.032  16.360  66.941  0.00  0.00    +0.004 C 
ATOM     20  C   UNL     1     -10.126  12.771  66.635  0.00  0.00    +0.047 C 
ENDROOT
BRANCH   1  21
ATOM     21  C   UNL     1     -12.091  13.660  65.401  0.00  0.00    +0.187 C 
ATOM     22  O   UNL     1     -13.248  14.060  65.521  0.00  0.00    -0.292 OA
ATOM     23  C   UNL     1     -11.912  12.379  64.641  0.00  0.00    +0.076 C 
ENDBRANCH   1  21
BRANCH   1  24
ATOM     24  O   UNL     1     -12.002  13.870  67.729  0.00  0.00    -0.449 OA
BRANCH  24  25
ATOM     25  C   UNL     1     -12.032  12.736  68.522  0.00  0.00    +0.317 C 
ATOM     26  O   UNL     1     -12.063  11.588  68.023  0.00  0.00    -0.250 OA
BRANCH  25  27
ATOM     27  C   UNL     1     -11.749  12.916  69.979  0.00  0.00    +0.110 C 
BRANCH  27  28
ATOM     28  C   UNL     1     -12.464  14.142  70.512  0.00  0.00    +0.012 C 
BRANCH  28  29
ATOM     29  C   UNL     1     -11.413  15.094  71.028  0.00  0.00    +0.001 C 
BRANCH  29  31
ATOM     30  C   UNL     1     -13.499  15.553  72.258  0.00  0.00    +0.000 C 
ATOM     31  C   UNL     1     -12.061  15.944  72.103  0.00  0.00    +0.000 C 
ENDBRANCH  29  31
ENDBRANCH  28  29
ENDBRANCH  27  28
ENDBRANCH  25  27
ENDBRANCH  24  25
ENDBRANCH   1  24
TORSDOF 7
ENDMDL
MODEL 7
REMARK VINA RESULT:      -6.3      4.220      8.309
REMARK  Name = 
REMARK  7 active torsions:
REMARK  status: ('A' for Active; 'I' for Inactive)
REMARK    1  A    between atoms: C_2  and  C_3
REMARK    2  A    between atoms: C_3  and  C_4
REMARK    3  A    between atoms: C_4  and  C_5
REMARK    4  A    between atoms: C_5  and  C_6
REMARK    5  A    between atoms: C_6  and  O_8
REMARK    6  A    between atoms: O_8  and  C_9
REMARK    7  A    between atoms: C_9  and  C_10
REMARK                            x       y       z     vdW  Elec       q    Type
REMARK                         _______ _______ _______ _____ _____    ______ ____
ROOT
ATOM      1  C   UNL     1     -10.278  14.701  66.906  0.00  0.00    +0.186 C 
ATOM      2  C   UNL     1      -9.744  13.320  66.856  0.00  0.00    +0.040 C 
ATOM      3  C   UNL     1     -10.502  12.854  68.236  0.00  0.00    +0.004 C 
ATOM      4  C   UNL     1     -10.421  11.197  67.829  0.00  0.00    +0.001 C 
ATOM      5  C   UNL     1      -8.901  11.058  68.595  0.00  0.00    +0.003 C 
ATOM      6  C   UNL     1      -8.104  11.618  67.267  0.00  0.00    +0.000 C 
ATOM      7  C   UNL     1      -8.733   9.483  68.180  0.00  0.00    +0.016 C 
ATOM      8  C   UNL     1     -10.022   8.832  68.541  0.00  0.00    -0.042 C 
ATOM      9  C   UNL     1     -10.029   7.537  68.221  0.00  0.00    +0.029 C 
ATOM     10  C   UNL     1      -8.698   6.944  68.017  0.00  0.00    +0.173 C 
ATOM     11  C   UNL     1      -7.637   7.459  68.939  0.00  0.00    +0.069 C 
ATOM     12  O   UNL     1      -8.525   5.802  67.539  0.00  0.00    -0.291 OA
ATOM     13  C   UNL     1     -10.959   9.397  69.522  0.00  0.00    +0.022 C 
ATOM     14  C   UNL     1      -8.510   9.316  66.754  0.00  0.00    +0.004 C 
ATOM     15  C   UNL     1      -7.679   8.948  69.097  0.00  0.00    +0.012 C 
ATOM     16  C   UNL     1     -11.232  10.813  69.168  0.00  0.00    +0.004 C 
ATOM     17  C   UNL     1     -11.957  13.039  67.498  0.00  0.00    +0.004 C 
ATOM     18  C   UNL     1     -10.310  12.543  65.744  0.00  0.00    +0.004 C 
ATOM     19  C   UNL     1      -8.339  13.101  67.229  0.00  0.00    +0.004 C 
ATOM     20  C   UNL     1     -11.783  14.474  67.010  0.00  0.00    +0.047 C 
ENDROOT
BRANCH   1  21
ATOM     21  C   UNL     1      -9.940  15.551  65.739  0.00  0.00    +0.187 C 
ATOM     22  O   UNL     1      -9.010  16.343  65.884  0.00  0.00    -0.292 OA
ATOM     23  C   UNL     1     -11.098  16.037  64.918  0.00  0.00    +0.076 C 
ENDBRANCH   1  21
BRANCH   1  24
ATOM     24  O   UNL     1      -9.768  15.343  68.062  0.00  0.00    -0.449 OA
BRANCH  24  25
ATOM     25  C   UNL     1     -10.626  16.124  68.816  0.00  0.00    +0.317 C 
ATOM     26  O   UNL     1     -11.329  17.019  68.292  0.00  0.00    -0.250 OA
BRANCH  25  27
ATOM     27  C   UNL     1     -10.891  15.687  70.221  0.00  0.00    +0.110 C 
BRANCH  27  28
ATOM     28  C   UNL     1     -12.376  15.478  70.441  0.00  0.00    +0.012 C 
BRANCH  28  29
ATOM     29  C   UNL     1     -12.564  14.083  70.986  0.00  0.00    +0.001 C 
BRANCH  29  31
ATOM     30  C   UNL     1     -14.717  15.063  71.676  0.00  0.00    +0.000 C 
ATOM     31  C   UNL     1     -13.595  14.165  72.095  0.00  0.00    +0.000 C 
ENDBRANCH  29  31
ENDBRANCH  28  29
ENDBRANCH  27  28
ENDBRANCH  25  27
ENDBRANCH  24  25
ENDBRANCH   1  24
TORSDOF 7
ENDMDL
MODEL 8
REMARK VINA RESULT:      -6.3      2.256      7.673
REMARK  Name = 
REMARK  7 active torsions:
REMARK  status: ('A' for Active; 'I' for Inactive)
REMARK    1  A    between atoms: C_2  and  C_3
REMARK    2  A    between atoms: C_3  and  C_4
REMARK    3  A    between atoms: C_4  and  C_5
REMARK    4  A    between atoms: C_5  and  C_6
REMARK    5  A    between atoms: C_6  and  O_8
REMARK    6  A    between atoms: O_8  and  C_9
REMARK    7  A    between atoms: C_9  and  C_10
REMARK                            x       y       z     vdW  Elec       q    Type
REMARK                         _______ _______ _______ _____ _____    ______ ____
ROOT
ATOM      1  C   UNL     1      -9.251  17.871  66.945  0.00  0.00    +0.186 C 
ATOM      2  C   UNL     1      -9.810  16.504  67.060  0.00  0.00    +0.040 C 
ATOM      3  C   UNL     1      -8.338  15.790  67.210  0.00  0.00    +0.004 C 
ATOM      4  C   UNL     1      -8.987  14.399  67.958  0.00  0.00    +0.001 C 
ATOM      5  C   UNL     1      -9.212  13.656  66.437  0.00  0.00    +0.003 C 
ATOM      6  C   UNL     1     -10.647  14.428  66.195  0.00  0.00    +0.000 C 
ATOM      7  C   UNL     1      -9.903  12.322  67.088  0.00  0.00    +0.016 C 
ATOM      8  C   UNL     1      -9.008  11.908  68.203  0.00  0.00    -0.042 C 
ATOM      9  C   UNL     1      -9.479  10.838  68.845  0.00  0.00    +0.029 C 
ATOM     10  C   UNL     1     -10.471  10.055  68.094  0.00  0.00    +0.173 C 
ATOM     11  C   UNL     1     -10.210   9.962  66.622  0.00  0.00    +0.069 C 
ATOM     12  O   UNL     1     -11.145   9.134  68.606  0.00  0.00    -0.291 OA
ATOM     13  C   UNL     1      -7.598  12.313  68.292  0.00  0.00    +0.022 C 
ATOM     14  C   UNL     1     -11.223  12.599  67.627  0.00  0.00    +0.004 C 
ATOM     15  C   UNL     1      -9.814  11.276  66.021  0.00  0.00    +0.012 C 
ATOM     16  C   UNL     1      -7.507  13.787  68.139  0.00  0.00    +0.004 C 
ATOM     17  C   UNL     1      -8.119  16.550  68.649  0.00  0.00    +0.004 C 
ATOM     18  C   UNL     1     -10.541  16.304  68.319  0.00  0.00    +0.004 C 
ATOM     19  C   UNL     1     -10.308  15.848  65.842  0.00  0.00    +0.004 C 
ATOM     20  C   UNL     1      -8.379  17.982  68.191  0.00  0.00    +0.047 C 
ENDROOT
BRANCH   1  21
ATOM     21  C   UNL     1     -10.255  18.960  66.888  0.00  0.00    +0.187 C 
ATOM     22  O   UNL     1     -10.624  19.313  65.769  0.00  0.00    -0.292 OA
ATOM     23  C   UNL     1     -10.103  20.051  67.907  0.00  0.00    +0.076 C 
ENDBRANCH   1  21
BRANCH   1  24
ATOM     24  O   UNL     1      -8.475  17.945  65.760  0.00  0.00    -0.449 OA
BRANCH  24  25
ATOM     25  C   UNL     1      -7.233  18.550  65.822  0.00  0.00    +0.317 C 
ATOM     26  O   UNL     1      -6.176  17.878  65.826  0.00  0.00    -0.250 OA
BRANCH  25  27
ATOM     27  C   UNL     1      -7.182  20.028  65.606  0.00  0.00    +0.110 C 
BRANCH  27  28
ATOM     28  C   UNL     1      -5.916  20.609  66.205  0.00  0.00    +0.012 C 
BRANCH  28  29
ATOM     29  C   UNL     1      -6.259  21.133  67.578  0.00  0.00    +0.001 C 
BRANCH  29  31
ATOM     30  C   UNL     1      -6.027  20.216  69.854  0.00  0.00    +0.000 C 
ATOM     31  C   UNL     1      -5.313  20.474  68.563  0.00  0.00    +0.000 C 
ENDBRANCH  29  31
ENDBRANCH  28  29
ENDBRANCH  27  28
ENDBRANCH  25  27
ENDBRANCH  24  25
ENDBRANCH   1  24
TORSDOF 7
ENDMDL
MODEL 9
REMARK VINA RESULT:      -6.2      3.112      5.134
REMARK  Name = 
REMARK  7 active torsions:
REMARK  status: ('A' for Active; 'I' for Inactive)
REMARK    1  A    between atoms: C_2  and  C_3
REMARK    2  A    between atoms: C_3  and  C_4
REMARK    3  A    between atoms: C_4  and  C_5
REMARK    4  A    between atoms: C_5  and  C_6
REMARK    5  A    between atoms: C_6  and  O_8
REMARK    6  A    between atoms: O_8  and  C_9
REMARK    7  A    between atoms: C_9  and  C_10
REMARK                            x       y       z     vdW  Elec       q    Type
REMARK                         _______ _______ _______ _____ _____    ______ ____
ROOT
ATOM      1  C   UNL     1     -10.086  11.499  67.887  0.00  0.00    +0.186 C 
ATOM      2  C   UNL     1      -9.775  12.942  68.014  0.00  0.00    +0.040 C 
ATOM      3  C   UNL     1     -10.200  13.288  66.466  0.00  0.00    +0.004 C 
ATOM      4  C   UNL     1     -10.454  14.942  66.808  0.00  0.00    +0.001 C 
ATOM      5  C   UNL     1      -8.819  15.291  66.456  0.00  0.00    +0.003 C 
ATOM      6  C   UNL     1      -8.330  14.857  67.968  0.00  0.00    +0.000 C 
ATOM      7  C   UNL     1      -8.981  16.875  66.833  0.00  0.00    +0.016 C 
ATOM      8  C   UNL     1     -10.206  17.336  66.123  0.00  0.00    -0.042 C 
ATOM      9  C   UNL     1     -10.471  18.618  66.374  0.00  0.00    +0.029 C 
ATOM     10  C   UNL     1      -9.334  19.395  66.891  0.00  0.00    +0.173 C 
ATOM     11  C   UNL     1      -8.008  19.031  66.297  0.00  0.00    +0.069 C 
ATOM     12  O   UNL     1      -9.448  20.553  67.347  0.00  0.00    -0.291 OA
ATOM     13  C   UNL     1     -10.767  16.637  64.958  0.00  0.00    +0.022 C 
ATOM     14  C   UNL     1      -9.165  17.081  68.259  0.00  0.00    +0.004 C 
ATOM     15  C   UNL     1      -7.806  17.550  66.198  0.00  0.00    +0.012 C 
ATOM     16  C   UNL     1     -10.929  15.199  65.290  0.00  0.00    +0.004 C 
ATOM     17  C   UNL     1     -11.759  12.903  66.809  0.00  0.00    +0.004 C 
ATOM     18  C   UNL     1     -10.712  13.638  68.907  0.00  0.00    +0.004 C 
ATOM     19  C   UNL     1      -8.365  13.356  68.008  0.00  0.00    +0.004 C 
ATOM     20  C   UNL     1     -11.527  11.510  67.386  0.00  0.00    +0.047 C 
ENDROOT
BRANCH   1  21
ATOM     21  C   UNL     1      -9.953  10.712  69.137  0.00  0.00    +0.187 C 
ATOM     22  O   UNL     1      -8.896  10.106  69.298  0.00  0.00    -0.292 OA
ATOM     23  C   UNL     1     -11.194  10.014  69.611  0.00  0.00    +0.076 C 
ENDBRANCH   1  21
BRANCH   1  24
ATOM     24  O   UNL     1      -9.208  10.929  66.930  0.00  0.00    -0.449 OA
BRANCH  24  25
ATOM     25  C   UNL     1      -9.702   9.958  66.077  0.00  0.00    +0.317 C 
ATOM     26  O   UNL     1     -10.284  10.258  65.010  0.00  0.00    -0.250 OA
BRANCH  25  27
ATOM     27  C   UNL     1      -9.278   8.547  66.331  0.00  0.00    +0.110 C 
BRANCH  27  28
ATOM     28  C   UNL     1     -10.440   7.731  66.862  0.00  0.00    +0.012 C 
BRANCH  28  29
ATOM     29  C   UNL     1      -9.946   6.961  68.062  0.00  0.00    +0.001 C 
BRANCH  29  31
ATOM     30  C   UNL     1     -11.312   6.262  69.991  0.00  0.00    +0.000 C 
ATOM     31  C   UNL     1     -11.081   6.067  68.524  0.00  0.00    +0.000 C 
ENDBRANCH  29  31
ENDBRANCH  28  29
ENDBRANCH  27  28
ENDBRANCH  25  27
ENDBRANCH  24  25
ENDBRANCH   1  24
TORSDOF 7
ENDMDL
