MODEL 1
REMARK VINA RESULT:      -5.5      0.000      0.000
REMARK  Name = 
REMARK  11 active torsions:
REMARK  status: ('A' for Active; 'I' for Inactive)
REMARK    1  A    between atoms: C_2  and  N_4
REMARK    2  A    between atoms: N_4  and  C_5
REMARK    3  A    between atoms: C_5  and  C_6
REMARK    4  A    between atoms: C_6  and  C_8
REMARK    5  A    between atoms: C_8  and  O_9
REMARK    6  A    between atoms: O_9  and  C_10
REMARK    7  A    between atoms: C_13  and  C_14
REMARK    8  A    between atoms: C_14  and  C_15
REMARK    9  A    between atoms: C_15  and  O_16
REMARK   10  A    between atoms: O_16  and  C_17
REMARK   11  A    between atoms: C_17  and  C_18
REMARK                            x       y       z     vdW  Elec       q    Type
REMARK                         _______ _______ _______ _____ _____    ______ ____
ROOT
ATOM      1  C   UNL     1      -9.170  16.018  66.318  0.00  0.00    +0.139 A 
ATOM      2  C   UNL     1      -8.616  14.964  67.038  0.00  0.00    +0.037 A 
ATOM      3  C   UNL     1      -8.807  14.849  68.412  0.00  0.00    -0.001 A 
ATOM      4  C   UNL     1      -9.542  15.804  69.108  0.00  0.00    -0.019 A 
ATOM      5  C   UNL     1      -9.610  17.035  68.464  0.00  0.00    -0.001 A 
ATOM      6  C   UNL     1      -9.420  17.147  67.091  0.00  0.00    +0.037 A 
ENDROOT
BRANCH   1   7
ATOM      7  O   UNL     1      -9.801  15.764  65.117  0.00  0.00    -0.473 OA
BRANCH   7   8
ATOM      8  C   UNL     1     -11.158  15.569  64.914  0.00  0.00    +0.240 C 
BRANCH   8   9
ATOM      9  C   UNL     1     -11.378  13.976  64.560  0.00  0.00    +0.213 C 
ATOM     10  O   UNL     1     -12.601  14.283  63.715  0.00  0.00    -0.218 OA
BRANCH   9  11
ATOM     11  C   UNL     1     -12.308  13.726  65.897  0.00  0.00    +0.125 C 
BRANCH  11  12
ATOM     12  N   UNL     1     -12.155  12.313  66.116  0.00  0.00    -0.217 NA
BRANCH  12  14
ATOM     13  C   UNL     1     -10.436  11.331  66.861  0.00  0.00    +0.019 C 
ATOM     14  C   UNL     1     -11.086  12.176  67.106  0.00  0.00    +0.073 C 
ATOM     15  C   UNL     1     -11.711  12.207  68.495  0.00  0.00    +0.019 C 
ENDBRANCH  12  14
ENDBRANCH  11  12
ENDBRANCH   9  11
ENDBRANCH   8   9
ENDBRANCH   7   8
ENDBRANCH   1   7
BRANCH   4  16
ATOM     16  C   UNL     1     -10.598  15.409  70.097  0.00  0.00    +0.058 C 
BRANCH  16  17
ATOM     17  C   UNL     1     -11.981  15.742  69.619  0.00  0.00    +0.147 C 
BRANCH  17  18
ATOM     18  O   UNL     1     -12.717  16.110  70.747  0.00  0.00    -0.353 OA
BRANCH  18  19
ATOM     19  C   UNL     1     -12.246  15.403  71.837  0.00  0.00    +0.142 C 
BRANCH  19  20
ATOM     20  C   UNL     1     -13.367  14.798  72.641  0.00  0.00    +0.030 C 
ATOM     21  C   UNL     1     -13.675  13.368  72.366  0.00  0.00    +0.003 C 
ATOM     22  C   UNL     1     -14.599  14.498  71.835  0.00  0.00    +0.003 C 
ENDBRANCH  19  20
ENDBRANCH  18  19
ENDBRANCH  17  18
ENDBRANCH  16  17
ENDBRANCH   4  16
TORSDOF 11
ENDMDL
MODEL 2
REMARK VINA RESULT:      -5.5      2.278      5.813
REMARK  Name = 
REMARK  11 active torsions:
REMARK  status: ('A' for Active; 'I' for Inactive)
REMARK    1  A    between atoms: C_2  and  N_4
REMARK    2  A    between atoms: N_4  and  C_5
REMARK    3  A    between atoms: C_5  and  C_6
REMARK    4  A    between atoms: C_6  and  C_8
REMARK    5  A    between atoms: C_8  and  O_9
REMARK    6  A    between atoms: O_9  and  C_10
REMARK    7  A    between atoms: C_13  and  C_14
REMARK    8  A    between atoms: C_14  and  C_15
REMARK    9  A    between atoms: C_15  and  O_16
REMARK   10  A    between atoms: O_16  and  C_17
REMARK   11  A    between atoms: C_17  and  C_18
REMARK                            x       y       z     vdW  Elec       q    Type
REMARK                         _______ _______ _______ _____ _____    ______ ____
ROOT
ATOM      1  C   UNL     1     -11.687  12.485  66.314  0.00  0.00    +0.139 A 
ATOM      2  C   UNL     1     -10.351  12.715  65.998  0.00  0.00    +0.037 A 
ATOM      3  C   UNL     1      -9.958  13.867  65.323  0.00  0.00    -0.001 A 
ATOM      4  C   UNL     1     -10.898  14.813  64.926  0.00  0.00    -0.019 A 
ATOM      5  C   UNL     1     -12.186  14.303  64.803  0.00  0.00    -0.001 A 
ATOM      6  C   UNL     1     -12.577  13.151  65.479  0.00  0.00    +0.037 A 
ENDROOT
BRANCH   1   7
ATOM      7  O   UNL     1     -12.019  12.034  67.575  0.00  0.00    -0.473 OA
BRANCH   7   8
ATOM      8  C   UNL     1     -11.569  12.539  68.785  0.00  0.00    +0.240 C 
BRANCH   8   9
ATOM      9  C   UNL     1     -11.914  14.149  68.803  0.00  0.00    +0.213 C 
ATOM     10  O   UNL     1     -10.450  14.510  68.975  0.00  0.00    -0.218 OA
BRANCH   9  11
ATOM     11  C   UNL     1     -12.155  14.160  70.434  0.00  0.00    +0.125 C 
BRANCH  11  12
ATOM     12  N   UNL     1     -12.886  15.384  70.627  0.00  0.00    -0.217 NA
BRANCH  12  14
ATOM     13  C   UNL     1     -12.004  16.078  72.419  0.00  0.00    +0.019 C 
ATOM     14  C   UNL     1     -12.925  15.602  72.073  0.00  0.00    +0.073 C 
ATOM     15  C   UNL     1     -13.343  14.299  72.744  0.00  0.00    +0.019 C 
ENDBRANCH  12  14
ENDBRANCH  11  12
ENDBRANCH   9  11
ENDBRANCH   8   9
ENDBRANCH   7   8
ENDBRANCH   1   7
BRANCH   4  16
ATOM     16  C   UNL     1     -10.686  16.277  65.171  0.00  0.00    +0.058 C 
BRANCH  16  17
ATOM     17  C   UNL     1      -9.549  16.539  66.115  0.00  0.00    +0.147 C 
BRANCH  17  18
ATOM     18  O   UNL     1      -9.227  17.892  65.989  0.00  0.00    -0.353 OA
BRANCH  18  19
ATOM     19  C   UNL     1     -10.393  18.634  66.025  0.00  0.00    +0.142 C 
BRANCH  19  20
ATOM     20  C   UNL     1     -10.215  19.922  66.785  0.00  0.00    +0.030 C 
ATOM     21  C   UNL     1      -8.862  20.168  67.354  0.00  0.00    +0.003 C 
ATOM     22  C   UNL     1     -10.043  19.735  68.266  0.00  0.00    +0.003 C 
ENDBRANCH  19  20
ENDBRANCH  18  19
ENDBRANCH  17  18
ENDBRANCH  16  17
ENDBRANCH   4  16
TORSDOF 11
ENDMDL
MODEL 3
REMARK VINA RESULT:      -5.3      2.526      6.445
REMARK  Name = 
REMARK  11 active torsions:
REMARK  status: ('A' for Active; 'I' for Inactive)
REMARK    1  A    between atoms: C_2  and  N_4
REMARK    2  A    between atoms: N_4  and  C_5
REMARK    3  A    between atoms: C_5  and  C_6
REMARK    4  A    between atoms: C_6  and  C_8
REMARK    5  A    between atoms: C_8  and  O_9
REMARK    6  A    between atoms: O_9  and  C_10
REMARK    7  A    between atoms: C_13  and  C_14
REMARK    8  A    between atoms: C_14  and  C_15
REMARK    9  A    between atoms: C_15  and  O_16
REMARK   10  A    between atoms: O_16  and  C_17
REMARK   11  A    between atoms: C_17  and  C_18
REMARK                            x       y       z     vdW  Elec       q    Type
REMARK                         _______ _______ _______ _____ _____    ______ ____
ROOT
ATOM      1  C   UNL     1     -11.396  14.123  66.897  0.00  0.00    +0.139 A 
ATOM      2  C   UNL     1     -12.599  13.772  66.292  0.00  0.00    +0.037 A 
ATOM      3  C   UNL     1     -12.628  13.199  65.023  0.00  0.00    -0.001 A 
ATOM      4  C   UNL     1     -11.450  12.981  64.315  0.00  0.00    -0.019 A 
ATOM      5  C   UNL     1     -10.395  13.793  64.723  0.00  0.00    -0.001 A 
ATOM      6  C   UNL     1     -10.368  14.363  65.991  0.00  0.00    +0.037 A 
ENDROOT
BRANCH   1   7
ATOM      7  O   UNL     1     -11.182  13.799  68.221  0.00  0.00    -0.473 OA
BRANCH   7   8
ATOM      8  C   UNL     1     -10.738  14.647  69.225  0.00  0.00    +0.240 C 
BRANCH   8   9
ATOM      9  C   UNL     1     -11.971  15.679  69.577  0.00  0.00    +0.213 C 
ATOM     10  O   UNL     1     -11.038  16.877  69.557  0.00  0.00    -0.218 OA
BRANCH   9  11
ATOM     11  C   UNL     1     -11.770  15.491  71.202  0.00  0.00    +0.125 C 
BRANCH  11  12
ATOM     12  N   UNL     1     -13.033  15.946  71.720  0.00  0.00    -0.217 NA
BRANCH  12  14
ATOM     13  C   UNL     1     -12.578  15.235  73.660  0.00  0.00    +0.019 C 
ATOM     14  C   UNL     1     -13.323  15.091  72.872  0.00  0.00    +0.073 C 
ATOM     15  C   UNL     1     -13.556  13.672  72.370  0.00  0.00    +0.019 C 
ENDBRANCH  12  14
ENDBRANCH  11  12
ENDBRANCH   9  11
ENDBRANCH   8   9
ENDBRANCH   7   8
ENDBRANCH   1   7
BRANCH   4  16
ATOM     16  C   UNL     1     -11.177  11.674  63.634  0.00  0.00    +0.058 C 
BRANCH  16  17
ATOM     17  C   UNL     1      -9.728  11.503  63.286  0.00  0.00    +0.147 C 
BRANCH  17  18
ATOM     18  O   UNL     1      -9.115  10.923  64.399  0.00  0.00    -0.353 OA
BRANCH  18  19
ATOM     19  C   UNL     1      -9.880   9.852  64.822  0.00  0.00    +0.142 C 
BRANCH  19  20
ATOM     20  C   UNL     1      -9.820   9.674  66.316  0.00  0.00    +0.030 C 
ATOM     21  C   UNL     1     -10.825  10.433  67.109  0.00  0.00    +0.003 C 
ATOM     22  C   UNL     1      -9.342  10.893  67.054  0.00  0.00    +0.003 C 
ENDBRANCH  19  20
ENDBRANCH  18  19
ENDBRANCH  17  18
ENDBRANCH  16  17
ENDBRANCH   4  16
TORSDOF 11
ENDMDL
MODEL 4
REMARK VINA RESULT:      -5.2      2.599      4.648
REMARK  Name = 
REMARK  11 active torsions:
REMARK  status: ('A' for Active; 'I' for Inactive)
REMARK    1  A    between atoms: C_2  and  N_4
REMARK    2  A    between atoms: N_4  and  C_5
REMARK    3  A    between atoms: C_5  and  C_6
REMARK    4  A    between atoms: C_6  and  C_8
REMARK    5  A    between atoms: C_8  and  O_9
REMARK    6  A    between atoms: O_9  and  C_10
REMARK    7  A    between atoms: C_13  and  C_14
REMARK    8  A    between atoms: C_14  and  C_15
REMARK    9  A    between atoms: C_15  and  O_16
REMARK   10  A    between atoms: O_16  and  C_17
REMARK   11  A    between atoms: C_17  and  C_18
REMARK                            x       y       z     vdW  Elec       q    Type
REMARK                         _______ _______ _______ _____ _____    ______ ____
ROOT
ATOM      1  C   UNL     1     -10.209  15.423  65.781  0.00  0.00    +0.139 A 
ATOM      2  C   UNL     1     -11.494  14.904  65.662  0.00  0.00    +0.037 A 
ATOM      3  C   UNL     1     -12.058  14.135  66.677  0.00  0.00    -0.001 A 
ATOM      4  C   UNL     1     -11.338  13.846  67.832  0.00  0.00    -0.019 A 
ATOM      5  C   UNL     1      -9.959  13.936  67.667  0.00  0.00    -0.001 A 
ATOM      6  C   UNL     1      -9.398  14.705  66.653  0.00  0.00    +0.037 A 
ENDROOT
BRANCH   1   7
ATOM      7  O   UNL     1      -9.971  16.736  65.428  0.00  0.00    -0.473 OA
BRANCH   7   8
ATOM      8  C   UNL     1      -9.408  17.723  66.223  0.00  0.00    +0.240 C 
BRANCH   8   9
ATOM      9  C   UNL     1     -10.512  18.111  67.380  0.00  0.00    +0.213 C 
ATOM     10  O   UNL     1     -10.613  19.539  66.874  0.00  0.00    -0.218 OA
BRANCH   9  11
ATOM     11  C   UNL     1      -9.344  18.530  68.466  0.00  0.00    +0.125 C 
BRANCH  11  12
ATOM     12  N   UNL     1      -8.493  19.387  67.684  0.00  0.00    -0.217 NA
BRANCH  12  14
ATOM     13  C   UNL     1      -6.707  20.452  68.066  0.00  0.00    +0.019 C 
ATOM     14  C   UNL     1      -7.354  19.709  68.542  0.00  0.00    +0.073 C 
ATOM     15  C   UNL     1      -6.714  18.405  69.001  0.00  0.00    +0.019 C 
ENDBRANCH  12  14
ENDBRANCH  11  12
ENDBRANCH   9  11
ENDBRANCH   8   9
ENDBRANCH   7   8
ENDBRANCH   1   7
BRANCH   4  16
ATOM     16  C   UNL     1     -11.947  14.000  69.193  0.00  0.00    +0.058 C 
BRANCH  16  17
ATOM     17  C   UNL     1     -11.436  15.214  69.913  0.00  0.00    +0.147 C 
BRANCH  17  18
ATOM     18  O   UNL     1     -12.551  15.858  70.454  0.00  0.00    -0.353 OA
BRANCH  18  19
ATOM     19  C   UNL     1     -12.420  15.897  71.830  0.00  0.00    +0.142 C 
BRANCH  19  20
ATOM     20  C   UNL     1     -13.647  15.371  72.526  0.00  0.00    +0.030 C 
ATOM     21  C   UNL     1     -13.968  13.936  72.297  0.00  0.00    +0.003 C 
ATOM     22  C   UNL     1     -14.785  15.056  71.597  0.00  0.00    +0.003 C 
ENDBRANCH  19  20
ENDBRANCH  18  19
ENDBRANCH  17  18
ENDBRANCH  16  17
ENDBRANCH   4  16
TORSDOF 11
ENDMDL
MODEL 5
REMARK VINA RESULT:      -5.1      4.511      7.449
REMARK  Name = 
REMARK  11 active torsions:
REMARK  status: ('A' for Active; 'I' for Inactive)
REMARK    1  A    between atoms: C_2  and  N_4
REMARK    2  A    between atoms: N_4  and  C_5
REMARK    3  A    between atoms: C_5  and  C_6
REMARK    4  A    between atoms: C_6  and  C_8
REMARK    5  A    between atoms: C_8  and  O_9
REMARK    6  A    between atoms: O_9  and  C_10
REMARK    7  A    between atoms: C_13  and  C_14
REMARK    8  A    between atoms: C_14  and  C_15
REMARK    9  A    between atoms: C_15  and  O_16
REMARK   10  A    between atoms: O_16  and  C_17
REMARK   11  A    between atoms: C_17  and  C_18
REMARK                            x       y       z     vdW  Elec       q    Type
REMARK                         _______ _______ _______ _____ _____    ______ ____
ROOT
ATOM      1  C   UNL     1     -11.946  11.811  69.897  0.00  0.00    +0.139 A 
ATOM      2  C   UNL     1     -12.670  11.192  70.913  0.00  0.00    +0.037 A 
ATOM      3  C   UNL     1     -12.255   9.981  71.459  0.00  0.00    -0.001 A 
ATOM      4  C   UNL     1     -11.112   9.343  70.988  0.00  0.00    -0.019 A 
ATOM      5  C   UNL     1     -10.757   9.717  69.695  0.00  0.00    -0.001 A 
ATOM      6  C   UNL     1     -11.172  10.928  69.151  0.00  0.00    +0.037 A 
ENDROOT
BRANCH   1   7
ATOM      7  O   UNL     1     -11.699  13.166  69.968  0.00  0.00    -0.473 OA
BRANCH   7   8
ATOM      8  C   UNL     1     -11.877  14.099  68.958  0.00  0.00    +0.240 C 
BRANCH   8   9
ATOM      9  C   UNL     1     -11.825  15.591  69.653  0.00  0.00    +0.213 C 
ATOM     10  O   UNL     1     -10.781  15.139  70.659  0.00  0.00    -0.218 OA
BRANCH   9  11
ATOM     11  C   UNL     1     -13.050  15.236  70.695  0.00  0.00    +0.125 C 
BRANCH  11  12
ATOM     12  N   UNL     1     -12.744  16.073  71.824  0.00  0.00    -0.217 NA
BRANCH  12  14
ATOM     13  C   UNL     1     -12.569  15.363  73.809  0.00  0.00    +0.019 C 
ATOM     14  C   UNL     1     -13.296  15.387  72.992  0.00  0.00    +0.073 C 
ATOM     15  C   UNL     1     -13.889  14.060  72.535  0.00  0.00    +0.019 C 
ENDBRANCH  12  14
ENDBRANCH  11  12
ENDBRANCH   9  11
ENDBRANCH   8   9
ENDBRANCH   7   8
ENDBRANCH   1   7
BRANCH   4  16
ATOM     16  C   UNL     1     -10.079   8.795  71.925  0.00  0.00    +0.058 C 
BRANCH  16  17
ATOM     17  C   UNL     1     -10.566   7.584  72.665  0.00  0.00    +0.147 C 
BRANCH  17  18
ATOM     18  O   UNL     1     -11.213   6.775  71.729  0.00  0.00    -0.353 OA
BRANCH  18  19
ATOM     19  C   UNL     1     -10.513   5.589  71.605  0.00  0.00    +0.142 C 
BRANCH  19  20
ATOM     20  C   UNL     1     -10.321   5.198  70.164  0.00  0.00    +0.030 C 
ATOM     21  C   UNL     1      -9.555   6.156  69.320  0.00  0.00    +0.003 C 
ATOM     22  C   UNL     1     -11.100   6.043  69.196  0.00  0.00    +0.003 C 
ENDBRANCH  19  20
ENDBRANCH  18  19
ENDBRANCH  17  18
ENDBRANCH  16  17
ENDBRANCH   4  16
TORSDOF 11
ENDMDL
MODEL 6
REMARK VINA RESULT:      -5.1      2.434      6.460
REMARK  Name = 
REMARK  11 active torsions:
REMARK  status: ('A' for Active; 'I' for Inactive)
REMARK    1  A    between atoms: C_2  and  N_4
REMARK    2  A    between atoms: N_4  and  C_5
REMARK    3  A    between atoms: C_5  and  C_6
REMARK    4  A    between atoms: C_6  and  C_8
REMARK    5  A    between atoms: C_8  and  O_9
REMARK    6  A    between atoms: O_9  and  C_10
REMARK    7  A    between atoms: C_13  and  C_14
REMARK    8  A    between atoms: C_14  and  C_15
REMARK    9  A    between atoms: C_15  and  O_16
REMARK   10  A    between atoms: O_16  and  C_17
REMARK   11  A    between atoms: C_17  and  C_18
REMARK                            x       y       z     vdW  Elec       q    Type
REMARK                         _______ _______ _______ _____ _____    ______ ____
ROOT
ATOM      1  C   UNL     1     -10.067  12.698  68.118  0.00  0.00    +0.139 A 
ATOM      2  C   UNL     1      -8.874  12.484  67.434  0.00  0.00    +0.037 A 
ATOM      3  C   UNL     1      -8.741  11.437  66.526  0.00  0.00    -0.001 A 
ATOM      4  C   UNL     1      -9.797  10.560  66.294  0.00  0.00    -0.019 A 
ATOM      5  C   UNL     1     -10.718  10.508  67.336  0.00  0.00    -0.001 A 
ATOM      6  C   UNL     1     -10.850  11.555  68.242  0.00  0.00    +0.037 A 
ENDROOT
BRANCH   1   7
ATOM      7  O   UNL     1     -10.570  13.979  68.221  0.00  0.00    -0.473 OA
BRANCH   7   8
ATOM      8  C   UNL     1     -11.733  14.368  68.869  0.00  0.00    +0.240 C 
BRANCH   8   9
ATOM      9  C   UNL     1     -11.650  15.997  69.091  0.00  0.00    +0.213 C 
ATOM     10  O   UNL     1     -10.133  15.959  69.157  0.00  0.00    -0.218 OA
BRANCH   9  11
ATOM     11  C   UNL     1     -11.770  15.860  70.729  0.00  0.00    +0.125 C 
BRANCH  11  12
ATOM     12  N   UNL     1     -13.194  15.810  70.928  0.00  0.00    -0.217 NA
BRANCH  12  14
ATOM     13  C   UNL     1     -12.587  15.872  72.953  0.00  0.00    +0.019 C 
ATOM     14  C   UNL     1     -13.389  15.459  72.334  0.00  0.00    +0.073 C 
ATOM     15  C   UNL     1     -13.649  13.960  72.423  0.00  0.00    +0.019 C 
ENDBRANCH  12  14
ENDBRANCH  11  12
ENDBRANCH   9  11
ENDBRANCH   8   9
ENDBRANCH   7   8
ENDBRANCH   1   7
BRANCH   4  16
ATOM     16  C   UNL     1     -10.208  10.181  64.903  0.00  0.00    +0.058 C 
BRANCH  16  17
ATOM     17  C   UNL     1      -9.309  10.779  63.861  0.00  0.00    +0.147 C 
BRANCH  17  18
ATOM     18  O   UNL     1      -9.952  11.924  63.387  0.00  0.00    -0.353 OA
BRANCH  18  19
ATOM     19  C   UNL     1     -11.319  11.736  63.470  0.00  0.00    +0.142 C 
BRANCH  19  20
ATOM     20  C   UNL     1     -12.043  13.010  63.818  0.00  0.00    +0.030 C 
ATOM     21  C   UNL     1     -11.333  13.936  64.742  0.00  0.00    +0.003 C 
ATOM     22  C   UNL     1     -12.520  13.067  65.242  0.00  0.00    +0.003 C 
ENDBRANCH  19  20
ENDBRANCH  18  19
ENDBRANCH  17  18
ENDBRANCH  16  17
ENDBRANCH   4  16
TORSDOF 11
ENDMDL
MODEL 7
REMARK VINA RESULT:      -5.0      2.889      5.922
REMARK  Name = 
REMARK  11 active torsions:
REMARK  status: ('A' for Active; 'I' for Inactive)
REMARK    1  A    between atoms: C_2  and  N_4
REMARK    2  A    between atoms: N_4  and  C_5
REMARK    3  A    between atoms: C_5  and  C_6
REMARK    4  A    between atoms: C_6  and  C_8
REMARK    5  A    between atoms: C_8  and  O_9
REMARK    6  A    between atoms: O_9  and  C_10
REMARK    7  A    between atoms: C_13  and  C_14
REMARK    8  A    between atoms: C_14  and  C_15
REMARK    9  A    between atoms: C_15  and  O_16
REMARK   10  A    between atoms: O_16  and  C_17
REMARK   11  A    between atoms: C_17  and  C_18
REMARK                            x       y       z     vdW  Elec       q    Type
REMARK                         _______ _______ _______ _____ _____    ______ ____
ROOT
ATOM      1  C   UNL     1     -11.574  14.560  66.130  0.00  0.00    +0.139 A 
ATOM      2  C   UNL     1     -12.636  13.734  65.769  0.00  0.00    +0.037 A 
ATOM      3  C   UNL     1     -12.439  12.617  64.963  0.00  0.00    -0.001 A 
ATOM      4  C   UNL     1     -11.172  12.306  64.477  0.00  0.00    -0.019 A 
ATOM      5  C   UNL     1     -10.309  13.396  64.432  0.00  0.00    -0.001 A 
ATOM      6  C   UNL     1     -10.507  14.512  65.239  0.00  0.00    +0.037 A 
ENDROOT
BRANCH   1   7
ATOM      7  O   UNL     1     -11.454  14.980  67.439  0.00  0.00    -0.473 OA
BRANCH   7   8
ATOM      8  C   UNL     1     -10.347  14.838  68.260  0.00  0.00    +0.240 C 
BRANCH   8   9
ATOM      9  C   UNL     1     -10.314  16.139  69.269  0.00  0.00    +0.213 C 
ATOM     10  O   UNL     1     -11.771  16.457  68.983  0.00  0.00    -0.218 OA
BRANCH   9  11
ATOM     11  C   UNL     1      -9.810  17.154  68.072  0.00  0.00    +0.125 C 
BRANCH  11  12
ATOM     12  N   UNL     1     -10.630  18.316  68.291  0.00  0.00    -0.217 NA
BRANCH  12  14
ATOM     13  C   UNL     1     -10.294  18.422  66.206  0.00  0.00    +0.019 C 
ATOM     14  C   UNL     1     -10.608  19.064  67.034  0.00  0.00    +0.073 C 
ATOM     15  C   UNL     1      -9.835  20.357  67.258  0.00  0.00    +0.019 C 
ENDBRANCH  12  14
ENDBRANCH  11  12
ENDBRANCH   9  11
ENDBRANCH   8   9
ENDBRANCH   7   8
ENDBRANCH   1   7
BRANCH   4  16
ATOM     16  C   UNL     1     -10.626  10.912  64.552  0.00  0.00    +0.058 C 
BRANCH  16  17
ATOM     17  C   UNL     1      -9.241  10.873  65.129  0.00  0.00    +0.147 C 
BRANCH  17  18
ATOM     18  O   UNL     1      -9.356  10.329  66.410  0.00  0.00    -0.353 OA
BRANCH  18  19
ATOM     19  C   UNL     1      -9.217  11.343  67.339  0.00  0.00    +0.142 C 
BRANCH  19  20
ATOM     20  C   UNL     1     -10.065  11.106  68.561  0.00  0.00    +0.030 C 
ATOM     21  C   UNL     1     -10.972   9.928  68.512  0.00  0.00    +0.003 C 
ATOM     22  C   UNL     1     -11.529  11.368  68.344  0.00  0.00    +0.003 C 
ENDBRANCH  19  20
ENDBRANCH  18  19
ENDBRANCH  17  18
ENDBRANCH  16  17
ENDBRANCH   4  16
TORSDOF 11
ENDMDL
MODEL 8
REMARK VINA RESULT:      -5.0      2.734      5.148
REMARK  Name = 
REMARK  11 active torsions:
REMARK  status: ('A' for Active; 'I' for Inactive)
REMARK    1  A    between atoms: C_2  and  N_4
REMARK    2  A    between atoms: N_4  and  C_5
REMARK    3  A    between atoms: C_5  and  C_6
REMARK    4  A    between atoms: C_6  and  C_8
REMARK    5  A    between atoms: C_8  and  O_9
REMARK    6  A    between atoms: O_9  and  C_10
REMARK    7  A    between atoms: C_13  and  C_14
REMARK    8  A    between atoms: C_14  and  C_15
REMARK    9  A    between atoms: C_15  and  O_16
REMARK   10  A    between atoms: O_16  and  C_17
REMARK   11  A    between atoms: C_17  and  C_18
REMARK                            x       y       z     vdW  Elec       q    Type
REMARK                         _______ _______ _______ _____ _____    ______ ____
ROOT
ATOM      1  C   UNL     1     -10.824  14.926  66.753  0.00  0.00    +0.139 A 
ATOM      2  C   UNL     1     -11.971  14.273  66.311  0.00  0.00    +0.037 A 
ATOM      3  C   UNL     1     -12.027  12.884  66.236  0.00  0.00    -0.001 A 
ATOM      4  C   UNL     1     -10.923  12.109  66.582  0.00  0.00    -0.019 A 
ATOM      5  C   UNL     1      -9.715  12.794  66.505  0.00  0.00    -0.001 A 
ATOM      6  C   UNL     1      -9.661  14.182  66.581  0.00  0.00    +0.037 A 
ENDROOT
BRANCH   1   7
ATOM      7  O   UNL     1     -10.937  15.962  67.657  0.00  0.00    -0.473 OA
BRANCH   7   8
ATOM      8  C   UNL     1     -11.687  15.971  68.823  0.00  0.00    +0.240 C 
BRANCH   8   9
ATOM      9  C   UNL     1     -10.742  15.350  70.020  0.00  0.00    +0.213 C 
ATOM     10  O   UNL     1     -11.444  14.006  69.942  0.00  0.00    -0.218 OA
BRANCH   9  11
ATOM     11  C   UNL     1     -11.765  15.867  71.205  0.00  0.00    +0.125 C 
BRANCH  11  12
ATOM     12  N   UNL     1     -13.025  15.316  70.782  0.00  0.00    -0.217 NA
BRANCH  12  14
ATOM     13  C   UNL     1     -13.419  15.793  72.805  0.00  0.00    +0.019 C 
ATOM     14  C   UNL     1     -13.829  15.180  71.997  0.00  0.00    +0.073 C 
ATOM     15  C   UNL     1     -14.037  13.696  72.271  0.00  0.00    +0.019 C 
ENDBRANCH  12  14
ENDBRANCH  11  12
ENDBRANCH   9  11
ENDBRANCH   8   9
ENDBRANCH   7   8
ENDBRANCH   1   7
BRANCH   4  16
ATOM     16  C   UNL     1     -11.058  10.911  67.471  0.00  0.00    +0.058 C 
BRANCH  16  17
ATOM     17  C   UNL     1      -9.953  10.825  68.483  0.00  0.00    +0.147 C 
BRANCH  17  18
ATOM     18  O   UNL     1     -10.376   9.926  69.464  0.00  0.00    -0.353 OA
BRANCH  18  19
ATOM     19  C   UNL     1     -11.580  10.367  69.983  0.00  0.00    +0.142 C 
BRANCH  19  20
ATOM     20  C   UNL     1     -11.795   9.882  71.393  0.00  0.00    +0.030 C 
ATOM     21  C   UNL     1     -12.477   8.567  71.538  0.00  0.00    +0.003 C 
ATOM     22  C   UNL     1     -13.234   9.892  71.825  0.00  0.00    +0.003 C 
ENDBRANCH  19  20
ENDBRANCH  18  19
ENDBRANCH  17  18
ENDBRANCH  16  17
ENDBRANCH   4  16
TORSDOF 11
ENDMDL
MODEL 9
REMARK VINA RESULT:      -5.0      2.893      4.880
REMARK  Name = 
REMARK  11 active torsions:
REMARK  status: ('A' for Active; 'I' for Inactive)
REMARK    1  A    between atoms: C_2  and  N_4
REMARK    2  A    between atoms: N_4  and  C_5
REMARK    3  A    between atoms: C_5  and  C_6
REMARK    4  A    between atoms: C_6  and  C_8
REMARK    5  A    between atoms: C_8  and  O_9
REMARK    6  A    between atoms: O_9  and  C_10
REMARK    7  A    between atoms: C_13  and  C_14
REMARK    8  A    between atoms: C_14  and  C_15
REMARK    9  A    between atoms: C_15  and  O_16
REMARK   10  A    between atoms: O_16  and  C_17
REMARK   11  A    between atoms: C_17  and  C_18
REMARK                            x       y       z     vdW  Elec       q    Type
REMARK                         _______ _______ _______ _____ _____    ______ ____
ROOT
ATOM      1  C   UNL     1      -8.716  15.999  66.153  0.00  0.00    +0.139 A 
ATOM      2  C   UNL     1      -9.961  15.572  65.698  0.00  0.00    +0.037 A 
ATOM      3  C   UNL     1     -10.891  15.007  66.567  0.00  0.00    -0.001 A 
ATOM      4  C   UNL     1     -10.590  14.834  67.914  0.00  0.00    -0.019 A 
ATOM      5  C   UNL     1      -9.225  14.788  68.180  0.00  0.00    -0.001 A 
ATOM      6  C   UNL     1      -8.297  15.354  67.311  0.00  0.00    +0.037 A 
ENDROOT
BRANCH   1   7
ATOM      7  O   UNL     1      -8.227  17.223  65.745  0.00  0.00    -0.473 OA
BRANCH   7   8
ATOM      8  C   UNL     1      -6.964  17.739  65.991  0.00  0.00    +0.240 C 
BRANCH   8   9
ATOM      9  C   UNL     1      -7.055  19.372  65.800  0.00  0.00    +0.213 C 
ATOM     10  O   UNL     1      -5.578  19.539  66.111  0.00  0.00    -0.218 OA
BRANCH   9  11
ATOM     11  C   UNL     1      -7.462  19.614  67.379  0.00  0.00    +0.125 C 
BRANCH  11  12
ATOM     12  N   UNL     1      -8.695  20.345  67.269  0.00  0.00    -0.217 NA
BRANCH  12  14
ATOM     13  C   UNL     1      -9.161  18.889  68.730  0.00  0.00    +0.019 C 
ATOM     14  C   UNL     1      -9.664  19.622  68.093  0.00  0.00    +0.073 C 
ATOM     15  C   UNL     1     -10.785  19.122  67.190  0.00  0.00    +0.019 C 
ENDBRANCH  12  14
ENDBRANCH  11  12
ENDBRANCH   9  11
ENDBRANCH   8   9
ENDBRANCH   7   8
ENDBRANCH   1   7
BRANCH   4  16
ATOM     16  C   UNL     1     -11.555  15.234  68.989  0.00  0.00    +0.058 C 
BRANCH  16  17
ATOM     17  C   UNL     1     -12.130  14.049  69.709  0.00  0.00    +0.147 C 
BRANCH  17  18
ATOM     18  O   UNL     1     -12.245  14.414  71.052  0.00  0.00    -0.353 OA
BRANCH  18  19
ATOM     19  C   UNL     1     -13.330  15.260  71.193  0.00  0.00    +0.142 C 
BRANCH  19  20
ATOM     20  C   UNL     1     -13.467  15.766  72.605  0.00  0.00    +0.030 C 
ATOM     21  C   UNL     1     -12.230  16.304  73.233  0.00  0.00    +0.003 C 
ATOM     22  C   UNL     1     -12.780  14.906  73.628  0.00  0.00    +0.003 C 
ENDBRANCH  19  20
ENDBRANCH  18  19
ENDBRANCH  17  18
ENDBRANCH  16  17
ENDBRANCH   4  16
TORSDOF 11
ENDMDL
