MODEL 1
REMARK VINA RESULT:      -6.6      0.000      0.000
REMARK  Name = 
REMARK  2 active torsions:
REMARK  status: ('A' for Active; 'I' for Inactive)
REMARK    1  A    between atoms: C_5  and  S_6
REMARK    2  A    between atoms: S_6  and  N_9
REMARK                            x       y       z     vdW  Elec       q    Type
REMARK                         _______ _______ _______ _____ _____    ______ ____
ROOT
ATOM      1  S   UNL     1     -10.991  15.294  68.348  0.00  0.00    +0.096 S 
ATOM      2  O   UNL     1     -10.155  14.305  69.114  0.00  0.00    -0.148 OA
ATOM      3  O   UNL     1     -10.103  16.377  67.774  0.00  0.00    -0.148 OA
ENDROOT
BRANCH   1   8
ATOM      4  N   UNL     1     -12.793  12.305  63.596  0.00  0.00    -0.128 NA
ATOM      5  C   UNL     1     -12.166  12.950  64.687  0.00  0.00    +0.089 A 
ATOM      6  C   UNL     1     -11.876  14.289  64.592  0.00  0.00    +0.019 A 
ATOM      7  C   UNL     1     -11.462  14.961  65.713  0.00  0.00    +0.022 A 
ATOM      8  C   UNL     1     -11.650  14.413  66.974  0.00  0.00    +0.127 A 
ATOM      9  C   UNL     1     -11.600  13.029  67.034  0.00  0.00    +0.022 A 
ATOM     10  C   UNL     1     -12.021  12.320  65.917  0.00  0.00    +0.019 A 
ENDBRANCH   1   8
BRANCH   1  11
ATOM     11  N   UNL     1     -12.224  15.998  69.296  0.00  0.00    -0.058 NA
ATOM     12  C   UNL     1     -12.462  15.737  70.660  0.00  0.00    +0.259 A 
ATOM     13  N   UNL     1     -13.746  15.590  71.072  0.00  0.00    -0.210 NA
ATOM     14  C   UNL     1     -14.067  15.370  72.360  0.00  0.00    +0.104 A 
ATOM     15  C   UNL     1     -13.068  15.609  73.294  0.00  0.00    +0.041 A 
ATOM     16  C   UNL     1     -11.780  15.310  72.877  0.00  0.00    +0.104 A 
ATOM     17  N   UNL     1     -11.521  15.398  71.552  0.00  0.00    -0.210 NA
ENDBRANCH   1  11
TORSDOF 2
ENDMDL
MODEL 2
REMARK VINA RESULT:      -6.4      3.686      5.244
REMARK  Name = 
REMARK  2 active torsions:
REMARK  status: ('A' for Active; 'I' for Inactive)
REMARK    1  A    between atoms: C_5  and  S_6
REMARK    2  A    between atoms: S_6  and  N_9
REMARK                            x       y       z     vdW  Elec       q    Type
REMARK                         _______ _______ _______ _____ _____    ______ ____
ROOT
ATOM      1  S   UNL     1     -12.654  15.402  70.984  0.00  0.00    +0.096 S 
ATOM      2  O   UNL     1     -14.104  15.633  71.318  0.00  0.00    -0.148 OA
ATOM      3  O   UNL     1     -11.780  16.004  72.063  0.00  0.00    -0.148 OA
ENDROOT
BRANCH   1   8
ATOM      4  N   UNL     1     -12.225   9.522  71.065  0.00  0.00    -0.128 NA
ATOM      5  C   UNL     1     -12.491  10.902  70.911  0.00  0.00    +0.089 A 
ATOM      6  C   UNL     1     -13.202  11.557  71.886  0.00  0.00    +0.019 A 
ATOM      7  C   UNL     1     -13.283  12.925  71.846  0.00  0.00    +0.022 A 
ATOM      8  C   UNL     1     -12.408  13.661  71.060  0.00  0.00    +0.127 A 
ATOM      9  C   UNL     1     -11.984  13.036  69.898  0.00  0.00    +0.022 A 
ATOM     10  C   UNL     1     -11.884  11.651  69.910  0.00  0.00    +0.019 A 
ENDBRANCH   1   8
BRANCH   1  11
ATOM     11  N   UNL     1     -12.215  16.035  69.461  0.00  0.00    -0.058 NA
ATOM     12  C   UNL     1     -10.910  16.388  69.062  0.00  0.00    +0.259 A 
ATOM     13  N   UNL     1     -10.741  17.536  68.361  0.00  0.00    -0.210 NA
ATOM     14  C   UNL     1      -9.536  17.934  67.914  0.00  0.00    +0.104 A 
ATOM     15  C   UNL     1      -8.528  16.979  67.924  0.00  0.00    +0.041 A 
ATOM     16  C   UNL     1      -8.574  16.078  68.978  0.00  0.00    +0.104 A 
ATOM     17  N   UNL     1      -9.788  15.805  69.507  0.00  0.00    -0.210 NA
ENDBRANCH   1  11
TORSDOF 2
ENDMDL
MODEL 3
REMARK VINA RESULT:      -6.4      1.809      6.663
REMARK  Name = 
REMARK  2 active torsions:
REMARK  status: ('A' for Active; 'I' for Inactive)
REMARK    1  A    between atoms: C_5  and  S_6
REMARK    2  A    between atoms: S_6  and  N_9
REMARK                            x       y       z     vdW  Elec       q    Type
REMARK                         _______ _______ _______ _____ _____    ______ ____
ROOT
ATOM      1  S   UNL     1     -11.111  14.502  67.960  0.00  0.00    +0.096 S 
ATOM      2  O   UNL     1     -11.069  15.804  67.207  0.00  0.00    -0.148 OA
ATOM      3  O   UNL     1      -9.702  14.033  68.250  0.00  0.00    -0.148 OA
ENDROOT
BRANCH   1   8
ATOM      4  N   UNL     1     -13.256  15.472  73.365  0.00  0.00    -0.128 NA
ATOM      5  C   UNL     1     -12.565  15.173  72.169  0.00  0.00    +0.089 A 
ATOM      6  C   UNL     1     -12.839  13.996  71.517  0.00  0.00    +0.019 A 
ATOM      7  C   UNL     1     -12.331  13.797  70.260  0.00  0.00    +0.022 A 
ATOM      8  C   UNL     1     -11.844  14.864  69.519  0.00  0.00    +0.127 A 
ATOM      9  C   UNL     1     -11.273  15.889  70.257  0.00  0.00    +0.022 A 
ATOM     10  C   UNL     1     -11.772  16.120  71.532  0.00  0.00    +0.019 A 
ENDBRANCH   1   8
BRANCH   1  11
ATOM     11  N   UNL     1     -11.968  13.281  67.128  0.00  0.00    -0.058 NA
ATOM     12  C   UNL     1     -11.733  12.869  65.801  0.00  0.00    +0.259 A 
ATOM     13  N   UNL     1     -12.802  12.633  65.003  0.00  0.00    -0.210 NA
ATOM     14  C   UNL     1     -12.671  12.207  63.733  0.00  0.00    +0.104 A 
ATOM     15  C   UNL     1     -11.422  11.721  63.372  0.00  0.00    +0.041 A 
ATOM     16  C   UNL     1     -10.342  12.355  63.968  0.00  0.00    +0.104 A 
ATOM     17  N   UNL     1     -10.542  12.904  65.188  0.00  0.00    -0.210 NA
ENDBRANCH   1  11
TORSDOF 2
ENDMDL
MODEL 4
REMARK VINA RESULT:      -6.3      3.733      4.953
REMARK  Name = 
REMARK  2 active torsions:
REMARK  status: ('A' for Active; 'I' for Inactive)
REMARK    1  A    between atoms: C_5  and  S_6
REMARK    2  A    between atoms: S_6  and  N_9
REMARK                            x       y       z     vdW  Elec       q    Type
REMARK                         _______ _______ _______ _____ _____    ______ ____
ROOT
ATOM      1  S   UNL     1     -12.014  13.707  64.553  0.00  0.00    +0.096 S 
ATOM      2  O   UNL     1     -12.440  13.507  63.124  0.00  0.00    -0.148 OA
ATOM      3  O   UNL     1     -13.212  14.085  65.396  0.00  0.00    -0.148 OA
ENDROOT
BRANCH   1   8
ATOM      4  N   UNL     1      -9.826   8.594  66.511  0.00  0.00    -0.128 NA
ATOM      5  C   UNL     1     -10.170   9.907  66.115  0.00  0.00    +0.089 A 
ATOM      6  C   UNL     1     -10.006  10.271  64.801  0.00  0.00    +0.019 A 
ATOM      7  C   UNL     1     -10.528  11.463  64.371  0.00  0.00    +0.022 A 
ATOM      8  C   UNL     1     -11.480  12.131  65.127  0.00  0.00    +0.127 A 
ATOM      9  C   UNL     1     -11.370  11.968  66.500  0.00  0.00    +0.022 A 
ATOM     10  C   UNL     1     -10.852  10.767  66.967  0.00  0.00    +0.019 A 
ENDBRANCH   1   8
BRANCH   1  11
ATOM     11  N   UNL     1     -10.791  14.887  64.722  0.00  0.00    -0.058 NA
ATOM     12  C   UNL     1     -10.656  15.782  65.803  0.00  0.00    +0.259 A 
ATOM     13  N   UNL     1     -10.332  17.071  65.532  0.00  0.00    -0.210 NA
ATOM     14  C   UNL     1     -10.153  17.985  66.503  0.00  0.00    +0.104 A 
ATOM     15  C   UNL     1     -10.002  17.494  67.793  0.00  0.00    +0.041 A 
ATOM     16  C   UNL     1     -10.744  16.359  68.087  0.00  0.00    +0.104 A 
ATOM     17  N   UNL     1     -11.036  15.527  67.062  0.00  0.00    -0.210 NA
ENDBRANCH   1  11
TORSDOF 2
ENDMDL
MODEL 5
REMARK VINA RESULT:      -6.2      3.746      4.899
REMARK  Name = 
REMARK  2 active torsions:
REMARK  status: ('A' for Active; 'I' for Inactive)
REMARK    1  A    between atoms: C_5  and  S_6
REMARK    2  A    between atoms: S_6  and  N_9
REMARK                            x       y       z     vdW  Elec       q    Type
REMARK                         _______ _______ _______ _____ _____    ______ ____
ROOT
ATOM      1  S   UNL     1     -10.484  16.206  68.984  0.00  0.00    +0.096 S 
ATOM      2  O   UNL     1     -11.221  15.816  67.731  0.00  0.00    -0.148 OA
ATOM      3  O   UNL     1      -9.416  15.179  69.288  0.00  0.00    -0.148 OA
ENDROOT
BRANCH   1   8
ATOM      4  N   UNL     1      -7.535  21.040  67.343  0.00  0.00    -0.128 NA
ATOM      5  C   UNL     1      -8.228  19.823  67.532  0.00  0.00    +0.089 A 
ATOM      6  C   UNL     1      -7.555  18.748  68.058  0.00  0.00    +0.019 A 
ATOM      7  C   UNL     1      -8.265  17.637  68.435  0.00  0.00    +0.022 A 
ATOM      8  C   UNL     1      -9.640  17.704  68.606  0.00  0.00    +0.127 A 
ATOM      9  C   UNL     1     -10.298  18.604  67.783  0.00  0.00    +0.022 A 
ATOM     10  C   UNL     1      -9.608  19.743  67.390  0.00  0.00    +0.019 A 
ENDBRANCH   1   8
BRANCH   1  11
ATOM     11  N   UNL     1     -11.516  16.387  70.332  0.00  0.00    -0.058 NA
ATOM     12  C   UNL     1     -12.359  15.390  70.862  0.00  0.00    +0.259 A 
ATOM     13  N   UNL     1     -13.611  15.743  71.243  0.00  0.00    -0.210 NA
ATOM     14  C   UNL     1     -14.472  14.864  71.787  0.00  0.00    +0.104 A 
ATOM     15  C   UNL     1     -13.930  13.665  72.231  0.00  0.00    +0.041 A 
ATOM     16  C   UNL     1     -12.877  13.172  71.475  0.00  0.00    +0.104 A 
ATOM     17  N   UNL     1     -12.112  14.074  70.818  0.00  0.00    -0.210 NA
ENDBRANCH   1  11
TORSDOF 2
ENDMDL
MODEL 6
REMARK VINA RESULT:      -6.1      3.238      4.370
REMARK  Name = 
REMARK  2 active torsions:
REMARK  status: ('A' for Active; 'I' for Inactive)
REMARK    1  A    between atoms: C_5  and  S_6
REMARK    2  A    between atoms: S_6  and  N_9
REMARK                            x       y       z     vdW  Elec       q    Type
REMARK                         _______ _______ _______ _____ _____    ______ ____
ROOT
ATOM      1  S   UNL     1     -11.059  15.347  68.664  0.00  0.00    +0.096 S 
ATOM      2  O   UNL     1     -12.257  16.046  69.248  0.00  0.00    -0.148 OA
ATOM      3  O   UNL     1     -10.704  14.147  69.515  0.00  0.00    -0.148 OA
ENDROOT
BRANCH   1   8
ATOM      4  N   UNL     1     -12.382  13.089  63.381  0.00  0.00    -0.128 NA
ATOM      5  C   UNL     1     -11.888  13.511  64.637  0.00  0.00    +0.089 A 
ATOM      6  C   UNL     1     -11.256  14.726  64.730  0.00  0.00    +0.019 A 
ATOM      7  C   UNL     1     -10.964  15.230  65.971  0.00  0.00    +0.022 A 
ATOM      8  C   UNL     1     -11.576  14.715  67.105  0.00  0.00    +0.127 A 
ATOM      9  C   UNL     1     -11.891  13.366  67.048  0.00  0.00    +0.022 A 
ATOM     10  C   UNL     1     -12.201  12.828  65.806  0.00  0.00    +0.019 A 
ENDBRANCH   1   8
BRANCH   1  11
ATOM     11  N   UNL     1      -9.702  16.372  68.511  0.00  0.00    -0.058 NA
ATOM     12  C   UNL     1      -9.684  17.621  67.858  0.00  0.00    +0.259 A 
ATOM     13  N   UNL     1      -8.620  17.919  67.072  0.00  0.00    -0.210 NA
ATOM     14  C   UNL     1      -8.505  19.099  66.436  0.00  0.00    +0.104 A 
ATOM     15  C   UNL     1      -9.353  20.113  66.860  0.00  0.00    +0.041 A 
ATOM     16  C   UNL     1     -10.616  19.703  67.262  0.00  0.00    +0.104 A 
ATOM     17  N   UNL     1     -10.730  18.453  67.765  0.00  0.00    -0.210 NA
ENDBRANCH   1  11
TORSDOF 2
ENDMDL
MODEL 7
REMARK VINA RESULT:      -6.1      3.136      3.642
REMARK  Name = 
REMARK  2 active torsions:
REMARK  status: ('A' for Active; 'I' for Inactive)
REMARK    1  A    between atoms: C_5  and  S_6
REMARK    2  A    between atoms: S_6  and  N_9
REMARK                            x       y       z     vdW  Elec       q    Type
REMARK                         _______ _______ _______ _____ _____    ______ ____
ROOT
ATOM      1  S   UNL     1     -10.433  11.458  66.982  0.00  0.00    +0.096 S 
ATOM      2  O   UNL     1     -10.130  10.339  66.022  0.00  0.00    -0.148 OA
ATOM      3  O   UNL     1      -9.210  11.754  67.823  0.00  0.00    -0.148 OA
ENDROOT
BRANCH   1   8
ATOM      4  N   UNL     1     -11.570  16.421  64.008  0.00  0.00    -0.128 NA
ATOM      5  C   UNL     1     -11.344  15.344  64.896  0.00  0.00    +0.089 A 
ATOM      6  C   UNL     1     -12.321  14.392  65.050  0.00  0.00    +0.019 A 
ATOM      7  C   UNL     1     -12.029  13.245  65.743  0.00  0.00    +0.022 A 
ATOM      8  C   UNL     1     -10.712  12.887  65.992  0.00  0.00    +0.127 A 
ATOM      9  C   UNL     1      -9.829  13.944  66.153  0.00  0.00    +0.022 A 
ATOM     10  C   UNL     1     -10.094  15.116  65.457  0.00  0.00    +0.019 A 
ENDBRANCH   1   8
BRANCH   1  11
ATOM     11  N   UNL     1     -11.766  11.122  67.994  0.00  0.00    -0.058 NA
ATOM     12  C   UNL     1     -12.068  11.783  69.202  0.00  0.00    +0.259 A 
ATOM     13  N   UNL     1     -12.482  11.037  70.256  0.00  0.00    -0.210 NA
ATOM     14  C   UNL     1     -12.821  11.587  71.436  0.00  0.00    +0.104 A 
ATOM     15  C   UNL     1     -13.032  12.959  71.439  0.00  0.00    +0.041 A 
ATOM     16  C   UNL     1     -12.218  13.687  70.584  0.00  0.00    +0.104 A 
ATOM     17  N   UNL     1     -11.770  13.061  69.472  0.00  0.00    -0.210 NA
ENDBRANCH   1  11
TORSDOF 2
ENDMDL
MODEL 8
REMARK VINA RESULT:      -6.0      3.347      4.113
REMARK  Name = 
REMARK  2 active torsions:
REMARK  status: ('A' for Active; 'I' for Inactive)
REMARK    1  A    between atoms: C_5  and  S_6
REMARK    2  A    between atoms: S_6  and  N_9
REMARK                            x       y       z     vdW  Elec       q    Type
REMARK                         _______ _______ _______ _____ _____    ______ ____
ROOT
ATOM      1  S   UNL     1      -9.365  14.552  67.453  0.00  0.00    +0.096 S 
ATOM      2  O   UNL     1      -9.071  13.393  68.367  0.00  0.00    -0.148 OA
ATOM      3  O   UNL     1      -8.095  14.990  66.759  0.00  0.00    -0.148 OA
ENDROOT
BRANCH   1   8
ATOM      4  N   UNL     1     -13.016  12.122  63.512  0.00  0.00    -0.128 NA
ATOM      5  C   UNL     1     -12.236  12.577  64.599  0.00  0.00    +0.089 A 
ATOM      6  C   UNL     1     -10.964  12.085  64.759  0.00  0.00    +0.019 A 
ATOM      7  C   UNL     1     -10.134  12.671  65.679  0.00  0.00    +0.022 A 
ATOM      8  C   UNL     1     -10.426  13.924  66.196  0.00  0.00    +0.127 A 
ATOM      9  C   UNL     1     -11.776  14.220  66.310  0.00  0.00    +0.022 A 
ATOM     10  C   UNL     1     -12.641  13.648  65.387  0.00  0.00    +0.019 A 
ENDBRANCH   1   8
BRANCH   1  11
ATOM     11  N   UNL     1     -10.068  15.878  68.268  0.00  0.00    -0.058 NA
ATOM     12  C   UNL     1     -10.125  17.202  67.788  0.00  0.00    +0.259 A 
ATOM     13  N   UNL     1      -9.873  18.211  68.657  0.00  0.00    -0.210 NA
ATOM     14  C   UNL     1      -9.935  19.505  68.294  0.00  0.00    +0.104 A 
ATOM     15  C   UNL     1     -10.567  19.777  67.088  0.00  0.00    +0.041 A 
ATOM     16  C   UNL     1     -10.392  18.823  66.096  0.00  0.00    +0.104 A 
ATOM     17  N   UNL     1     -10.185  17.547  66.495  0.00  0.00    -0.210 NA
ENDBRANCH   1  11
TORSDOF 2
ENDMDL
MODEL 9
REMARK VINA RESULT:      -5.9      3.573      6.033
REMARK  Name = 
REMARK  2 active torsions:
REMARK  status: ('A' for Active; 'I' for Inactive)
REMARK    1  A    between atoms: C_5  and  S_6
REMARK    2  A    between atoms: S_6  and  N_9
REMARK                            x       y       z     vdW  Elec       q    Type
REMARK                         _______ _______ _______ _____ _____    ______ ____
ROOT
ATOM      1  S   UNL     1     -11.224  15.244  68.008  0.00  0.00    +0.096 S 
ATOM      2  O   UNL     1     -10.386  14.338  68.869  0.00  0.00    -0.148 OA
ATOM      3  O   UNL     1     -12.055  16.157  68.883  0.00  0.00    -0.148 OA
ENDROOT
BRANCH   1   8
ATOM      4  N   UNL     1      -7.271  18.831  65.504  0.00  0.00    -0.128 NA
ATOM      5  C   UNL     1      -8.099  17.989  66.280  0.00  0.00    +0.089 A 
ATOM      6  C   UNL     1      -9.255  18.500  66.815  0.00  0.00    +0.019 A 
ATOM      7  C   UNL     1     -10.159  17.644  67.388  0.00  0.00    +0.022 A 
ATOM      8  C   UNL     1     -10.092  16.280  67.145  0.00  0.00    +0.127 A 
ATOM      9  C   UNL     1      -8.817  15.777  66.934  0.00  0.00    +0.022 A 
ATOM     10  C   UNL     1      -7.881  16.618  66.347  0.00  0.00    +0.019 A 
ENDBRANCH   1   8
BRANCH   1  11
ATOM     11  N   UNL     1     -12.239  14.388  66.934  0.00  0.00    -0.058 NA
ATOM     12  C   UNL     1     -11.809  13.614  65.838  0.00  0.00    +0.259 A 
ATOM     13  N   UNL     1     -12.501  13.707  64.675  0.00  0.00    -0.210 NA
ATOM     14  C   UNL     1     -12.180  12.982  63.588  0.00  0.00    +0.104 A 
ATOM     15  C   UNL     1     -11.319  11.912  63.793  0.00  0.00    +0.041 A 
ATOM     16  C   UNL     1     -10.347  12.108  64.762  0.00  0.00    +0.104 A 
ATOM     17  N   UNL     1     -10.642  12.959  65.772  0.00  0.00    -0.210 NA
ENDBRANCH   1  11
TORSDOF 2
ENDMDL
