MODEL 1
REMARK VINA RESULT:      -3.2      0.000      0.000
REMARK  Name = 
REMARK  1 active torsions:
REMARK  status: ('A' for Active; 'I' for Inactive)
REMARK    1  A    between atoms: CA_2  and  C_3
REMARK                            x       y       z     vdW  Elec       q    Type
REMARK                         _______ _______ _______ _____ _____    ______ ____
ROOT
ATOM      1  C   GLY A   1     -13.441  15.000  72.833  0.00  0.00    +0.384 C 
ATOM      2  OXT GLY A   1     -14.000  13.732  72.654  0.00  0.00    -0.244 OA
ATOM      3  O   GLY A   1     -14.214  15.966  72.557  0.00  0.00    -0.244 OA
ENDROOT
BRANCH   1   5
ATOM      4  N   GLY A   1     -12.587  16.443  74.566  0.00  0.00    -0.119 NA
ATOM      5  CA  GLY A   1     -12.355  15.202  73.844  0.00  0.00    +0.223 C 
ENDBRANCH   1   5
TORSDOF 1
ENDMDL
MODEL 2
REMARK VINA RESULT:      -3.2     10.228     10.590
REMARK  Name = 
REMARK  1 active torsions:
REMARK  status: ('A' for Active; 'I' for Inactive)
REMARK    1  A    between atoms: CA_2  and  C_3
REMARK                            x       y       z     vdW  Elec       q    Type
REMARK                         _______ _______ _______ _____ _____    ______ ____
ROOT
ATOM      1  C   GLY A   1      -4.275  20.791  71.958  0.00  0.00    +0.384 C 
ATOM      2  OXT GLY A   1      -4.437  22.156  72.213  0.00  0.00    -0.244 OA
ATOM      3  O   GLY A   1      -3.291  20.254  72.551  0.00  0.00    -0.244 OA
ENDROOT
BRANCH   1   5
ATOM      4  N   GLY A   1      -5.155  18.550  71.848  0.00  0.00    -0.119 NA
ATOM      5  CA  GLY A   1      -5.462  19.951  71.605  0.00  0.00    +0.223 C 
ENDBRANCH   1   5
TORSDOF 1
ENDMDL
MODEL 3
REMARK VINA RESULT:      -3.2      8.860      9.038
REMARK  Name = 
REMARK  1 active torsions:
REMARK  status: ('A' for Active; 'I' for Inactive)
REMARK    1  A    between atoms: CA_2  and  C_3
REMARK                            x       y       z     vdW  Elec       q    Type
REMARK                         _______ _______ _______ _____ _____    ______ ____
ROOT
ATOM      1  C   GLY A   1     -12.411  14.524  64.462  0.00  0.00    +0.384 C 
ATOM      2  OXT GLY A   1     -12.475  13.780  63.280  0.00  0.00    -0.244 OA
ATOM      3  O   GLY A   1     -13.126  14.078  65.410  0.00  0.00    -0.244 OA
ENDROOT
BRANCH   1   5
ATOM      4  N   GLY A   1     -11.315  16.662  64.274  0.00  0.00    -0.119 NA
ATOM      5  CA  GLY A   1     -11.178  15.308  64.786  0.00  0.00    +0.223 C 
ENDBRANCH   1   5
TORSDOF 1
ENDMDL
MODEL 4
REMARK VINA RESULT:      -3.1      9.113      9.269
REMARK  Name = 
REMARK  1 active torsions:
REMARK  status: ('A' for Active; 'I' for Inactive)
REMARK    1  A    between atoms: CA_2  and  C_3
REMARK                            x       y       z     vdW  Elec       q    Type
REMARK                         _______ _______ _______ _____ _____    ______ ____
ROOT
ATOM      1  C   GLY A   1     -11.122  15.932  64.845  0.00  0.00    +0.384 C 
ATOM      2  OXT GLY A   1      -9.896  16.342  65.378  0.00  0.00    -0.244 OA
ATOM      3  O   GLY A   1     -11.573  16.673  63.921  0.00  0.00    -0.244 OA
ENDROOT
BRANCH   1   5
ATOM      4  N   GLY A   1     -12.539  14.237  63.881  0.00  0.00    -0.119 NA
ATOM      5  CA  GLY A   1     -11.501  14.484  64.869  0.00  0.00    +0.223 C 
ENDBRANCH   1   5
TORSDOF 1
ENDMDL
MODEL 5
REMARK VINA RESULT:      -3.0      8.343      8.634
REMARK  Name = 
REMARK  1 active torsions:
REMARK  status: ('A' for Active; 'I' for Inactive)
REMARK    1  A    between atoms: CA_2  and  C_3
REMARK                            x       y       z     vdW  Elec       q    Type
REMARK                         _______ _______ _______ _____ _____    ______ ____
ROOT
ATOM      1  C   GLY A   1     -12.338  12.827  65.299  0.00  0.00    +0.384 C 
ATOM      2  OXT GLY A   1     -12.102  12.077  66.454  0.00  0.00    -0.244 OA
ATOM      3  O   GLY A   1     -13.243  12.364  64.541  0.00  0.00    -0.244 OA
ENDROOT
BRANCH   1   5
ATOM      4  N   GLY A   1     -12.545  14.877  64.049  0.00  0.00    -0.119 NA
ATOM      5  CA  GLY A   1     -12.065  14.299  65.294  0.00  0.00    +0.223 C 
ENDBRANCH   1   5
TORSDOF 1
ENDMDL
MODEL 6
REMARK VINA RESULT:      -2.9      2.268      2.536
REMARK  Name = 
REMARK  1 active torsions:
REMARK  status: ('A' for Active; 'I' for Inactive)
REMARK    1  A    between atoms: CA_2  and  C_3
REMARK                            x       y       z     vdW  Elec       q    Type
REMARK                         _______ _______ _______ _____ _____    ______ ____
ROOT
ATOM      1  C   GLY A   1     -13.108  15.891  72.969  0.00  0.00    +0.384 C 
ATOM      2  OXT GLY A   1     -12.790  16.313  74.264  0.00  0.00    -0.244 OA
ATOM      3  O   GLY A   1     -14.328  16.023  72.653  0.00  0.00    -0.244 OA
ENDROOT
BRANCH   1   5
ATOM      4  N   GLY A   1     -12.714  15.928  70.592  0.00  0.00    -0.119 NA
ATOM      5  CA  GLY A   1     -12.067  15.928  71.894  0.00  0.00    +0.223 C 
ENDBRANCH   1   5
TORSDOF 1
ENDMDL
MODEL 7
REMARK VINA RESULT:      -2.9      9.773     10.069
REMARK  Name = 
REMARK  1 active torsions:
REMARK  status: ('A' for Active; 'I' for Inactive)
REMARK    1  A    between atoms: CA_2  and  C_3
REMARK                            x       y       z     vdW  Elec       q    Type
REMARK                         _______ _______ _______ _____ _____    ______ ____
ROOT
ATOM      1  C   GLY A   1      -5.175  20.162  71.358  0.00  0.00    +0.384 C 
ATOM      2  OXT GLY A   1      -4.929  18.941  71.993  0.00  0.00    -0.244 OA
ATOM      3  O   GLY A   1      -6.391  20.521  71.350  0.00  0.00    -0.244 OA
ENDROOT
BRANCH   1   5
ATOM      4  N   GLY A   1      -4.402  22.251  72.280  0.00  0.00    -0.119 NA
ATOM      5  CA  GLY A   1      -4.106  21.209  71.310  0.00  0.00    +0.223 C 
ENDBRANCH   1   5
TORSDOF 1
ENDMDL
MODEL 8
REMARK VINA RESULT:      -2.9      8.730      8.907
REMARK  Name = 
REMARK  1 active torsions:
REMARK  status: ('A' for Active; 'I' for Inactive)
REMARK    1  A    between atoms: CA_2  and  C_3
REMARK                            x       y       z     vdW  Elec       q    Type
REMARK                         _______ _______ _______ _____ _____    ______ ____
ROOT
ATOM      1  C   GLY A   1     -11.707  15.330  64.456  0.00  0.00    +0.384 C 
ATOM      2  OXT GLY A   1     -11.592  16.619  63.928  0.00  0.00    -0.244 OA
ATOM      3  O   GLY A   1     -12.609  14.617  63.922  0.00  0.00    -0.244 OA
ENDROOT
BRANCH   1   5
ATOM      4  N   GLY A   1     -10.795  14.341  66.455  0.00  0.00    -0.119 NA
ATOM      5  CA  GLY A   1     -10.514  14.662  65.066  0.00  0.00    +0.223 C 
ENDBRANCH   1   5
TORSDOF 1
ENDMDL
MODEL 9
REMARK VINA RESULT:      -2.8      2.364      2.538
REMARK  Name = 
REMARK  1 active torsions:
REMARK  status: ('A' for Active; 'I' for Inactive)
REMARK    1  A    between atoms: CA_2  and  C_3
REMARK                            x       y       z     vdW  Elec       q    Type
REMARK                         _______ _______ _______ _____ _____    ______ ____
ROOT
ATOM      1  C   GLY A   1     -12.800  15.846  73.138  0.00  0.00    +0.384 C 
ATOM      2  OXT GLY A   1     -12.382  15.276  74.345  0.00  0.00    -0.244 OA
ATOM      3  O   GLY A   1     -11.890  16.450  72.494  0.00  0.00    -0.244 OA
ENDROOT
BRANCH   1   5
ATOM      4  N   GLY A   1     -13.951  13.807  72.565  0.00  0.00    -0.119 NA
ATOM      5  CA  GLY A   1     -13.951  15.250  72.390  0.00  0.00    +0.223 C 
ENDBRANCH   1   5
TORSDOF 1
ENDMDL
