MODEL 1
REMARK VINA RESULT:      -7.8      0.000      0.000
REMARK  Name = 
REMARK  5 active torsions:
REMARK  status: ('A' for Active; 'I' for Inactive)
REMARK    1  A    between atoms: N_10  and  C_11
REMARK    2  A    between atoms: C_11  and  C_12
REMARK    3  A    between atoms: C_12  and  N_13
REMARK    4  A    between atoms: N_16  and  C_17
REMARK    5  A    between atoms: C_21  and  C_22
REMARK                            x       y       z     vdW  Elec       q    Type
REMARK                         _______ _______ _______ _____ _____    ______ ____
ROOT
ATOM      1  N   UNL     1     -11.029  13.680  67.627  0.00  0.00    -0.268 NA
ATOM      2  C   UNL     1      -9.648  13.468  67.488  0.00  0.00    +0.094 C 
ATOM      3  C   UNL     1      -9.028  13.778  66.172  0.00  0.00    +0.108 C 
ATOM      4  N   UNL     1      -9.569  15.069  65.746  0.00  0.00    -0.305 N 
ATOM      5  C   UNL     1     -11.013  15.009  65.531  0.00  0.00    +0.108 C 
ATOM      6  C   UNL     1     -11.751  14.345  66.629  0.00  0.00    +0.094 C 
ENDROOT
BRANCH   4   7
ATOM      7  C   UNL     1      -9.108  16.269  66.379  0.00  0.00    +0.048 A 
ATOM      8  C   UNL     1      -9.925  17.373  66.547  0.00  0.00    +0.018 A 
ATOM      9  C   UNL     1      -9.395  18.651  66.666  0.00  0.00    +0.073 A 
ATOM     10  C   UNL     1      -8.135  18.872  66.121  0.00  0.00    +0.004 A 
ATOM     11  C   UNL     1      -7.250  17.810  66.260  0.00  0.00    +0.001 A 
ATOM     12  C   UNL     1      -7.741  16.519  66.413  0.00  0.00    +0.015 A 
BRANCH   9  13
ATOM     13  C   UNL     1     -10.354  19.796  66.649  0.00  0.00    +0.419 C 
ATOM     14  F   UNL     1     -11.432  19.419  67.415  0.00  0.00    -0.166 F 
ATOM     15  F   UNL     1      -9.757  20.947  67.143  0.00  0.00    -0.166 F 
ATOM     16  F   UNL     1     -10.716  20.072  65.335  0.00  0.00    -0.166 F 
ENDBRANCH   9  13
ENDBRANCH   4   7
BRANCH   1  17
ATOM     17  C   UNL     1     -11.686  12.409  67.916  0.00  0.00    +0.097 C 
BRANCH  17  18
ATOM     18  C   UNL     1     -11.209  11.874  69.239  0.00  0.00    +0.128 C 
BRANCH  18  21
ATOM     19  O   UNL     1     -13.107   9.975  70.554  0.00  0.00    -0.244 OA
ATOM     20  C   UNL     1     -12.874  11.156  70.949  0.00  0.00    +0.350 A 
ATOM     21  N   UNL     1     -12.209  12.097  70.260  0.00  0.00    -0.277 N 
ATOM     22  C   UNL     1     -12.456  13.265  70.873  0.00  0.00    +0.082 A 
ATOM     23  C   UNL     1     -13.292  13.020  71.951  0.00  0.00    +0.102 A 
ATOM     24  C   UNL     1     -13.986  14.081  72.510  0.00  0.00    +0.021 A 
ATOM     25  C   UNL     1     -13.794  15.373  72.039  0.00  0.00    +0.002 A 
ATOM     26  C   UNL     1     -12.766  15.622  71.140  0.00  0.00    +0.002 A 
ATOM     27  C   UNL     1     -12.267  14.549  70.427  0.00  0.00    +0.019 A 
ATOM     28  N   UNL     1     -13.301  11.686  72.112  0.00  0.00    -0.191 NA
ENDBRANCH  18  21
ENDBRANCH  17  18
ENDBRANCH   1  17
TORSDOF 5
ENDMDL
MODEL 2
REMARK VINA RESULT:      -7.8      3.085      4.699
REMARK  Name = 
REMARK  5 active torsions:
REMARK  status: ('A' for Active; 'I' for Inactive)
REMARK    1  A    between atoms: N_10  and  C_11
REMARK    2  A    between atoms: C_11  and  C_12
REMARK    3  A    between atoms: C_12  and  N_13
REMARK    4  A    between atoms: N_16  and  C_17
REMARK    5  A    between atoms: C_21  and  C_22
REMARK                            x       y       z     vdW  Elec       q    Type
REMARK                         _______ _______ _______ _____ _____    ______ ____
ROOT
ATOM      1  N   UNL     1     -10.517  15.413  69.351  0.00  0.00    -0.268 NA
ATOM      2  C   UNL     1     -11.234  15.907  68.249  0.00  0.00    +0.094 C 
ATOM      3  C   UNL     1     -10.481  16.669  67.217  0.00  0.00    +0.108 C 
ATOM      4  N   UNL     1      -9.253  15.919  66.953  0.00  0.00    -0.305 N 
ATOM      5  C   UNL     1      -8.397  15.846  68.135  0.00  0.00    +0.108 C 
ATOM      6  C   UNL     1      -9.118  15.465  69.370  0.00  0.00    +0.094 C 
ENDROOT
BRANCH   4   7
ATOM      7  C   UNL     1      -9.317  14.711  66.185  0.00  0.00    +0.048 A 
ATOM      8  C   UNL     1     -10.302  14.491  65.239  0.00  0.00    +0.018 A 
ATOM      9  C   UNL     1     -10.684  13.206  64.880  0.00  0.00    +0.073 A 
ATOM     10  C   UNL     1     -10.455  12.192  65.804  0.00  0.00    +0.004 A 
ATOM     11  C   UNL     1      -9.271  12.318  66.520  0.00  0.00    +0.001 A 
ATOM     12  C   UNL     1      -8.696  13.573  66.685  0.00  0.00    +0.015 A 
BRANCH   9  13
ATOM     13  C   UNL     1     -11.883  13.066  64.000  0.00  0.00    +0.419 C 
ATOM     14  F   UNL     1     -12.379  14.334  63.805  0.00  0.00    -0.166 F 
ATOM     15  F   UNL     1     -11.544  12.463  62.797  0.00  0.00    -0.166 F 
ATOM     16  F   UNL     1     -12.809  12.230  64.614  0.00  0.00    -0.166 F 
ENDBRANCH   9  13
ENDBRANCH   4   7
BRANCH   1  17
ATOM     17  C   UNL     1     -11.028  16.024  70.573  0.00  0.00    +0.097 C 
BRANCH  17  18
ATOM     18  C   UNL     1     -12.498  15.738  70.715  0.00  0.00    +0.128 C 
BRANCH  18  21
ATOM     19  O   UNL     1     -13.152  15.209  73.583  0.00  0.00    -0.244 OA
ATOM     20  C   UNL     1     -13.199  14.344  72.658  0.00  0.00    +0.350 A 
ATOM     21  N   UNL     1     -12.702  14.492  71.421  0.00  0.00    -0.277 N 
ATOM     22  C   UNL     1     -12.671  13.268  70.872  0.00  0.00    +0.082 A 
ATOM     23  C   UNL     1     -13.158  12.364  71.804  0.00  0.00    +0.102 A 
ATOM     24  C   UNL     1     -12.886  11.017  71.630  0.00  0.00    +0.021 A 
ATOM     25  C   UNL     1     -12.196  10.578  70.508  0.00  0.00    +0.002 A 
ATOM     26  C   UNL     1     -11.949  11.468  69.471  0.00  0.00    +0.002 A 
ATOM     27  C   UNL     1     -12.002  12.817  69.762  0.00  0.00    +0.019 A 
ATOM     28  N   UNL     1     -13.715  13.105  72.776  0.00  0.00    -0.191 NA
ENDBRANCH  18  21
ENDBRANCH  17  18
ENDBRANCH   1  17
TORSDOF 5
ENDMDL
MODEL 3
REMARK VINA RESULT:      -7.7      2.685      3.632
REMARK  Name = 
REMARK  5 active torsions:
REMARK  status: ('A' for Active; 'I' for Inactive)
REMARK    1  A    between atoms: N_10  and  C_11
REMARK    2  A    between atoms: C_11  and  C_12
REMARK    3  A    between atoms: C_12  and  N_13
REMARK    4  A    between atoms: N_16  and  C_17
REMARK    5  A    between atoms: C_21  and  C_22
REMARK                            x       y       z     vdW  Elec       q    Type
REMARK                         _______ _______ _______ _____ _____    ______ ____
ROOT
ATOM      1  N   UNL     1      -9.323  15.741  67.587  0.00  0.00    -0.268 NA
ATOM      2  C   UNL     1      -9.317  16.379  66.337  0.00  0.00    +0.094 C 
ATOM      3  C   UNL     1      -9.909  17.740  66.249  0.00  0.00    +0.108 C 
ATOM      4  N   UNL     1      -9.411  18.491  67.401  0.00  0.00    -0.305 N 
ATOM      5  C   UNL     1      -9.863  17.912  68.664  0.00  0.00    +0.108 C 
ATOM      6  C   UNL     1      -9.690  16.444  68.741  0.00  0.00    +0.094 C 
ENDROOT
BRANCH   4   7
ATOM      7  C   UNL     1      -8.054  18.953  67.407  0.00  0.00    +0.048 A 
ATOM      8  C   UNL     1      -7.336  19.112  68.579  0.00  0.00    +0.018 A 
ATOM      9  C   UNL     1      -6.273  20.002  68.659  0.00  0.00    +0.073 A 
ATOM     10  C   UNL     1      -6.261  21.062  67.759  0.00  0.00    +0.004 A 
ATOM     11  C   UNL     1      -6.721  20.746  66.487  0.00  0.00    +0.001 A 
ATOM     12  C   UNL     1      -7.594  19.679  66.315  0.00  0.00    +0.015 A 
BRANCH   9  13
ATOM     13  C   UNL     1      -5.685  20.249  70.010  0.00  0.00    +0.419 C 
ATOM     14  F   UNL     1      -6.736  20.289  70.896  0.00  0.00    -0.166 F 
ATOM     15  F   UNL     1      -4.777  19.254  70.342  0.00  0.00    -0.166 F 
ATOM     16  F   UNL     1      -4.973  21.443  69.989  0.00  0.00    -0.166 F 
ENDBRANCH   9  13
ENDBRANCH   4   7
BRANCH   1  17
ATOM     17  C   UNL     1     -10.120  14.522  67.504  0.00  0.00    +0.097 C 
BRANCH  17  18
ATOM     18  C   UNL     1     -11.553  14.821  67.849  0.00  0.00    +0.128 C 
BRANCH  18  21
ATOM     19  O   UNL     1     -11.956  11.860  67.780  0.00  0.00    -0.244 OA
ATOM     20  C   UNL     1     -11.978  12.570  68.829  0.00  0.00    +0.350 A 
ATOM     21  N   UNL     1     -12.025  13.910  68.869  0.00  0.00    -0.277 N 
ATOM     22  C   UNL     1     -12.352  14.244  70.126  0.00  0.00    +0.082 A 
ATOM     23  C   UNL     1     -12.509  13.077  70.857  0.00  0.00    +0.102 A 
ATOM     24  C   UNL     1     -13.200  13.130  72.057  0.00  0.00    +0.021 A 
ATOM     25  C   UNL     1     -13.666  14.343  72.547  0.00  0.00    +0.002 A 
ATOM     26  C   UNL     1     -13.272  15.521  71.928  0.00  0.00    +0.002 A 
ATOM     27  C   UNL     1     -12.808  15.437  70.630  0.00  0.00    +0.019 A 
ATOM     28  N   UNL     1     -12.009  12.094  70.090  0.00  0.00    -0.191 NA
ENDBRANCH  18  21
ENDBRANCH  17  18
ENDBRANCH   1  17
TORSDOF 5
ENDMDL
MODEL 4
REMARK VINA RESULT:      -7.7      4.755      8.095
REMARK  Name = 
REMARK  5 active torsions:
REMARK  status: ('A' for Active; 'I' for Inactive)
REMARK    1  A    between atoms: N_10  and  C_11
REMARK    2  A    between atoms: C_11  and  C_12
REMARK    3  A    between atoms: C_12  and  N_13
REMARK    4  A    between atoms: N_16  and  C_17
REMARK    5  A    between atoms: C_21  and  C_22
REMARK                            x       y       z     vdW  Elec       q    Type
REMARK                         _______ _______ _______ _____ _____    ______ ____
ROOT
ATOM      1  N   UNL     1     -12.053  12.636  66.719  0.00  0.00    -0.268 NA
ATOM      2  C   UNL     1     -11.162  11.676  66.215  0.00  0.00    +0.094 C 
ATOM      3  C   UNL     1      -9.894  11.447  66.960  0.00  0.00    +0.108 C 
ATOM      4  N   UNL     1     -10.247  11.375  68.377  0.00  0.00    -0.305 N 
ATOM      5  C   UNL     1     -10.804  12.635  68.864  0.00  0.00    +0.108 C 
ATOM      6  C   UNL     1     -11.845  13.206  67.981  0.00  0.00    +0.094 C 
ENDROOT
BRANCH   4   7
ATOM      7  C   UNL     1     -10.895  10.201  68.883  0.00  0.00    +0.048 A 
ATOM      8  C   UNL     1     -11.844  10.259  69.888  0.00  0.00    +0.018 A 
ATOM      9  C   UNL     1     -12.087   9.170  70.715  0.00  0.00    +0.073 A 
ATOM     10  C   UNL     1     -11.062   8.242  70.864  0.00  0.00    +0.004 A 
ATOM     11  C   UNL     1     -10.326   8.002  69.709  0.00  0.00    +0.001 A 
ATOM     12  C   UNL     1     -10.268   8.972  68.716  0.00  0.00    +0.015 A 
BRANCH   9  13
ATOM     13  C   UNL     1     -12.984   9.387  71.890  0.00  0.00    +0.419 C 
ATOM     14  F   UNL     1     -12.458   8.654  72.928  0.00  0.00    -0.166 F 
ATOM     15  F   UNL     1     -13.063  10.735  72.208  0.00  0.00    -0.166 F 
ATOM     16  F   UNL     1     -14.274   8.982  71.564  0.00  0.00    -0.166 F 
ENDBRANCH   9  13
ENDBRANCH   4   7
BRANCH   1  17
ATOM     17  C   UNL     1     -12.216  13.705  65.740  0.00  0.00    +0.097 C 
BRANCH  17  18
ATOM     18  C   UNL     1     -10.930  13.914  64.989  0.00  0.00    +0.128 C 
BRANCH  18  21
ATOM     19  O   UNL     1     -11.611  16.584  63.829  0.00  0.00    -0.244 OA
ATOM     20  C   UNL     1     -10.896  16.403  64.860  0.00  0.00    +0.350 A 
ATOM     21  N   UNL     1     -10.393  15.228  65.268  0.00  0.00    -0.277 N 
ATOM     22  C   UNL     1      -9.458  15.512  66.188  0.00  0.00    +0.082 A 
ATOM     23  C   UNL     1      -9.395  16.889  66.331  0.00  0.00    +0.102 A 
ATOM     24  C   UNL     1      -8.276  17.447  66.926  0.00  0.00    +0.021 A 
ATOM     25  C   UNL     1      -7.268  16.635  67.429  0.00  0.00    +0.002 A 
ATOM     26  C   UNL     1      -7.476  15.264  67.504  0.00  0.00    +0.002 A 
ATOM     27  C   UNL     1      -8.460  14.722  66.701  0.00  0.00    +0.019 A 
ATOM     28  N   UNL     1     -10.477  17.372  65.696  0.00  0.00    -0.191 NA
ENDBRANCH  18  21
ENDBRANCH  17  18
ENDBRANCH   1  17
TORSDOF 5
ENDMDL
MODEL 5
REMARK VINA RESULT:      -7.4      4.151      6.064
REMARK  Name = 
REMARK  5 active torsions:
REMARK  status: ('A' for Active; 'I' for Inactive)
REMARK    1  A    between atoms: N_10  and  C_11
REMARK    2  A    between atoms: C_11  and  C_12
REMARK    3  A    between atoms: C_12  and  N_13
REMARK    4  A    between atoms: N_16  and  C_17
REMARK    5  A    between atoms: C_21  and  C_22
REMARK                            x       y       z     vdW  Elec       q    Type
REMARK                         _______ _______ _______ _____ _____    ______ ____
ROOT
ATOM      1  N   UNL     1     -10.023  11.027  68.031  0.00  0.00    -0.268 NA
ATOM      2  C   UNL     1      -9.174  12.133  67.866  0.00  0.00    +0.094 C 
ATOM      3  C   UNL     1      -9.743  13.358  67.244  0.00  0.00    +0.108 C 
ATOM      4  N   UNL     1     -11.044  13.584  67.875  0.00  0.00    -0.305 N 
ATOM      5  C   UNL     1     -11.978  12.495  67.599  0.00  0.00    +0.108 C 
ATOM      6  C   UNL     1     -11.399  11.148  67.805  0.00  0.00    +0.094 C 
ENDROOT
BRANCH   4   7
ATOM      7  C   UNL     1     -11.099  14.093  69.213  0.00  0.00    +0.048 A 
ATOM      8  C   UNL     1     -11.965  13.579  70.161  0.00  0.00    +0.018 A 
ATOM      9  C   UNL     1     -12.394  14.345  71.237  0.00  0.00    +0.073 A 
ATOM     10  C   UNL     1     -12.367  15.728  71.086  0.00  0.00    +0.004 A 
ATOM     11  C   UNL     1     -11.281  16.210  70.366  0.00  0.00    +0.001 A 
ATOM     12  C   UNL     1     -10.638  15.382  69.453  0.00  0.00    +0.015 A 
BRANCH   9  13
ATOM     13  C   UNL     1     -13.475  13.777  72.097  0.00  0.00    +0.419 C 
ATOM     14  F   UNL     1     -13.181  14.138  73.391  0.00  0.00    -0.166 F 
ATOM     15  F   UNL     1     -14.719  14.254  71.707  0.00  0.00    -0.166 F 
ATOM     16  F   UNL     1     -13.513  12.396  71.935  0.00  0.00    -0.166 F 
ENDBRANCH   9  13
ENDBRANCH   4   7
BRANCH   1  17
ATOM     17  C   UNL     1      -9.513   9.905  67.251  0.00  0.00    +0.097 C 
BRANCH  17  18
ATOM     18  C   UNL     1      -8.980   8.840  68.170  0.00  0.00    +0.128 C 
BRANCH  18  21
ATOM     19  O   UNL     1     -10.653   6.805  66.756  0.00  0.00    -0.244 OA
ATOM     20  C   UNL     1     -10.618   6.969  68.013  0.00  0.00    +0.350 A 
ATOM     21  N   UNL     1     -10.059   8.007  68.653  0.00  0.00    -0.277 N 
ATOM     22  C   UNL     1     -10.510   7.964  69.917  0.00  0.00    +0.082 A 
ATOM     23  C   UNL     1     -11.363   6.878  70.035  0.00  0.00    +0.102 A 
ATOM     24  C   UNL     1     -12.235   6.831  71.110  0.00  0.00    +0.021 A 
ATOM     25  C   UNL     1     -12.207   7.821  72.083  0.00  0.00    +0.002 A 
ATOM     26  C   UNL     1     -11.176   8.750  72.076  0.00  0.00    +0.002 A 
ATOM     27  C   UNL     1     -10.485   8.928  70.893  0.00  0.00    +0.019 A 
ATOM     28  N   UNL     1     -11.185   6.150  68.920  0.00  0.00    -0.191 NA
ENDBRANCH  18  21
ENDBRANCH  17  18
ENDBRANCH   1  17
TORSDOF 5
ENDMDL
MODEL 6
REMARK VINA RESULT:      -7.4      3.161      5.407
REMARK  Name = 
REMARK  5 active torsions:
REMARK  status: ('A' for Active; 'I' for Inactive)
REMARK    1  A    between atoms: N_10  and  C_11
REMARK    2  A    between atoms: C_11  and  C_12
REMARK    3  A    between atoms: C_12  and  N_13
REMARK    4  A    between atoms: N_16  and  C_17
REMARK    5  A    between atoms: C_21  and  C_22
REMARK                            x       y       z     vdW  Elec       q    Type
REMARK                         _______ _______ _______ _____ _____    ______ ____
ROOT
ATOM      1  N   UNL     1     -10.219  14.213  67.862  0.00  0.00    -0.268 NA
ATOM      2  C   UNL     1     -11.255  15.074  68.256  0.00  0.00    +0.094 C 
ATOM      3  C   UNL     1     -10.945  16.115  69.272  0.00  0.00    +0.108 C 
ATOM      4  N   UNL     1      -9.669  16.714  68.884  0.00  0.00    -0.305 N 
ATOM      5  C   UNL     1      -8.577  15.743  68.923  0.00  0.00    +0.108 C 
ATOM      6  C   UNL     1      -8.900  14.458  68.263  0.00  0.00    +0.094 C 
ENDROOT
BRANCH   4   7
ATOM      7  C   UNL     1      -9.624  17.618  67.772  0.00  0.00    +0.048 A 
ATOM      8  C   UNL     1      -8.466  17.837  67.048  0.00  0.00    +0.018 A 
ATOM      9  C   UNL     1      -8.265  19.021  66.350  0.00  0.00    +0.073 A 
ATOM     10  C   UNL     1      -8.963  20.142  66.783  0.00  0.00    +0.004 A 
ATOM     11  C   UNL     1     -10.256  19.884  67.223  0.00  0.00    +0.001 A 
ATOM     12  C   UNL     1     -10.585  18.618  67.690  0.00  0.00    +0.015 A 
BRANCH   9  13
ATOM     13  C   UNL     1      -6.911  19.249  65.761  0.00  0.00    +0.419 C 
ATOM     14  F   UNL     1      -7.027  20.322  64.909  0.00  0.00    -0.166 F 
ATOM     15  F   UNL     1      -5.974  19.489  66.757  0.00  0.00    -0.166 F 
ATOM     16  F   UNL     1      -6.498  18.097  65.100  0.00  0.00    -0.166 F 
ENDBRANCH   9  13
ENDBRANCH   4   7
BRANCH   1  17
ATOM     17  C   UNL     1     -10.571  12.841  68.213  0.00  0.00    +0.097 C 
BRANCH  17  18
ATOM     18  C   UNL     1     -11.844  12.443  67.515  0.00  0.00    +0.128 C 
BRANCH  18  21
ATOM     19  O   UNL     1     -13.167  13.899  65.265  0.00  0.00    -0.244 OA
ATOM     20  C   UNL     1     -12.115  13.202  65.157  0.00  0.00    +0.350 A 
ATOM     21  N   UNL     1     -11.630  12.364  66.087  0.00  0.00    -0.277 N 
ATOM     22  C   UNL     1     -10.711  11.602  65.474  0.00  0.00    +0.082 A 
ATOM     23  C   UNL     1     -10.647  11.989  64.144  0.00  0.00    +0.102 A 
ATOM     24  C   UNL     1     -10.063  11.128  63.228  0.00  0.00    +0.021 A 
ATOM     25  C   UNL     1      -9.497   9.933  63.649  0.00  0.00    +0.002 A 
ATOM     26  C   UNL     1      -9.346   9.694  65.008  0.00  0.00    +0.002 A 
ATOM     27  C   UNL     1     -10.135  10.424  65.876  0.00  0.00    +0.019 A 
ATOM     28  N   UNL     1     -11.327  13.144  64.065  0.00  0.00    -0.191 NA
ENDBRANCH  18  21
ENDBRANCH  17  18
ENDBRANCH   1  17
TORSDOF 5
ENDMDL
MODEL 7
REMARK VINA RESULT:      -7.4      4.322      8.463
REMARK  Name = 
REMARK  5 active torsions:
REMARK  status: ('A' for Active; 'I' for Inactive)
REMARK    1  A    between atoms: N_10  and  C_11
REMARK    2  A    between atoms: C_11  and  C_12
REMARK    3  A    between atoms: C_12  and  N_13
REMARK    4  A    between atoms: N_16  and  C_17
REMARK    5  A    between atoms: C_21  and  C_22
REMARK                            x       y       z     vdW  Elec       q    Type
REMARK                         _______ _______ _______ _____ _____    ______ ____
ROOT
ATOM      1  N   UNL     1      -9.438  15.069  68.624  0.00  0.00    -0.268 NA
ATOM      2  C   UNL     1     -10.189  15.918  69.452  0.00  0.00    +0.094 C 
ATOM      3  C   UNL     1     -11.665  15.936  69.270  0.00  0.00    +0.108 C 
ATOM      4  N   UNL     1     -12.092  14.542  69.152  0.00  0.00    -0.305 N 
ATOM      5  C   UNL     1     -11.526  13.898  67.969  0.00  0.00    +0.108 C 
ATOM      6  C   UNL     1     -10.074  14.132  67.801  0.00  0.00    +0.094 C 
ENDROOT
BRANCH   4   7
ATOM      7  C   UNL     1     -12.127  13.715  70.323  0.00  0.00    +0.048 A 
ATOM      8  C   UNL     1     -12.000  12.339  70.256  0.00  0.00    +0.018 A 
ATOM      9  C   UNL     1     -12.526  11.518  71.244  0.00  0.00    +0.073 A 
ATOM     10  C   UNL     1     -13.583  12.020  71.995  0.00  0.00    +0.004 A 
ATOM     11  C   UNL     1     -13.490  13.376  72.289  0.00  0.00    +0.001 A 
ATOM     12  C   UNL     1     -12.743  14.210  71.466  0.00  0.00    +0.015 A 
BRANCH   9  13
ATOM     13  C   UNL     1     -12.512  10.045  70.992  0.00  0.00    +0.419 C 
ATOM     14  F   UNL     1     -11.826   9.853  69.816  0.00  0.00    -0.166 F 
ATOM     15  F   UNL     1     -11.912   9.370  72.046  0.00  0.00    -0.166 F 
ATOM     16  F   UNL     1     -13.820   9.579  70.917  0.00  0.00    -0.166 F 
ENDBRANCH   9  13
ENDBRANCH   4   7
BRANCH   1  17
ATOM     17  C   UNL     1      -8.527  15.869  67.810  0.00  0.00    +0.097 C 
BRANCH  17  18
ATOM     18  C   UNL     1      -9.302  16.620  66.762  0.00  0.00    +0.128 C 
BRANCH  18  21
ATOM     19  O   UNL     1     -10.971  18.980  67.525  0.00  0.00    -0.244 OA
ATOM     20  C   UNL     1      -9.714  19.003  67.364  0.00  0.00    +0.350 A 
ATOM     21  N   UNL     1      -8.976  18.028  66.809  0.00  0.00    -0.277 N 
ATOM     22  C   UNL     1      -7.775  18.564  66.540  0.00  0.00    +0.082 A 
ATOM     23  C   UNL     1      -7.795  19.892  66.938  0.00  0.00    +0.102 A 
ATOM     24  C   UNL     1      -6.830  20.751  66.438  0.00  0.00    +0.021 A 
ATOM     25  C   UNL     1      -5.826  20.273  65.607  0.00  0.00    +0.002 A 
ATOM     26  C   UNL     1      -5.681  18.903  65.435  0.00  0.00    +0.002 A 
ATOM     27  C   UNL     1      -6.769  18.105  65.728  0.00  0.00    +0.019 A 
ATOM     28  N   UNL     1      -8.907  20.036  67.677  0.00  0.00    -0.191 NA
ENDBRANCH  18  21
ENDBRANCH  17  18
ENDBRANCH   1  17
TORSDOF 5
ENDMDL
MODEL 8
REMARK VINA RESULT:      -7.4      1.847      2.416
REMARK  Name = 
REMARK  5 active torsions:
REMARK  status: ('A' for Active; 'I' for Inactive)
REMARK    1  A    between atoms: N_10  and  C_11
REMARK    2  A    between atoms: C_11  and  C_12
REMARK    3  A    between atoms: C_12  and  N_13
REMARK    4  A    between atoms: N_16  and  C_17
REMARK    5  A    between atoms: C_21  and  C_22
REMARK                            x       y       z     vdW  Elec       q    Type
REMARK                         _______ _______ _______ _____ _____    ______ ____
ROOT
ATOM      1  N   UNL     1      -9.341  15.119  67.862  0.00  0.00    -0.268 NA
ATOM      2  C   UNL     1      -8.970  15.268  69.207  0.00  0.00    +0.094 C 
ATOM      3  C   UNL     1      -7.522  15.405  69.517  0.00  0.00    +0.108 C 
ATOM      4  N   UNL     1      -6.973  16.353  68.548  0.00  0.00    -0.305 N 
ATOM      5  C   UNL     1      -7.068  15.849  67.180  0.00  0.00    +0.108 C 
ATOM      6  C   UNL     1      -8.399  15.296  66.841  0.00  0.00    +0.094 C 
ENDROOT
BRANCH   4   7
ATOM      7  C   UNL     1      -7.257  17.750  68.691  0.00  0.00    +0.048 A 
ATOM      8  C   UNL     1      -8.431  18.314  68.225  0.00  0.00    +0.018 A 
ATOM      9  C   UNL     1      -8.503  19.660  67.892  0.00  0.00    +0.073 A 
ATOM     10  C   UNL     1      -7.315  20.296  67.547  0.00  0.00    +0.004 A 
ATOM     11  C   UNL     1      -6.207  19.888  68.281  0.00  0.00    +0.001 A 
ATOM     12  C   UNL     1      -6.195  18.629  68.869  0.00  0.00    +0.015 A 
BRANCH   9  13
ATOM     13  C   UNL     1      -9.749  20.135  67.218  0.00  0.00    +0.419 C 
ATOM     14  F   UNL     1     -10.780  19.370  67.710  0.00  0.00    -0.166 F 
ATOM     15  F   UNL     1      -9.958  21.485  67.462  0.00  0.00    -0.166 F 
ATOM     16  F   UNL     1      -9.606  20.000  65.841  0.00  0.00    -0.166 F 
ENDBRANCH   9  13
ENDBRANCH   4   7
BRANCH   1  17
ATOM     17  C   UNL     1      -9.995  13.828  67.680  0.00  0.00    +0.097 C 
BRANCH  17  18
ATOM     18  C   UNL     1     -11.489  13.995  67.752  0.00  0.00    +0.128 C 
BRANCH  18  21
ATOM     19  O   UNL     1     -12.056  11.096  68.217  0.00  0.00    -0.244 OA
ATOM     20  C   UNL     1     -12.043  11.986  69.119  0.00  0.00    +0.350 A 
ATOM     21  N   UNL     1     -12.016  13.312  68.913  0.00  0.00    -0.277 N 
ATOM     22  C   UNL     1     -12.329  13.888  70.084  0.00  0.00    +0.082 A 
ATOM     23  C   UNL     1     -12.555  12.884  71.013  0.00  0.00    +0.102 A 
ATOM     24  C   UNL     1     -13.246  13.193  72.173  0.00  0.00    +0.021 A 
ATOM     25  C   UNL     1     -13.646  14.498  72.426  0.00  0.00    +0.002 A 
ATOM     26  C   UNL     1     -13.185  15.520  71.609  0.00  0.00    +0.002 A 
ATOM     27  C   UNL     1     -12.720  15.175  70.355  0.00  0.00    +0.019 A 
ATOM     28  N   UNL     1     -12.106  11.752  70.445  0.00  0.00    -0.191 NA
ENDBRANCH  18  21
ENDBRANCH  17  18
ENDBRANCH   1  17
TORSDOF 5
ENDMDL
MODEL 9
REMARK VINA RESULT:      -7.3      4.012      5.505
REMARK  Name = 
REMARK  5 active torsions:
REMARK  status: ('A' for Active; 'I' for Inactive)
REMARK    1  A    between atoms: N_10  and  C_11
REMARK    2  A    between atoms: C_11  and  C_12
REMARK    3  A    between atoms: C_12  and  N_13
REMARK    4  A    between atoms: N_16  and  C_17
REMARK    5  A    between atoms: C_21  and  C_22
REMARK                            x       y       z     vdW  Elec       q    Type
REMARK                         _______ _______ _______ _____ _____    ______ ____
ROOT
ATOM      1  N   UNL     1      -9.730  17.060  67.628  0.00  0.00    -0.268 NA
ATOM      2  C   UNL     1      -9.264  17.676  66.456  0.00  0.00    +0.094 C 
ATOM      3  C   UNL     1      -9.354  19.158  66.367  0.00  0.00    +0.108 C 
ATOM      4  N   UNL     1      -8.886  19.685  67.648  0.00  0.00    -0.305 N 
ATOM      5  C   UNL     1      -9.748  19.273  68.754  0.00  0.00    +0.108 C 
ATOM      6  C   UNL     1     -10.077  17.829  68.745  0.00  0.00    +0.094 C 
ENDROOT
BRANCH   4   7
ATOM      7  C   UNL     1      -7.484  19.669  67.946  0.00  0.00    +0.048 A 
ATOM      8  C   UNL     1      -7.001  19.326  69.196  0.00  0.00    +0.018 A 
ATOM      9  C   UNL     1      -5.768  19.783  69.643  0.00  0.00    +0.073 A 
ATOM     10  C   UNL     1      -5.277  20.952  69.074  0.00  0.00    +0.004 A 
ATOM     11  C   UNL     1      -5.543  21.091  67.717  0.00  0.00    +0.001 A 
ATOM     12  C   UNL     1      -6.629  20.429  67.156  0.00  0.00    +0.015 A 
BRANCH   9  13
ATOM     13  C   UNL     1      -5.418  19.523  71.072  0.00  0.00    +0.419 C 
ATOM     14  F   UNL     1      -6.310  20.239  71.834  0.00  0.00    -0.166 F 
ATOM     15  F   UNL     1      -5.482  18.166  71.357  0.00  0.00    -0.166 F 
ATOM     16  F   UNL     1      -4.103  19.913  71.301  0.00  0.00    -0.166 F 
ENDBRANCH   9  13
ENDBRANCH   4   7
BRANCH   1  17
ATOM     17  C   UNL     1     -10.844  16.176  67.300  0.00  0.00    +0.097 C 
BRANCH  17  18
ATOM     18  C   UNL     1     -10.466  15.279  66.153  0.00  0.00    +0.128 C 
BRANCH  18  21
ATOM     19  O   UNL     1     -13.162  14.258  65.363  0.00  0.00    -0.244 OA
ATOM     20  C   UNL     1     -12.198  13.533  65.750  0.00  0.00    +0.350 A 
ATOM     21  N   UNL     1     -11.065  13.973  66.319  0.00  0.00    -0.277 N 
ATOM     22  C   UNL     1     -10.465  12.899  66.857  0.00  0.00    +0.082 A 
ATOM     23  C   UNL     1     -11.259  11.791  66.609  0.00  0.00    +0.102 A 
ATOM     24  C   UNL     1     -11.061  10.647  67.365  0.00  0.00    +0.021 A 
ATOM     25  C   UNL     1     -10.043  10.595  68.307  0.00  0.00    +0.002 A 
ATOM     26  C   UNL     1      -9.106  11.618  68.352  0.00  0.00    +0.002 A 
ATOM     27  C   UNL     1      -9.455  12.827  67.782  0.00  0.00    +0.019 A 
ATOM     28  N   UNL     1     -12.168  12.186  65.701  0.00  0.00    -0.191 NA
ENDBRANCH  18  21
ENDBRANCH  17  18
ENDBRANCH   1  17
TORSDOF 5
ENDMDL
