MODEL 1
REMARK VINA RESULT:      -7.3      0.000      0.000
REMARK  Name = 
REMARK  6 active torsions:
REMARK  status: ('A' for Active; 'I' for Inactive)
REMARK    1  A    between atoms: C_2  and  N_3
REMARK    2  A    between atoms: N_9  and  CA_10
REMARK    3  A    between atoms: CA_10  and  C_11
REMARK    4  A    between atoms: CA_10  and  C_27
REMARK    5  A    between atoms: N_13  and  CA_14
REMARK    6  A    between atoms: CA_23  and  C_24
REMARK                            x       y       z     vdW  Elec       q    Type
REMARK                         _______ _______ _______ _____ _____    ______ ____
ROOT
ATOM      1  CA  UNL     1     -11.624  10.990  68.296  0.00  0.00    +0.196 C 
ENDROOT
BRANCH   1   9
ATOM      2  N   UNL     1      -9.396  16.369  66.158  0.00  0.00    -0.271 N 
ATOM      3  C   UNL     1     -10.567  16.145  65.367  0.00  0.00    +0.303 C 
ATOM      4  O   UNL     1     -11.075  17.025  64.644  0.00  0.00    -0.265 OA
ATOM      5  C   UNL     1     -10.960  14.747  65.140  0.00  0.00    +0.310 C 
ATOM      6  O   UNL     1     -11.926  14.454  64.397  0.00  0.00    -0.264 OA
ATOM      7  N   UNL     1     -10.393  13.691  65.906  0.00  0.00    -0.204 N 
ATOM      8  C   UNL     1     -11.165  12.566  66.356  0.00  0.00    +0.330 C 
ATOM      9  N   UNL     1     -11.128  12.390  67.760  0.00  0.00    -0.176 NA
ATOM     10  O   UNL     1     -12.275  12.275  65.831  0.00  0.00    -0.250 OA
ATOM     11  C   UNL     1      -9.146  13.989  66.591  0.00  0.00    +0.124 C 
ATOM     12  C   UNL     1      -9.151  15.378  67.199  0.00  0.00    +0.116 C 
BRANCH   2  14
ATOM     13  C   UNL     1      -7.353  17.579  66.083  0.00  0.00    +0.023 C 
ATOM     14  C   UNL     1      -8.724  17.647  66.093  0.00  0.00    +0.094 C 
ENDBRANCH   2  14
ENDBRANCH   1   9
BRANCH   1  15
ATOM     15  C   UNL     1     -12.029  11.586  69.740  0.00  0.00    +0.006 A 
ATOM     16  C   UNL     1     -12.145  12.943  69.813  0.00  0.00    -0.002 A 
ATOM     17  C   UNL     1     -12.558  13.483  71.026  0.00  0.00    -0.000 A 
ATOM     18  C   UNL     1     -13.079  12.666  72.006  0.00  0.00    -0.000 A 
ATOM     19  C   UNL     1     -13.207  11.319  71.774  0.00  0.00    -0.000 A 
ATOM     20  C   UNL     1     -12.478  10.812  70.725  0.00  0.00    -0.002 A 
ENDBRANCH   1  15
BRANCH   1  21
ATOM     21  C   UNL     1     -10.149  10.527  68.759  0.00  0.00    +0.266 C 
ATOM     22  N   UNL     1      -9.955   9.107  68.888  0.00  0.00    -0.193 NA
ATOM     23  O   UNL     1      -9.268  11.380  68.825  0.00  0.00    -0.271 OA
BRANCH  22  24
ATOM     24  CA  UNL     1      -8.481   8.935  69.423  0.00  0.00    +0.200 C 
ATOM     25  C   UNL     1      -8.800   8.657  71.049  0.00  0.00    +0.153 C 
ATOM     26  S   UNL     1     -10.272   7.443  71.016  0.00  0.00    -0.118 S 
ATOM     27  C   UNL     1      -9.412   6.715  72.439  0.00  0.00    +0.068 C 
ATOM     28  CA  UNL     1      -7.862   6.540  71.925  0.00  0.00    +0.189 C 
ATOM     29  C   UNL     1      -9.861   5.333  72.770  0.00  0.00    +0.013 C 
ATOM     30  C   UNL     1      -9.474   7.588  73.611  0.00  0.00    +0.013 C 
ATOM     31  N   UNL     1      -7.951   7.467  70.671  0.00  0.00    -0.259 N 
ATOM     32  C   UNL     1      -8.492   7.334  69.346  0.00  0.00    +0.249 C 
ATOM     33  O   UNL     1      -8.582   6.582  68.377  0.00  0.00    -0.273 OA
BRANCH  28  34
ATOM     34  C   UNL     1      -7.204   7.652  72.897  0.00  0.00    +0.383 C 
ATOM     35  OXT UNL     1      -6.650   6.902  73.952  0.00  0.00    -0.244 OA
ATOM     36  O   UNL     1      -6.441   8.504  72.478  0.00  0.00    -0.244 OA
ENDBRANCH  28  34
ENDBRANCH  22  24
ENDBRANCH   1  21
TORSDOF 6
ENDMDL
MODEL 2
REMARK VINA RESULT:      -7.3      3.500      9.017
REMARK  Name = 
REMARK  6 active torsions:
REMARK  status: ('A' for Active; 'I' for Inactive)
REMARK    1  A    between atoms: C_2  and  N_3
REMARK    2  A    between atoms: N_9  and  CA_10
REMARK    3  A    between atoms: CA_10  and  C_11
REMARK    4  A    between atoms: CA_10  and  C_27
REMARK    5  A    between atoms: N_13  and  CA_14
REMARK    6  A    between atoms: CA_23  and  C_24
REMARK                            x       y       z     vdW  Elec       q    Type
REMARK                         _______ _______ _______ _____ _____    ______ ____
ROOT
ATOM      1  CA  UNL     1     -11.469  12.787  65.938  0.00  0.00    +0.196 C 
ENDROOT
BRANCH   1   9
ATOM      2  N   UNL     1     -11.335   8.784  70.674  0.00  0.00    -0.271 N 
ATOM      3  C   UNL     1     -12.228   9.810  71.118  0.00  0.00    +0.303 C 
ATOM      4  O   UNL     1     -12.960   9.684  72.119  0.00  0.00    -0.265 OA
ATOM      5  C   UNL     1     -12.008  11.161  70.584  0.00  0.00    +0.310 C 
ATOM      6  O   UNL     1     -12.691  12.137  70.976  0.00  0.00    -0.264 OA
ATOM      7  N   UNL     1     -11.156  11.380  69.466  0.00  0.00    -0.204 N 
ATOM      8  C   UNL     1     -11.464  12.336  68.439  0.00  0.00    +0.330 C 
ATOM      9  N   UNL     1     -11.513  11.768  67.144  0.00  0.00    -0.176 NA
ATOM     10  O   UNL     1     -12.303  13.259  68.628  0.00  0.00    -0.250 OA
ATOM     11  C   UNL     1     -10.212  10.318  69.158  0.00  0.00    +0.124 C 
ATOM     12  C   UNL     1     -10.832   8.944  69.314  0.00  0.00    +0.116 C 
BRANCH   2  14
ATOM     13  C   UNL     1     -11.541   6.418  70.739  0.00  0.00    +0.023 C 
ATOM     14  C   UNL     1     -11.221   7.559  71.432  0.00  0.00    +0.094 C 
ENDBRANCH   2  14
ENDBRANCH   1   9
BRANCH   1  15
ATOM     15  C   UNL     1     -10.799  11.713  64.938  0.00  0.00    +0.006 A 
ATOM     16  C   UNL     1     -10.374  12.201  63.738  0.00  0.00    -0.002 A 
ATOM     17  C   UNL     1      -9.731  11.314  62.881  0.00  0.00    -0.000 A 
ATOM     18  C   UNL     1      -9.311  10.085  63.343  0.00  0.00    -0.000 A 
ATOM     19  C   UNL     1      -9.513   9.747  64.658  0.00  0.00    -0.000 A 
ATOM     20  C   UNL     1     -10.439  10.497  65.343  0.00  0.00    -0.002 A 
ENDBRANCH   1  15
BRANCH   1  21
ATOM     21  C   UNL     1     -10.062  13.431  66.396  0.00  0.00    +0.266 C 
ATOM     22  N   UNL     1     -10.035  14.866  66.485  0.00  0.00    -0.193 NA
ATOM     23  O   UNL     1      -9.173  12.671  66.773  0.00  0.00    -0.271 OA
BRANCH  22  24
ATOM     24  CA  UNL     1      -8.547  15.231  66.864  0.00  0.00    +0.200 C 
ATOM     25  C   UNL     1      -8.531  16.852  66.419  0.00  0.00    +0.153 C 
ATOM     26  S   UNL     1     -10.194  17.515  67.082  0.00  0.00    -0.118 S 
ATOM     27  C   UNL     1      -9.201  18.990  67.450  0.00  0.00    +0.068 C 
ATOM     28  CA  UNL     1      -7.886  18.401  68.239  0.00  0.00    +0.189 C 
ATOM     29  C   UNL     1      -9.843  19.919  68.421  0.00  0.00    +0.013 C 
ATOM     30  C   UNL     1      -8.802  19.690  66.228  0.00  0.00    +0.013 C 
ATOM     31  N   UNL     1      -8.065  16.898  67.856  0.00  0.00    -0.259 N 
ATOM     32  C   UNL     1      -8.915  15.829  68.305  0.00  0.00    +0.249 C 
ATOM     33  O   UNL     1      -9.385  15.281  69.301  0.00  0.00    -0.273 OA
BRANCH  28  34
ATOM     34  C   UNL     1      -6.800  18.730  67.088  0.00  0.00    +0.383 C 
ATOM     35  OXT UNL     1      -6.204  19.934  67.510  0.00  0.00    -0.244 OA
ATOM     36  O   UNL     1      -5.980  17.907  66.720  0.00  0.00    -0.244 OA
ENDBRANCH  28  34
ENDBRANCH  22  24
ENDBRANCH   1  21
TORSDOF 6
ENDMDL
MODEL 3
REMARK VINA RESULT:      -7.2      1.826      2.400
REMARK  Name = 
REMARK  6 active torsions:
REMARK  status: ('A' for Active; 'I' for Inactive)
REMARK    1  A    between atoms: C_2  and  N_3
REMARK    2  A    between atoms: N_9  and  CA_10
REMARK    3  A    between atoms: CA_10  and  C_11
REMARK    4  A    between atoms: CA_10  and  C_27
REMARK    5  A    between atoms: N_13  and  CA_14
REMARK    6  A    between atoms: CA_23  and  C_24
REMARK                            x       y       z     vdW  Elec       q    Type
REMARK                         _______ _______ _______ _____ _____    ______ ____
ROOT
ATOM      1  CA  UNL     1     -11.909  13.339  68.158  0.00  0.00    +0.196 C 
ENDROOT
BRANCH   1   9
ATOM      2  N   UNL     1      -9.472  18.963  67.211  0.00  0.00    -0.271 N 
ATOM      3  C   UNL     1     -10.304  18.753  66.067  0.00  0.00    +0.303 C 
ATOM      4  O   UNL     1     -10.606  19.666  65.272  0.00  0.00    -0.265 OA
ATOM      5  C   UNL     1     -10.507  17.363  65.636  0.00  0.00    +0.310 C 
ATOM      6  O   UNL     1     -11.156  17.089  64.599  0.00  0.00    -0.264 OA
ATOM      7  N   UNL     1     -10.151  16.274  66.479  0.00  0.00    -0.204 N 
ATOM      8  C   UNL     1     -10.950  15.084  66.579  0.00  0.00    +0.330 C 
ATOM      9  N   UNL     1     -11.361  14.797  67.903  0.00  0.00    -0.176 NA
ATOM     10  O   UNL     1     -11.806  14.789  65.700  0.00  0.00    -0.250 OA
ATOM     11  C   UNL     1      -9.218  16.569  67.555  0.00  0.00    +0.124 C 
ATOM     12  C   UNL     1      -9.514  17.903  68.212  0.00  0.00    +0.116 C 
BRANCH   2  14
ATOM     13  C   UNL     1      -7.541  20.343  67.303  0.00  0.00    +0.023 C 
ATOM     14  C   UNL     1      -8.903  20.270  67.451  0.00  0.00    +0.094 C 
ENDBRANCH   2  14
ENDBRANCH   1   9
BRANCH   1  15
ATOM     15  C   UNL     1     -12.198  13.624  69.719  0.00  0.00    +0.006 A 
ATOM     16  C   UNL     1     -12.448  14.923  70.052  0.00  0.00    -0.002 A 
ATOM     17  C   UNL     1     -12.766  15.191  71.378  0.00  0.00    -0.000 A 
ATOM     18  C   UNL     1     -13.077  14.160  72.239  0.00  0.00    -0.000 A 
ATOM     19  C   UNL     1     -13.089  12.868  71.776  0.00  0.00    -0.000 A 
ATOM     20  C   UNL     1     -12.441  12.643  70.584  0.00  0.00    -0.002 A 
ENDBRANCH   1  15
BRANCH   1  21
ATOM     21  C   UNL     1     -10.441  12.718  68.411  0.00  0.00    +0.266 C 
ATOM     22  N   UNL     1     -10.257  11.359  67.974  0.00  0.00    -0.193 NA
ATOM     23  O   UNL     1      -9.556  13.469  68.812  0.00  0.00    -0.271 OA
BRANCH  22  24
ATOM     24  CA  UNL     1      -8.789  10.979  68.408  0.00  0.00    +0.200 C 
ATOM     25  C   UNL     1      -9.119  10.175  69.847  0.00  0.00    +0.153 C 
ATOM     26  S   UNL     1     -10.623   9.083  69.416  0.00  0.00    -0.118 S 
ATOM     27  C   UNL     1      -9.786   7.893  70.502  0.00  0.00    +0.068 C 
ATOM     28  CA  UNL     1      -8.240   7.863  69.948  0.00  0.00    +0.189 C 
ATOM     29  C   UNL     1     -10.273   6.493  70.349  0.00  0.00    +0.013 C 
ATOM     30  C   UNL     1      -9.826   8.319  71.901  0.00  0.00    +0.013 C 
ATOM     31  N   UNL     1      -8.301   9.160  69.082  0.00  0.00    -0.259 N 
ATOM     32  C   UNL     1      -8.844   9.499  67.794  0.00  0.00    +0.249 C 
ATOM     33  O   UNL     1      -8.952   9.121  66.628  0.00  0.00    -0.273 OA
BRANCH  28  34
ATOM     34  C   UNL     1      -7.554   8.562  71.233  0.00  0.00    +0.383 C 
ATOM     35  OXT UNL     1      -6.954   7.494  71.927  0.00  0.00    -0.244 OA
ATOM     36  O   UNL     1      -6.815   9.524  71.126  0.00  0.00    -0.244 OA
ENDBRANCH  28  34
ENDBRANCH  22  24
ENDBRANCH   1  21
TORSDOF 6
ENDMDL
MODEL 4
REMARK VINA RESULT:      -7.2      3.134      9.227
REMARK  Name = 
REMARK  6 active torsions:
REMARK  status: ('A' for Active; 'I' for Inactive)
REMARK    1  A    between atoms: C_2  and  N_3
REMARK    2  A    between atoms: N_9  and  CA_10
REMARK    3  A    between atoms: CA_10  and  C_11
REMARK    4  A    between atoms: CA_10  and  C_27
REMARK    5  A    between atoms: N_13  and  CA_14
REMARK    6  A    between atoms: CA_23  and  C_24
REMARK                            x       y       z     vdW  Elec       q    Type
REMARK                         _______ _______ _______ _____ _____    ______ ____
ROOT
ATOM      1  CA  UNL     1     -11.553  12.594  67.446  0.00  0.00    +0.196 C 
ENDROOT
BRANCH   1   9
ATOM      2  N   UNL     1      -8.478   7.664  69.616  0.00  0.00    -0.271 N 
ATOM      3  C   UNL     1      -9.832   7.425  70.011  0.00  0.00    +0.303 C 
ATOM      4  O   UNL     1     -10.227   6.323  70.441  0.00  0.00    -0.265 OA
ATOM      5  C   UNL     1     -10.676   8.605  70.245  0.00  0.00    +0.310 C 
ATOM      6  O   UNL     1     -11.851   8.493  70.669  0.00  0.00    -0.264 OA
ATOM      7  N   UNL     1     -10.269   9.897  69.812  0.00  0.00    -0.204 N 
ATOM      8  C   UNL     1     -11.190  10.850  69.258  0.00  0.00    +0.330 C 
ATOM      9  N   UNL     1     -10.824  11.293  67.965  0.00  0.00    -0.176 NA
ATOM     10  O   UNL     1     -12.435  10.740  69.431  0.00  0.00    -0.250 OA
ATOM     11  C   UNL     1      -8.852  10.065  69.532  0.00  0.00    +0.124 C 
ATOM     12  C   UNL     1      -8.269   8.864  68.814  0.00  0.00    +0.116 C 
BRANCH   2  14
ATOM     13  C   UNL     1      -7.149   5.983  68.590  0.00  0.00    +0.023 C 
ATOM     14  C   UNL     1      -7.496   6.614  69.759  0.00  0.00    +0.094 C 
ENDBRANCH   2  14
ENDBRANCH   1   9
BRANCH   1  15
ATOM     15  C   UNL     1     -11.608  12.064  65.923  0.00  0.00    +0.006 A 
ATOM     16  C   UNL     1     -12.366  12.802  65.062  0.00  0.00    -0.002 A 
ATOM     17  C   UNL     1     -12.380  12.410  63.729  0.00  0.00    -0.000 A 
ATOM     18  C   UNL     1     -11.460  11.493  63.266  0.00  0.00    -0.000 A 
ATOM     19  C   UNL     1     -10.517  10.983  64.124  0.00  0.00    -0.000 A 
ATOM     20  C   UNL     1     -10.771  11.136  65.466  0.00  0.00    -0.002 A 
ENDBRANCH   1  15
BRANCH   1  21
ATOM     21  C   UNL     1     -10.177  13.413  67.246  0.00  0.00    +0.266 C 
ATOM     22  N   UNL     1     -10.314  14.842  67.141  0.00  0.00    -0.193 NA
ATOM     23  O   UNL     1      -9.118  12.799  67.345  0.00  0.00    -0.271 OA
BRANCH  22  24
ATOM     24  CA  UNL     1      -8.855  15.380  66.873  0.00  0.00    +0.200 C 
ATOM     25  C   UNL     1      -9.219  16.931  66.338  0.00  0.00    +0.153 C 
ATOM     26  S   UNL     1     -10.571  17.518  67.551  0.00  0.00    -0.118 S 
ATOM     27  C   UNL     1      -9.711  19.109  67.385  0.00  0.00    +0.068 C 
ATOM     28  CA  UNL     1      -8.130  18.738  67.633  0.00  0.00    +0.189 C 
ATOM     29  C   UNL     1     -10.045  20.087  68.458  0.00  0.00    +0.013 C 
ATOM     30  C   UNL     1      -9.905  19.690  66.057  0.00  0.00    +0.013 C 
ATOM     31  N   UNL     1      -8.248  17.190  67.466  0.00  0.00    -0.259 N 
ATOM     32  C   UNL     1      -8.716  16.111  68.293  0.00  0.00    +0.249 C 
ATOM     33  O   UNL     1      -8.693  15.647  69.432  0.00  0.00    -0.273 OA
BRANCH  28  34
ATOM     34  C   UNL     1      -7.621  19.022  66.126  0.00  0.00    +0.383 C 
ATOM     35  OXT UNL     1      -6.946  20.254  66.216  0.00  0.00    -0.244 OA
ATOM     36  O   UNL     1      -6.996  18.193  65.489  0.00  0.00    -0.244 OA
ENDBRANCH  28  34
ENDBRANCH  22  24
ENDBRANCH   1  21
TORSDOF 6
ENDMDL
MODEL 5
REMARK VINA RESULT:      -7.1      2.559      3.266
REMARK  Name = 
REMARK  6 active torsions:
REMARK  status: ('A' for Active; 'I' for Inactive)
REMARK    1  A    between atoms: C_2  and  N_3
REMARK    2  A    between atoms: N_9  and  CA_10
REMARK    3  A    between atoms: CA_10  and  C_11
REMARK    4  A    between atoms: CA_10  and  C_27
REMARK    5  A    between atoms: N_13  and  CA_14
REMARK    6  A    between atoms: CA_23  and  C_24
REMARK                            x       y       z     vdW  Elec       q    Type
REMARK                         _______ _______ _______ _____ _____    ______ ____
ROOT
ATOM      1  CA  UNL     1     -11.571  12.453  66.874  0.00  0.00    +0.196 C 
ENDROOT
BRANCH   1   9
ATOM      2  N   UNL     1      -9.150  18.152  67.239  0.00  0.00    -0.271 N 
ATOM      3  C   UNL     1     -10.164  18.274  66.237  0.00  0.00    +0.303 C 
ATOM      4  O   UNL     1     -10.564  19.375  65.808  0.00  0.00    -0.265 OA
ATOM      5  C   UNL     1     -10.476  17.069  65.456  0.00  0.00    +0.310 C 
ATOM      6  O   UNL     1     -11.294  17.102  64.506  0.00  0.00    -0.264 OA
ATOM      7  N   UNL     1     -10.021  15.786  65.869  0.00  0.00    -0.204 N 
ATOM      8  C   UNL     1     -10.829  14.605  65.744  0.00  0.00    +0.330 C 
ATOM      9  N   UNL     1     -11.027  13.932  66.973  0.00  0.00    -0.176 NA
ATOM     10  O   UNL     1     -11.826  14.567  64.971  0.00  0.00    -0.250 OA
ATOM     11  C   UNL     1      -8.917  15.769  66.814  0.00  0.00    +0.124 C 
ATOM     12  C   UNL     1      -9.060  16.843  67.875  0.00  0.00    +0.116 C 
BRANCH   2  14
ATOM     13  C   UNL     1      -7.488  19.107  68.642  0.00  0.00    +0.023 C 
ATOM     14  C   UNL     1      -8.510  19.340  67.756  0.00  0.00    +0.094 C 
ENDBRANCH   2  14
ENDBRANCH   1   9
BRANCH   1  15
ATOM     15  C   UNL     1     -11.752  12.317  68.471  0.00  0.00    +0.006 A 
ATOM     16  C   UNL     1     -12.052  13.469  69.137  0.00  0.00    -0.002 A 
ATOM     17  C   UNL     1     -12.281  13.373  70.504  0.00  0.00    -0.000 A 
ATOM     18  C   UNL     1     -12.460  12.139  71.093  0.00  0.00    -0.000 A 
ATOM     19  C   UNL     1     -12.431  11.006  70.319  0.00  0.00    -0.000 A 
ATOM     20  C   UNL     1     -11.867  11.135  69.072  0.00  0.00    -0.002 A 
ENDBRANCH   1  15
BRANCH   1  21
ATOM     21  C   UNL     1     -10.095  11.799  66.857  0.00  0.00    +0.266 C 
ATOM     22  N   UNL     1      -9.934  10.648  66.009  0.00  0.00    -0.193 NA
ATOM     23  O   UNL     1      -9.190  12.397  67.435  0.00  0.00    -0.271 OA
BRANCH  22  24
ATOM     24  CA  UNL     1      -8.449  10.167  66.240  0.00  0.00    +0.200 C 
ATOM     25  C   UNL     1      -8.709   9.004  67.425  0.00  0.00    +0.153 C 
ATOM     26  S   UNL     1     -10.251   8.066  66.803  0.00  0.00    -0.118 S 
ATOM     27  C   UNL     1      -9.371   6.629  67.479  0.00  0.00    +0.068 C 
ATOM     28  CA  UNL     1      -7.859   6.752  66.849  0.00  0.00    +0.189 C 
ATOM     29  C   UNL     1      -9.886   5.322  66.983  0.00  0.00    +0.013 C 
ATOM     30  C   UNL     1      -9.327   6.662  68.941  0.00  0.00    +0.013 C 
ATOM     31  N   UNL     1      -7.950   8.235  66.369  0.00  0.00    -0.259 N 
ATOM     32  C   UNL     1      -8.559   8.907  65.254  0.00  0.00    +0.249 C 
ATOM     33  O   UNL     1      -8.738   8.858  64.038  0.00  0.00    -0.273 OA
BRANCH  28  34
ATOM     34  C   UNL     1      -7.093   7.079  68.234  0.00  0.00    +0.383 C 
ATOM     35  OXT UNL     1      -6.558   5.840  68.632  0.00  0.00    -0.244 OA
ATOM     36  O   UNL     1      -6.287   7.988  68.325  0.00  0.00    -0.244 OA
ENDBRANCH  28  34
ENDBRANCH  22  24
ENDBRANCH   1  21
TORSDOF 6
ENDMDL
MODEL 6
REMARK VINA RESULT:      -6.9      2.739      9.430
REMARK  Name = 
REMARK  6 active torsions:
REMARK  status: ('A' for Active; 'I' for Inactive)
REMARK    1  A    between atoms: C_2  and  N_3
REMARK    2  A    between atoms: N_9  and  CA_10
REMARK    3  A    between atoms: CA_10  and  C_11
REMARK    4  A    between atoms: CA_10  and  C_27
REMARK    5  A    between atoms: N_13  and  CA_14
REMARK    6  A    between atoms: CA_23  and  C_24
REMARK                            x       y       z     vdW  Elec       q    Type
REMARK                         _______ _______ _______ _____ _____    ______ ____
ROOT
ATOM      1  CA  UNL     1      -9.742   9.307  70.378  0.00  0.00    +0.196 C 
ENDROOT
BRANCH   1   9
ATOM      2  N   UNL     1      -9.094   3.147  70.053  0.00  0.00    -0.271 N 
ATOM      3  C   UNL     1      -8.426   3.498  71.269  0.00  0.00    +0.303 C 
ATOM      4  O   UNL     1      -8.077   2.654  72.118  0.00  0.00    -0.265 OA
ATOM      5  C   UNL     1      -7.833   4.840  71.339  0.00  0.00    +0.310 C 
ATOM      6  O   UNL     1      -7.162   5.206  72.334  0.00  0.00    -0.264 OA
ATOM      7  N   UNL     1      -8.160   5.840  70.381  0.00  0.00    -0.204 N 
ATOM      8  C   UNL     1      -8.337   7.220  70.739  0.00  0.00    +0.330 C 
ATOM      9  N   UNL     1      -9.603   7.734  70.369  0.00  0.00    -0.176 NA
ATOM     10  O   UNL     1      -7.891   7.682  71.824  0.00  0.00    -0.250 OA
ATOM     11  C   UNL     1      -8.742   5.371  69.134  0.00  0.00    +0.124 C 
ATOM     12  C   UNL     1      -9.742   4.254  69.359  0.00  0.00    +0.116 C 
BRANCH   2  14
ATOM     13  C   UNL     1      -9.408   1.460  68.411  0.00  0.00    +0.023 C 
ATOM     14  C   UNL     1      -9.340   1.756  69.749  0.00  0.00    +0.094 C 
ENDBRANCH   2  14
ENDBRANCH   1   9
BRANCH   1  15
ATOM     15  C   UNL     1     -11.247   9.260  70.958  0.00  0.00    +0.006 A 
ATOM     16  C   UNL     1     -11.577   8.144  71.669  0.00  0.00    -0.002 A 
ATOM     17  C   UNL     1     -12.844   8.103  72.238  0.00  0.00    -0.000 A 
ATOM     18  C   UNL     1     -13.613   9.245  72.303  0.00  0.00    -0.000 A 
ATOM     19  C   UNL     1     -13.114  10.430  71.820  0.00  0.00    -0.000 A 
ATOM     20  C   UNL     1     -12.032  10.334  70.977  0.00  0.00    -0.002 A 
ENDBRANCH   1  15
BRANCH   1  21
ATOM     21  C   UNL     1     -10.203   9.381  68.833  0.00  0.00    +0.266 C 
ATOM     22  N   UNL     1      -9.919  10.619  68.159  0.00  0.00    -0.193 NA
ATOM     23  O   UNL     1     -10.618   8.353  68.303  0.00  0.00    -0.271 OA
BRANCH  22  24
ATOM     24  CA  UNL     1     -10.536  10.457  66.715  0.00  0.00    +0.200 C 
ATOM     25  C   UNL     1     -11.322  11.935  66.576  0.00  0.00    +0.153 C 
ATOM     26  S   UNL     1     -10.055  13.185  67.266  0.00  0.00    -0.118 S 
ATOM     27  C   UNL     1     -10.699  14.233  65.930  0.00  0.00    +0.068 C 
ATOM     28  CA  UNL     1     -10.645  13.268  64.602  0.00  0.00    +0.189 C 
ATOM     29  C   UNL     1      -9.821  15.389  65.597  0.00  0.00    +0.013 C 
ATOM     30  C   UNL     1     -12.070  14.667  66.200  0.00  0.00    +0.013 C 
ATOM     31  N   UNL     1     -10.455  11.905  65.339  0.00  0.00    -0.259 N 
ATOM     32  C   UNL     1      -9.349  11.237  65.971  0.00  0.00    +0.249 C 
ATOM     33  O   UNL     1      -8.157  10.955  65.855  0.00  0.00    -0.273 OA
BRANCH  28  34
ATOM     34  C   UNL     1     -12.242  13.118  64.401  0.00  0.00    +0.383 C 
ATOM     35  OXT UNL     1     -12.571  14.135  63.485  0.00  0.00    -0.244 OA
ATOM     36  O   UNL     1     -12.759  12.051  64.121  0.00  0.00    -0.244 OA
ENDBRANCH  28  34
ENDBRANCH  22  24
ENDBRANCH   1  21
TORSDOF 6
ENDMDL
MODEL 7
REMARK VINA RESULT:      -6.8      5.112      8.422
REMARK  Name = 
REMARK  6 active torsions:
REMARK  status: ('A' for Active; 'I' for Inactive)
REMARK    1  A    between atoms: C_2  and  N_3
REMARK    2  A    between atoms: N_9  and  CA_10
REMARK    3  A    between atoms: CA_10  and  C_11
REMARK    4  A    between atoms: CA_10  and  C_27
REMARK    5  A    between atoms: N_13  and  CA_14
REMARK    6  A    between atoms: CA_23  and  C_24
REMARK                            x       y       z     vdW  Elec       q    Type
REMARK                         _______ _______ _______ _____ _____    ______ ____
ROOT
ATOM      1  CA  UNL     1      -8.168  19.685  67.376  0.00  0.00    +0.196 C 
ENDROOT
BRANCH   1   9
ATOM      2  N   UNL     1      -9.909  13.831  66.293  0.00  0.00    -0.271 N 
ATOM      3  C   UNL     1     -10.421  14.554  65.170  0.00  0.00    +0.303 C 
ATOM      4  O   UNL     1     -10.854  13.992  64.144  0.00  0.00    -0.265 OA
ATOM      5  C   UNL     1     -10.763  15.966  65.387  0.00  0.00    +0.310 C 
ATOM      6  O   UNL     1     -11.290  16.656  64.482  0.00  0.00    -0.264 OA
ATOM      7  N   UNL     1     -10.331  16.657  66.553  0.00  0.00    -0.204 N 
ATOM      8  C   UNL     1      -9.890  18.023  66.519  0.00  0.00    +0.330 C 
ATOM      9  N   UNL     1      -8.582  18.201  67.028  0.00  0.00    -0.176 NA
ATOM     10  O   UNL     1     -10.174  18.784  65.553  0.00  0.00    -0.250 OA
ATOM     11  C   UNL     1      -9.926  15.830  67.678  0.00  0.00    +0.124 C 
ATOM     12  C   UNL     1      -9.125  14.621  67.235  0.00  0.00    +0.116 C 
BRANCH   2  14
ATOM     13  C   UNL     1     -11.050  11.822  66.845  0.00  0.00    +0.023 C 
ATOM     14  C   UNL     1      -9.932  12.386  66.284  0.00  0.00    +0.094 C 
ENDBRANCH   2  14
ENDBRANCH   1   9
BRANCH   1  15
ATOM     15  C   UNL     1      -6.987  19.708  66.277  0.00  0.00    +0.006 A 
ATOM     16  C   UNL     1      -6.211  20.829  66.259  0.00  0.00    -0.002 A 
ATOM     17  C   UNL     1      -5.144  20.852  65.370  0.00  0.00    -0.000 A 
ATOM     18  C   UNL     1      -4.739  19.693  64.742  0.00  0.00    -0.000 A 
ATOM     19  C   UNL     1      -5.384  18.511  65.014  0.00  0.00    -0.000 A 
ATOM     20  C   UNL     1      -6.617  18.616  65.612  0.00  0.00    -0.002 A 
ENDBRANCH   1  15
BRANCH   1  21
ATOM     21  C   UNL     1      -7.203  19.243  68.591  0.00  0.00    +0.266 C 
ATOM     22  N   UNL     1      -6.749  17.878  68.560  0.00  0.00    -0.193 NA
ATOM     23  O   UNL     1      -6.806  20.113  69.362  0.00  0.00    -0.271 OA
BRANCH  22  24
ATOM     24  CA  UNL     1      -5.906  17.690  69.880  0.00  0.00    +0.200 C 
ATOM     25  C   UNL     1      -5.843  16.012  69.940  0.00  0.00    +0.153 C 
ATOM     26  S   UNL     1      -5.476  15.512  68.134  0.00  0.00    -0.118 S 
ATOM     27  C   UNL     1      -4.452  14.243  68.931  0.00  0.00    +0.068 C 
ATOM     28  CA  UNL     1      -3.551  15.079  70.020  0.00  0.00    +0.189 C 
ATOM     29  C   UNL     1      -3.457  13.613  68.018  0.00  0.00    +0.013 C 
ATOM     30  C   UNL     1      -5.271  13.233  69.603  0.00  0.00    +0.013 C 
ATOM     31  N   UNL     1      -4.385  16.399  70.014  0.00  0.00    -0.259 N 
ATOM     32  C   UNL     1      -4.502  17.523  69.124  0.00  0.00    +0.249 C 
ATOM     33  O   UNL     1      -3.866  18.320  68.436  0.00  0.00    -0.273 OA
BRANCH  28  34
ATOM     34  C   UNL     1      -4.232  14.468  71.353  0.00  0.00    +0.383 C 
ATOM     35  OXT UNL     1      -3.317  13.493  71.792  0.00  0.00    -0.244 OA
ATOM     36  O   UNL     1      -4.628  15.180  72.259  0.00  0.00    -0.244 OA
ENDBRANCH  28  34
ENDBRANCH  22  24
ENDBRANCH   1  21
TORSDOF 6
ENDMDL
MODEL 8
REMARK VINA RESULT:      -6.8      2.828      4.351
REMARK  Name = 
REMARK  6 active torsions:
REMARK  status: ('A' for Active; 'I' for Inactive)
REMARK    1  A    between atoms: C_2  and  N_3
REMARK    2  A    between atoms: N_9  and  CA_10
REMARK    3  A    between atoms: CA_10  and  C_11
REMARK    4  A    between atoms: CA_10  and  C_27
REMARK    5  A    between atoms: N_13  and  CA_14
REMARK    6  A    between atoms: CA_23  and  C_24
REMARK                            x       y       z     vdW  Elec       q    Type
REMARK                         _______ _______ _______ _____ _____    ______ ____
ROOT
ATOM      1  CA  UNL     1     -10.472  14.746  67.459  0.00  0.00    +0.196 C 
ENDROOT
BRANCH   1   9
ATOM      2  N   UNL     1      -6.580  19.468  68.476  0.00  0.00    -0.271 N 
ATOM      3  C   UNL     1      -7.516  19.992  67.529  0.00  0.00    +0.303 C 
ATOM      4  O   UNL     1      -7.595  21.207  67.257  0.00  0.00    -0.265 OA
ATOM      5  C   UNL     1      -8.142  19.032  66.610  0.00  0.00    +0.310 C 
ATOM      6  O   UNL     1      -8.914  19.411  65.697  0.00  0.00    -0.264 OA
ATOM      7  N   UNL     1      -8.060  17.631  66.842  0.00  0.00    -0.204 N 
ATOM      8  C   UNL     1      -9.161  16.743  66.592  0.00  0.00    +0.330 C 
ATOM      9  N   UNL     1      -9.543  15.994  67.730  0.00  0.00    -0.176 NA
ATOM     10  O   UNL     1     -10.125  17.080  65.851  0.00  0.00    -0.250 OA
ATOM     11  C   UNL     1      -7.008  17.189  67.744  0.00  0.00    +0.124 C 
ATOM     12  C   UNL     1      -6.857  18.112  68.936  0.00  0.00    +0.116 C 
BRANCH   2  14
ATOM     13  C   UNL     1      -5.650  20.312  70.492  0.00  0.00    +0.023 C 
ATOM     14  C   UNL     1      -5.641  20.357  69.120  0.00  0.00    +0.094 C 
ENDBRANCH   2  14
ENDBRANCH   1   9
BRANCH   1  15
ATOM     15  C   UNL     1     -11.014  14.707  68.978  0.00  0.00    +0.006 A 
ATOM     16  C   UNL     1     -11.107  15.913  69.609  0.00  0.00    -0.002 A 
ATOM     17  C   UNL     1     -11.634  15.920  70.895  0.00  0.00    -0.000 A 
ATOM     18  C   UNL     1     -12.275  14.803  71.389  0.00  0.00    -0.000 A 
ATOM     19  C   UNL     1     -12.407  13.689  70.597  0.00  0.00    -0.000 A 
ATOM     20  C   UNL     1     -11.582  13.622  69.499  0.00  0.00    -0.002 A 
ENDBRANCH   1  15
BRANCH   1  21
ATOM     21  C   UNL     1      -9.290  13.677  67.719  0.00  0.00    +0.266 C 
ATOM     22  N   UNL     1      -9.370  12.464  66.950  0.00  0.00    -0.193 NA
ATOM     23  O   UNL     1      -8.344  14.020  68.423  0.00  0.00    -0.271 OA
BRANCH  22  24
ATOM     24  CA  UNL     1      -8.164  11.577  67.448  0.00  0.00    +0.200 C 
ATOM     25  C   UNL     1      -9.006  10.431  68.343  0.00  0.00    +0.153 C 
ATOM     26  S   UNL     1     -10.502  10.008  67.236  0.00  0.00    -0.118 S 
ATOM     27  C   UNL     1     -10.211   8.332  67.870  0.00  0.00    +0.068 C 
ATOM     28  CA  UNL     1      -8.602   8.091  67.643  0.00  0.00    +0.189 C 
ATOM     29  C   UNL     1     -10.872   7.263  67.070  0.00  0.00    +0.013 C 
ATOM     30  C   UNL     1     -10.555   8.224  69.288  0.00  0.00    +0.013 C 
ATOM     31  N   UNL     1      -8.200   9.579  67.391  0.00  0.00    -0.259 N 
ATOM     32  C   UNL     1      -8.305  10.486  66.281  0.00  0.00    +0.249 C 
ATOM     33  O   UNL     1      -8.156  10.594  65.065  0.00  0.00    -0.273 OA
BRANCH  28  34
ATOM     34  C   UNL     1      -8.181   8.074  69.203  0.00  0.00    +0.383 C 
ATOM     35  OXT UNL     1      -8.109   6.706  69.526  0.00  0.00    -0.244 OA
ATOM     36  O   UNL     1      -7.225   8.704  69.620  0.00  0.00    -0.244 OA
ENDBRANCH  28  34
ENDBRANCH  22  24
ENDBRANCH   1  21
TORSDOF 6
ENDMDL
MODEL 9
REMARK VINA RESULT:      -6.8      5.616      8.954
REMARK  Name = 
REMARK  6 active torsions:
REMARK  status: ('A' for Active; 'I' for Inactive)
REMARK    1  A    between atoms: C_2  and  N_3
REMARK    2  A    between atoms: N_9  and  CA_10
REMARK    3  A    between atoms: CA_10  and  C_11
REMARK    4  A    between atoms: CA_10  and  C_27
REMARK    5  A    between atoms: N_13  and  CA_14
REMARK    6  A    between atoms: CA_23  and  C_24
REMARK                            x       y       z     vdW  Elec       q    Type
REMARK                         _______ _______ _______ _____ _____    ______ ____
ROOT
ATOM      1  CA  UNL     1      -9.460  15.783  68.828  0.00  0.00    +0.196 C 
ENDROOT
BRANCH   1   9
ATOM      2  N   UNL     1     -10.590  11.893  64.132  0.00  0.00    -0.271 N 
ATOM      3  C   UNL     1     -11.738  12.746  64.153  0.00  0.00    +0.303 C 
ATOM      4  O   UNL     1     -12.572  12.783  63.227  0.00  0.00    -0.265 OA
ATOM      5  C   UNL     1     -12.116  13.321  65.452  0.00  0.00    +0.310 C 
ATOM      6  O   UNL     1     -13.151  14.017  65.581  0.00  0.00    -0.264 OA
ATOM      7  N   UNL     1     -11.226  13.281  66.561  0.00  0.00    -0.204 N 
ATOM      8  C   UNL     1     -11.091  14.376  67.480  0.00  0.00    +0.330 C 
ATOM      9  N   UNL     1      -9.763  14.854  67.588  0.00  0.00    -0.176 NA
ATOM     10  O   UNL     1     -11.970  15.277  67.566  0.00  0.00    -0.250 OA
ATOM     11  C   UNL     1     -10.149  12.306  66.487  0.00  0.00    +0.124 C 
ATOM     12  C   UNL     1      -9.549  12.227  65.097  0.00  0.00    +0.116 C 
BRANCH   2  14
ATOM     13  C   UNL     1      -9.420  10.039  63.216  0.00  0.00    +0.023 C 
ATOM     14  C   UNL     1     -10.393  10.987  63.022  0.00  0.00    +0.094 C 
ENDBRANCH   2  14
ENDBRANCH   1   9
BRANCH   1  15
ATOM     15  C   UNL     1      -9.609  17.137  67.965  0.00  0.00    +0.006 A 
ATOM     16  C   UNL     1     -10.115  18.215  68.630  0.00  0.00    -0.002 A 
ATOM     17  C   UNL     1     -10.194  19.414  67.932  0.00  0.00    -0.000 A 
ATOM     18  C   UNL     1      -9.542  19.560  66.727  0.00  0.00    -0.000 A 
ATOM     19  C   UNL     1      -8.797  18.520  66.226  0.00  0.00    -0.000 A 
ATOM     20  C   UNL     1      -9.040  17.282  66.771  0.00  0.00    -0.002 A 
ENDBRANCH   1  15
BRANCH   1  21
ATOM     21  C   UNL     1      -7.859  15.688  68.641  0.00  0.00    +0.266 C 
ATOM     22  N   UNL     1      -7.083  16.567  69.473  0.00  0.00    -0.193 NA
ATOM     23  O   UNL     1      -7.412  14.793  67.929  0.00  0.00    -0.271 OA
BRANCH  22  24
ATOM     24  CA  UNL     1      -5.584  16.336  69.037  0.00  0.00    +0.200 C 
ATOM     25  C   UNL     1      -5.273  17.813  68.299  0.00  0.00    +0.153 C 
ATOM     26  S   UNL     1      -6.052  19.084  69.491  0.00  0.00    -0.118 S 
ATOM     27  C   UNL     1      -4.595  20.067  69.035  0.00  0.00    +0.068 C 
ATOM     28  CA  UNL     1      -3.334  19.034  69.237  0.00  0.00    +0.189 C 
ATOM     29  C   UNL     1      -4.316  21.196  69.966  0.00  0.00    +0.013 C 
ATOM     30  C   UNL     1      -4.670  20.529  67.648  0.00  0.00    +0.013 C 
ATOM     31  N   UNL     1      -4.157  17.710  69.312  0.00  0.00    -0.259 N 
ATOM     32  C   UNL     1      -4.954  17.064  70.320  0.00  0.00    +0.249 C 
ATOM     33  O   UNL     1      -5.002  16.765  71.512  0.00  0.00    -0.273 OA
BRANCH  28  34
ATOM     34  C   UNL     1      -2.944  18.890  67.675  0.00  0.00    +0.383 C 
ATOM     35  OXT UNL     1      -1.938  19.855  67.480  0.00  0.00    -0.244 OA
ATOM     36  O   UNL     1      -2.662  17.814  67.177  0.00  0.00    -0.244 OA
ENDBRANCH  28  34
ENDBRANCH  22  24
ENDBRANCH   1  21
TORSDOF 6
ENDMDL
