MODEL 1
REMARK VINA RESULT:      -7.1      0.000      0.000
REMARK  Name = 
REMARK  3 active torsions:
REMARK  status: ('A' for Active; 'I' for Inactive)
REMARK    1  A    between atoms: C_2  and  C_3
REMARK    2  A    between atoms: C_2  and  C_12
REMARK    3  A    between atoms: C_6  and  C_7
REMARK                            x       y       z     vdW  Elec       q    Type
REMARK                         _______ _______ _______ _____ _____    ______ ____
ROOT
ATOM      1  C   UNL     1      -9.262  16.380  68.863  0.00  0.00    -0.004 A 
ATOM      2  C   UNL     1      -8.030  15.747  68.970  0.00  0.00    -0.022 A 
ATOM      3  C   UNL     1      -7.913  14.310  68.619  0.00  0.00    +0.031 C 
ATOM      4  C   UNL     1      -6.913  16.554  68.891  0.00  0.00    -0.009 A 
ATOM      5  C   UNL     1      -6.980  17.894  68.562  0.00  0.00    -0.027 A 
ATOM      6  C   UNL     1      -5.866  18.798  68.962  0.00  0.00    +0.019 C 
ATOM      7  C   UNL     1      -6.363  20.232  68.976  0.00  0.00    +0.004 C 
ATOM      8  C   UNL     1      -7.096  20.585  67.711  0.00  0.00    +0.004 C 
ATOM      9  C   UNL     1      -8.231  19.650  67.399  0.00  0.00    +0.019 C 
ATOM     10  C   UNL     1      -7.986  19.112  65.995  0.00  0.00    +0.004 C 
ATOM     11  C   UNL     1      -9.533  20.401  67.459  0.00  0.00    +0.004 C 
ATOM     12  C   UNL     1      -4.744  18.651  67.955  0.00  0.00    +0.004 C 
ATOM     13  C   UNL     1      -5.405  18.455  70.366  0.00  0.00    +0.004 C 
ATOM     14  C   UNL     1      -8.218  18.470  68.319  0.00  0.00    -0.027 A 
ATOM     15  C   UNL     1      -9.372  17.725  68.543  0.00  0.00    -0.005 A 
ENDROOT
BRANCH   1  17
ATOM     16  C   UNL     1     -11.240  15.721  67.749  0.00  0.00    -0.000 C 
ATOM     17  C   UNL     1     -10.432  15.498  68.783  0.00  0.00    -0.000 C 
BRANCH  17  18
ATOM     18  C   UNL     1     -10.969  14.836  69.978  0.00  0.00    -0.000 A 
ATOM     19  C   UNL     1     -11.979  13.886  69.889  0.00  0.00    +0.000 A 
ATOM     20  C   UNL     1     -13.002  13.826  70.828  0.00  0.00    +0.007 A 
ATOM     21  C   UNL     1     -13.062  14.756  71.860  0.00  0.00    +0.080 A 
ATOM     22  C   UNL     1     -11.843  15.335  72.185  0.00  0.00    +0.007 A 
ATOM     23  C   UNL     1     -10.830  15.414  71.235  0.00  0.00    +0.000 A 
BRANCH  21  24
ATOM     24  C   UNL     1     -14.342  15.349  72.276  0.00  0.00    +0.388 C 
ATOM     25  O   UNL     1     -15.296  15.453  71.258  0.00  0.00    -0.241 OA
ATOM     26  O   UNL     1     -14.275  16.364  73.034  0.00  0.00    -0.241 OA
ENDBRANCH  21  24
ENDBRANCH  17  18
ENDBRANCH   1  17
TORSDOF 3
ENDMDL
MODEL 2
REMARK VINA RESULT:      -7.1      3.200      4.655
REMARK  Name = 
REMARK  3 active torsions:
REMARK  status: ('A' for Active; 'I' for Inactive)
REMARK    1  A    between atoms: C_2  and  C_3
REMARK    2  A    between atoms: C_2  and  C_12
REMARK    3  A    between atoms: C_6  and  C_7
REMARK                            x       y       z     vdW  Elec       q    Type
REMARK                         _______ _______ _______ _____ _____    ______ ____
ROOT
ATOM      1  C   UNL     1      -8.607  17.694  67.641  0.00  0.00    -0.004 A 
ATOM      2  C   UNL     1      -8.785  18.691  66.691  0.00  0.00    -0.022 A 
ATOM      3  C   UNL     1     -10.155  19.167  66.377  0.00  0.00    +0.031 C 
ATOM      4  C   UNL     1      -7.712  19.529  66.469  0.00  0.00    -0.009 A 
ATOM      5  C   UNL     1      -6.570  19.507  67.247  0.00  0.00    -0.027 A 
ATOM      6  C   UNL     1      -5.299  20.049  66.691  0.00  0.00    +0.019 C 
ATOM      7  C   UNL     1      -4.127  19.468  67.461  0.00  0.00    +0.004 C 
ATOM      8  C   UNL     1      -4.317  19.588  68.948  0.00  0.00    +0.004 C 
ATOM      9  C   UNL     1      -5.603  18.981  69.436  0.00  0.00    +0.019 C 
ATOM     10  C   UNL     1      -6.344  20.071  70.200  0.00  0.00    +0.004 C 
ATOM     11  C   UNL     1      -5.300  17.815  70.336  0.00  0.00    +0.004 C 
ATOM     12  C   UNL     1      -5.317  21.556  66.837  0.00  0.00    +0.004 C 
ATOM     13  C   UNL     1      -5.153  19.629  65.241  0.00  0.00    +0.004 C 
ATOM     14  C   UNL     1      -6.479  18.592  68.286  0.00  0.00    -0.027 A 
ATOM     15  C   UNL     1      -7.473  17.631  68.437  0.00  0.00    -0.005 A 
ENDROOT
BRANCH   1  17
ATOM     16  C   UNL     1     -10.406  17.275  69.117  0.00  0.00    -0.000 C 
ATOM     17  C   UNL     1      -9.802  16.916  67.987  0.00  0.00    -0.000 C 
BRANCH  17  18
ATOM     18  C   UNL     1      -9.995  15.552  67.477  0.00  0.00    -0.000 A 
ATOM     19  C   UNL     1      -9.559  15.183  66.211  0.00  0.00    +0.000 A 
ATOM     20  C   UNL     1     -10.309  14.336  65.404  0.00  0.00    +0.007 A 
ATOM     21  C   UNL     1     -11.548  13.873  65.834  0.00  0.00    +0.080 A 
ATOM     22  C   UNL     1     -11.709  13.857  67.214  0.00  0.00    +0.007 A 
ATOM     23  C   UNL     1     -10.973  14.724  68.014  0.00  0.00    +0.000 A 
BRANCH  21  24
ATOM     24  C   UNL     1     -12.693  13.797  64.915  0.00  0.00    +0.388 C 
ATOM     25  O   UNL     1     -13.155  12.501  64.664  0.00  0.00    -0.241 OA
ATOM     26  O   UNL     1     -12.645  14.542  63.889  0.00  0.00    -0.241 OA
ENDBRANCH  21  24
ENDBRANCH  17  18
ENDBRANCH   1  17
TORSDOF 3
ENDMDL
MODEL 3
REMARK VINA RESULT:      -7.0      5.633      9.510
REMARK  Name = 
REMARK  3 active torsions:
REMARK  status: ('A' for Active; 'I' for Inactive)
REMARK    1  A    between atoms: C_2  and  C_3
REMARK    2  A    between atoms: C_2  and  C_12
REMARK    3  A    between atoms: C_6  and  C_7
REMARK                            x       y       z     vdW  Elec       q    Type
REMARK                         _______ _______ _______ _____ _____    ______ ____
ROOT
ATOM      1  C   UNL     1     -10.149  10.311  68.078  0.00  0.00    -0.004 A 
ATOM      2  C   UNL     1      -9.271   9.403  67.501  0.00  0.00    -0.022 A 
ATOM      3  C   UNL     1      -8.025   9.896  66.862  0.00  0.00    +0.031 C 
ATOM      4  C   UNL     1      -9.318   8.111  67.980  0.00  0.00    -0.009 A 
ATOM      5  C   UNL     1     -10.069   7.746  69.081  0.00  0.00    -0.027 A 
ATOM      6  C   UNL     1     -10.470   6.322  69.250  0.00  0.00    +0.019 C 
ATOM      7  C   UNL     1     -11.669   6.245  70.178  0.00  0.00    +0.004 C 
ATOM      8  C   UNL     1     -11.457   7.039  71.438  0.00  0.00    +0.004 C 
ATOM      9  C   UNL     1     -11.095   8.476  71.183  0.00  0.00    +0.019 C 
ATOM     10  C   UNL     1      -9.784   8.738  71.914  0.00  0.00    +0.004 C 
ATOM     11  C   UNL     1     -12.184   9.370  71.710  0.00  0.00    +0.004 C 
ATOM     12  C   UNL     1      -9.304   5.564  69.849  0.00  0.00    +0.004 C 
ATOM     13  C   UNL     1     -10.885   5.743  67.911  0.00  0.00    +0.004 C 
ATOM     14  C   UNL     1     -10.829   8.709  69.728  0.00  0.00    -0.027 A 
ATOM     15  C   UNL     1     -10.927   9.983  69.179  0.00  0.00    -0.005 A 
ENDROOT
BRANCH   1  17
ATOM     16  C   UNL     1      -9.464  12.509  68.614  0.00  0.00    -0.000 C 
ATOM     17  C   UNL     1      -9.978  11.713  67.680  0.00  0.00    -0.000 C 
BRANCH  17  18
ATOM     18  C   UNL     1     -10.787  12.303  66.606  0.00  0.00    -0.000 A 
ATOM     19  C   UNL     1     -10.250  12.555  65.349  0.00  0.00    +0.000 A 
ATOM     20  C   UNL     1     -10.583  13.701  64.636  0.00  0.00    +0.007 A 
ATOM     21  C   UNL     1     -11.433  14.651  65.192  0.00  0.00    +0.080 A 
ATOM     22  C   UNL     1     -12.288  14.157  66.169  0.00  0.00    +0.007 A 
ATOM     23  C   UNL     1     -11.938  13.025  66.897  0.00  0.00    +0.000 A 
BRANCH  21  24
ATOM     24  C   UNL     1     -11.167  16.089  65.044  0.00  0.00    +0.388 C 
ATOM     25  O   UNL     1     -11.683  16.661  63.876  0.00  0.00    -0.241 OA
ATOM     26  O   UNL     1      -9.999  16.482  65.345  0.00  0.00    -0.241 OA
ENDBRANCH  21  24
ENDBRANCH  17  18
ENDBRANCH   1  17
TORSDOF 3
ENDMDL
MODEL 4
REMARK VINA RESULT:      -6.9      3.937      5.587
REMARK  Name = 
REMARK  3 active torsions:
REMARK  status: ('A' for Active; 'I' for Inactive)
REMARK    1  A    between atoms: C_2  and  C_3
REMARK    2  A    between atoms: C_2  and  C_12
REMARK    3  A    between atoms: C_6  and  C_7
REMARK                            x       y       z     vdW  Elec       q    Type
REMARK                         _______ _______ _______ _____ _____    ______ ____
ROOT
ATOM      1  C   UNL     1     -10.256  12.051  68.347  0.00  0.00    -0.004 A 
ATOM      2  C   UNL     1      -8.945  12.444  68.584  0.00  0.00    -0.022 A 
ATOM      3  C   UNL     1      -7.904  11.414  68.823  0.00  0.00    +0.031 C 
ATOM      4  C   UNL     1      -8.573  13.677  68.090  0.00  0.00    -0.009 A 
ATOM      5  C   UNL     1      -9.385  14.430  67.263  0.00  0.00    -0.027 A 
ATOM      6  C   UNL     1      -9.166  15.900  67.168  0.00  0.00    +0.019 C 
ATOM      7  C   UNL     1     -10.432  16.564  66.657  0.00  0.00    +0.004 C 
ATOM      8  C   UNL     1     -10.968  15.882  65.428  0.00  0.00    +0.004 C 
ATOM      9  C   UNL     1     -11.200  14.409  65.618  0.00  0.00    +0.019 C 
ATOM     10  C   UNL     1     -10.414  13.693  64.527  0.00  0.00    +0.004 C 
ATOM     11  C   UNL     1     -12.670  14.112  65.494  0.00  0.00    +0.004 C 
ATOM     12  C   UNL     1      -8.025  16.152  66.205  0.00  0.00    +0.004 C 
ATOM     13  C   UNL     1      -8.872  16.465  68.545  0.00  0.00    +0.004 C 
ATOM     14  C   UNL     1     -10.640  13.944  66.926  0.00  0.00    -0.027 A 
ATOM     15  C   UNL     1     -11.107  12.782  67.531  0.00  0.00    -0.005 A 
ENDROOT
BRANCH   1  17
ATOM     16  C   UNL     1     -10.964   9.882  67.728  0.00  0.00    -0.000 C 
ATOM     17  C   UNL     1     -10.593  10.676  68.731  0.00  0.00    -0.000 C 
BRANCH  17  18
ATOM     18  C   UNL     1     -11.025  10.351  70.096  0.00  0.00    -0.000 A 
ATOM     19  C   UNL     1     -10.690   9.142  70.694  0.00  0.00    +0.000 A 
ATOM     20  C   UNL     1     -11.593   8.457  71.499  0.00  0.00    +0.007 A 
ATOM     21  C   UNL     1     -12.881   8.949  71.684  0.00  0.00    +0.080 A 
ATOM     22  C   UNL     1     -13.006  10.319  71.495  0.00  0.00    +0.007 A 
ATOM     23  C   UNL     1     -12.114  10.996  70.670  0.00  0.00    +0.000 A 
BRANCH  21  24
ATOM     24  C   UNL     1     -14.046   8.053  71.682  0.00  0.00    +0.388 C 
ATOM     25  O   UNL     1     -15.085   8.444  72.533  0.00  0.00    -0.241 OA
ATOM     26  O   UNL     1     -13.801   6.808  71.695  0.00  0.00    -0.241 OA
ENDBRANCH  21  24
ENDBRANCH  17  18
ENDBRANCH   1  17
TORSDOF 3
ENDMDL
MODEL 5
REMARK VINA RESULT:      -6.9      4.581      6.271
REMARK  Name = 
REMARK  3 active torsions:
REMARK  status: ('A' for Active; 'I' for Inactive)
REMARK    1  A    between atoms: C_2  and  C_3
REMARK    2  A    between atoms: C_2  and  C_12
REMARK    3  A    between atoms: C_6  and  C_7
REMARK                            x       y       z     vdW  Elec       q    Type
REMARK                         _______ _______ _______ _____ _____    ______ ____
ROOT
ATOM      1  C   UNL     1      -9.504  15.033  66.827  0.00  0.00    -0.004 A 
ATOM      2  C   UNL     1     -10.638  15.646  67.343  0.00  0.00    -0.022 A 
ATOM      3  C   UNL     1     -11.551  14.875  68.222  0.00  0.00    +0.031 C 
ATOM      4  C   UNL     1     -10.601  17.021  67.449  0.00  0.00    -0.009 A 
ATOM      5  C   UNL     1      -9.456  17.760  67.217  0.00  0.00    -0.027 A 
ATOM      6  C   UNL     1      -9.578  19.202  66.867  0.00  0.00    +0.019 C 
ATOM      7  C   UNL     1      -8.309  19.658  66.168  0.00  0.00    +0.004 C 
ATOM      8  C   UNL     1      -7.074  19.250  66.924  0.00  0.00    +0.004 C 
ATOM      9  C   UNL     1      -7.006  17.775  67.203  0.00  0.00    +0.019 C 
ATOM     10  C   UNL     1      -6.840  17.617  68.709  0.00  0.00    +0.004 C 
ATOM     11  C   UNL     1      -5.832  17.179  66.475  0.00  0.00    +0.004 C 
ATOM     12  C   UNL     1      -9.776  19.990  68.144  0.00  0.00    +0.004 C 
ATOM     13  C   UNL     1     -10.732  19.400  65.903  0.00  0.00    +0.004 C 
ATOM     14  C   UNL     1      -8.293  17.103  66.840  0.00  0.00    -0.027 A 
ATOM     15  C   UNL     1      -8.337  15.739  66.572  0.00  0.00    -0.005 A 
ENDROOT
BRANCH   1  17
ATOM     16  C   UNL     1      -8.399  13.025  67.408  0.00  0.00    -0.000 C 
ATOM     17  C   UNL     1      -9.491  13.566  66.872  0.00  0.00    -0.000 C 
BRANCH  17  18
ATOM     18  C   UNL     1     -10.298  12.769  65.939  0.00  0.00    -0.000 A 
ATOM     19  C   UNL     1     -10.443  11.396  66.096  0.00  0.00    +0.000 A 
ATOM     20  C   UNL     1     -10.453  10.539  65.002  0.00  0.00    +0.007 A 
ATOM     21  C   UNL     1     -10.268  11.038  63.718  0.00  0.00    +0.080 A 
ATOM     22  C   UNL     1     -10.608  12.376  63.566  0.00  0.00    +0.007 A 
ATOM     23  C   UNL     1     -10.573  13.235  64.659  0.00  0.00    +0.000 A 
BRANCH  21  24
ATOM     24  C   UNL     1      -9.425  10.333  62.742  0.00  0.00    +0.388 C 
ATOM     25  O   UNL     1      -8.870   9.136  63.206  0.00  0.00    -0.241 OA
ATOM     26  O   UNL     1      -8.627  11.048  62.062  0.00  0.00    -0.241 OA
ENDBRANCH  21  24
ENDBRANCH  17  18
ENDBRANCH   1  17
TORSDOF 3
ENDMDL
MODEL 6
REMARK VINA RESULT:      -6.8      2.960      4.763
REMARK  Name = 
REMARK  3 active torsions:
REMARK  status: ('A' for Active; 'I' for Inactive)
REMARK    1  A    between atoms: C_2  and  C_3
REMARK    2  A    between atoms: C_2  and  C_12
REMARK    3  A    between atoms: C_6  and  C_7
REMARK                            x       y       z     vdW  Elec       q    Type
REMARK                         _______ _______ _______ _____ _____    ______ ____
ROOT
ATOM      1  C   UNL     1      -9.044  15.590  67.849  0.00  0.00    -0.004 A 
ATOM      2  C   UNL     1     -10.183  16.264  68.271  0.00  0.00    -0.022 A 
ATOM      3  C   UNL     1     -10.976  15.722  69.403  0.00  0.00    +0.031 C 
ATOM      4  C   UNL     1     -10.238  17.614  67.994  0.00  0.00    -0.009 A 
ATOM      5  C   UNL     1      -9.169  18.317  67.473  0.00  0.00    -0.027 A 
ATOM      6  C   UNL     1      -9.419  19.596  66.753  0.00  0.00    +0.019 C 
ATOM      7  C   UNL     1      -8.237  19.904  65.852  0.00  0.00    +0.004 C 
ATOM      8  C   UNL     1      -6.927  19.787  66.582  0.00  0.00    +0.004 C 
ATOM      9  C   UNL     1      -6.733  18.454  67.248  0.00  0.00    +0.019 C 
ATOM     10  C   UNL     1      -6.455  18.730  68.720  0.00  0.00    +0.004 C 
ATOM     11  C   UNL     1      -5.570  17.740  66.613  0.00  0.00    +0.004 C 
ATOM     12  C   UNL     1      -9.587  20.698  67.778  0.00  0.00    +0.004 C 
ATOM     13  C   UNL     1     -10.647  19.459  65.873  0.00  0.00    +0.004 C 
ATOM     14  C   UNL     1      -7.989  17.642  67.193  0.00  0.00    -0.027 A 
ATOM     15  C   UNL     1      -7.952  16.257  67.313  0.00  0.00    -0.005 A 
ENDROOT
BRANCH   1  17
ATOM     16  C   UNL     1      -7.857  13.934  69.047  0.00  0.00    -0.000 C 
ATOM     17  C   UNL     1      -8.921  14.197  68.292  0.00  0.00    -0.000 C 
BRANCH  17  18
ATOM     18  C   UNL     1      -9.554  13.103  67.545  0.00  0.00    -0.000 A 
ATOM     19  C   UNL     1      -9.295  12.901  66.195  0.00  0.00    +0.000 A 
ATOM     20  C   UNL     1     -10.300  12.521  65.313  0.00  0.00    +0.007 A 
ATOM     21  C   UNL     1     -11.609  12.378  65.761  0.00  0.00    +0.080 A 
ATOM     22  C   UNL     1     -11.727  12.113  67.119  0.00  0.00    +0.007 A 
ATOM     23  C   UNL     1     -10.730  12.517  68.000  0.00  0.00    +0.000 A 
BRANCH  21  24
ATOM     24  C   UNL     1     -12.743  12.857  64.959  0.00  0.00    +0.388 C 
ATOM     25  O   UNL     1     -12.677  12.531  63.600  0.00  0.00    -0.241 OA
ATOM     26  O   UNL     1     -13.142  14.039  65.193  0.00  0.00    -0.241 OA
ENDBRANCH  21  24
ENDBRANCH  17  18
ENDBRANCH   1  17
TORSDOF 3
ENDMDL
MODEL 7
REMARK VINA RESULT:      -6.6      2.851      3.897
REMARK  Name = 
REMARK  3 active torsions:
REMARK  status: ('A' for Active; 'I' for Inactive)
REMARK    1  A    between atoms: C_2  and  C_3
REMARK    2  A    between atoms: C_2  and  C_12
REMARK    3  A    between atoms: C_6  and  C_7
REMARK                            x       y       z     vdW  Elec       q    Type
REMARK                         _______ _______ _______ _____ _____    ______ ____
ROOT
ATOM      1  C   UNL     1      -8.752  16.442  68.906  0.00  0.00    -0.004 A 
ATOM      2  C   UNL     1      -7.521  15.908  69.265  0.00  0.00    -0.022 A 
ATOM      3  C   UNL     1      -7.272  14.456  69.082  0.00  0.00    +0.031 C 
ATOM      4  C   UNL     1      -6.452  16.779  69.279  0.00  0.00    -0.009 A 
ATOM      5  C   UNL     1      -6.537  18.077  68.811  0.00  0.00    -0.027 A 
ATOM      6  C   UNL     1      -5.552  19.088  69.286  0.00  0.00    +0.019 C 
ATOM      7  C   UNL     1      -6.122  20.480  69.078  0.00  0.00    +0.004 C 
ATOM      8  C   UNL     1      -6.661  20.665  67.686  0.00  0.00    +0.004 C 
ATOM      9  C   UNL     1      -7.678  19.629  67.298  0.00  0.00    +0.019 C 
ATOM     10  C   UNL     1      -7.183  18.985  66.009  0.00  0.00    +0.004 C 
ATOM     11  C   UNL     1      -9.012  20.291  67.081  0.00  0.00    +0.004 C 
ATOM     12  C   UNL     1      -4.277  18.928  68.484  0.00  0.00    +0.004 C 
ATOM     13  C   UNL     1      -5.305  18.907  70.771  0.00  0.00    +0.004 C 
ATOM     14  C   UNL     1      -7.749  18.541  68.323  0.00  0.00    -0.027 A 
ATOM     15  C   UNL     1      -8.882  17.742  68.439  0.00  0.00    -0.005 A 
ENDROOT
BRANCH   1  17
ATOM     16  C   UNL     1     -10.509  15.170  69.846  0.00  0.00    -0.000 C 
ATOM     17  C   UNL     1      -9.845  15.478  68.735  0.00  0.00    -0.000 C 
BRANCH  17  18
ATOM     18  C   UNL     1      -9.854  14.530  67.613  0.00  0.00    -0.000 A 
ATOM     19  C   UNL     1      -9.606  14.947  66.310  0.00  0.00    +0.000 A 
ATOM     20  C   UNL     1     -10.313  14.421  65.235  0.00  0.00    +0.007 A 
ATOM     21  C   UNL     1     -11.325  13.491  65.448  0.00  0.00    +0.080 A 
ATOM     22  C   UNL     1     -11.208  12.774  66.631  0.00  0.00    +0.007 A 
ATOM     23  C   UNL     1     -10.521  13.315  67.712  0.00  0.00    +0.000 A 
BRANCH  21  24
ATOM     24  C   UNL     1     -12.587  13.556  64.697  0.00  0.00    +0.388 C 
ATOM     25  O   UNL     1     -13.235  12.326  64.537  0.00  0.00    -0.241 OA
ATOM     26  O   UNL     1     -12.592  14.286  63.660  0.00  0.00    -0.241 OA
ENDBRANCH  21  24
ENDBRANCH  17  18
ENDBRANCH   1  17
TORSDOF 3
ENDMDL
MODEL 8
REMARK VINA RESULT:      -6.4      4.375      7.689
REMARK  Name = 
REMARK  3 active torsions:
REMARK  status: ('A' for Active; 'I' for Inactive)
REMARK    1  A    between atoms: C_2  and  C_3
REMARK    2  A    between atoms: C_2  and  C_12
REMARK    3  A    between atoms: C_6  and  C_7
REMARK                            x       y       z     vdW  Elec       q    Type
REMARK                         _______ _______ _______ _____ _____    ______ ____
ROOT
ATOM      1  C   UNL     1      -5.685  18.699  66.862  0.00  0.00    -0.004 A 
ATOM      2  C   UNL     1      -6.252  19.627  65.998  0.00  0.00    -0.022 A 
ATOM      3  C   UNL     1      -5.492  20.074  64.804  0.00  0.00    +0.031 C 
ATOM      4  C   UNL     1      -7.630  19.696  65.985  0.00  0.00    -0.009 A 
ATOM      5  C   UNL     1      -8.431  18.796  66.662  0.00  0.00    -0.027 A 
ATOM      6  C   UNL     1      -9.824  19.185  67.018  0.00  0.00    +0.019 C 
ATOM      7  C   UNL     1     -10.313  18.310  68.158  0.00  0.00    +0.004 C 
ATOM      8  C   UNL     1     -10.069  16.850  67.890  0.00  0.00    +0.004 C 
ATOM      9  C   UNL     1      -8.634  16.533  67.578  0.00  0.00    +0.019 C 
ATOM     10  C   UNL     1      -8.621  15.817  66.234  0.00  0.00    +0.004 C 
ATOM     11  C   UNL     1      -8.069  15.647  68.655  0.00  0.00    +0.004 C 
ATOM     12  C   UNL     1     -10.703  18.988  65.801  0.00  0.00    +0.004 C 
ATOM     13  C   UNL     1      -9.847  20.624  67.498  0.00  0.00    +0.004 C 
ATOM     14  C   UNL     1      -7.836  17.787  67.405  0.00  0.00    -0.027 A 
ATOM     15  C   UNL     1      -6.454  17.783  67.565  0.00  0.00    -0.005 A 
ENDROOT
BRANCH   1  17
ATOM     16  C   UNL     1      -3.848  17.463  66.034  0.00  0.00    -0.000 C 
ATOM     17  C   UNL     1      -4.233  18.518  66.747  0.00  0.00    -0.000 C 
BRANCH  17  18
ATOM     18  C   UNL     1      -3.316  19.076  67.749  0.00  0.00    -0.000 A 
ATOM     19  C   UNL     1      -2.885  18.324  68.836  0.00  0.00    +0.000 A 
ATOM     20  C   UNL     1      -2.741  18.890  70.097  0.00  0.00    +0.007 A 
ATOM     21  C   UNL     1      -3.074  20.224  70.309  0.00  0.00    +0.080 A 
ATOM     22  C   UNL     1      -3.022  21.018  69.171  0.00  0.00    +0.007 A 
ATOM     23  C   UNL     1      -3.192  20.450  67.913  0.00  0.00    +0.000 A 
BRANCH  21  24
ATOM     24  C   UNL     1      -3.790  20.645  71.522  0.00  0.00    +0.388 C 
ATOM     25  O   UNL     1      -4.265  21.961  71.492  0.00  0.00    -0.241 OA
ATOM     26  O   UNL     1      -3.278  20.300  72.630  0.00  0.00    -0.241 OA
ENDBRANCH  21  24
ENDBRANCH  17  18
ENDBRANCH   1  17
TORSDOF 3
ENDMDL
MODEL 9
REMARK VINA RESULT:      -6.4      5.714      8.978
REMARK  Name = 
REMARK  3 active torsions:
REMARK  status: ('A' for Active; 'I' for Inactive)
REMARK    1  A    between atoms: C_2  and  C_3
REMARK    2  A    between atoms: C_2  and  C_12
REMARK    3  A    between atoms: C_6  and  C_7
REMARK                            x       y       z     vdW  Elec       q    Type
REMARK                         _______ _______ _______ _____ _____    ______ ____
ROOT
ATOM      1  C   UNL     1     -10.045  10.643  67.199  0.00  0.00    -0.004 A 
ATOM      2  C   UNL     1      -8.773  11.146  66.955  0.00  0.00    -0.022 A 
ATOM      3  C   UNL     1      -8.264  12.276  67.772  0.00  0.00    +0.031 C 
ATOM      4  C   UNL     1      -7.874  10.285  66.360  0.00  0.00    -0.009 A 
ATOM      5  C   UNL     1      -8.143   8.946  66.155  0.00  0.00    -0.027 A 
ATOM      6  C   UNL     1      -7.388   8.203  65.108  0.00  0.00    +0.019 C 
ATOM      7  C   UNL     1      -8.170   6.966  64.707  0.00  0.00    +0.004 C 
ATOM      8  C   UNL     1      -8.620   6.173  65.903  0.00  0.00    +0.004 C 
ATOM      9  C   UNL     1      -9.410   6.982  66.893  0.00  0.00    +0.019 C 
ATOM     10  C   UNL     1      -8.710   6.841  68.238  0.00  0.00    +0.004 C 
ATOM     11  C   UNL     1     -10.815   6.452  66.968  0.00  0.00    +0.004 C 
ATOM     12  C   UNL     1      -6.044   7.802  65.680  0.00  0.00    +0.004 C 
ATOM     13  C   UNL     1      -7.233   9.072  63.874  0.00  0.00    +0.004 C 
ATOM     14  C   UNL     1      -9.374   8.437  66.541  0.00  0.00    -0.027 A 
ATOM     15  C   UNL     1     -10.358   9.307  66.998  0.00  0.00    -0.005 A 
ENDROOT
BRANCH   1  17
ATOM     16  C   UNL     1     -11.393  10.979  69.111  0.00  0.00    -0.000 C 
ATOM     17  C   UNL     1     -10.938  11.508  67.978  0.00  0.00    -0.000 C 
BRANCH  17  18
ATOM     18  C   UNL     1     -11.700  12.588  67.339  0.00  0.00    -0.000 A 
ATOM     19  C   UNL     1     -12.038  12.537  65.991  0.00  0.00    +0.000 A 
ATOM     20  C   UNL     1     -12.002  13.674  65.192  0.00  0.00    +0.007 A 
ATOM     21  C   UNL     1     -11.577  14.889  65.719  0.00  0.00    +0.080 A 
ATOM     22  C   UNL     1     -11.722  15.001  67.096  0.00  0.00    +0.007 A 
ATOM     23  C   UNL     1     -11.733  13.862  67.893  0.00  0.00    +0.000 A 
BRANCH  21  24
ATOM     24  C   UNL     1     -10.702  15.786  64.952  0.00  0.00    +0.388 C 
ATOM     25  O   UNL     1      -9.609  16.287  65.667  0.00  0.00    -0.241 OA
ATOM     26  O   UNL     1     -11.277  16.641  64.212  0.00  0.00    -0.241 OA
ENDBRANCH  21  24
ENDBRANCH  17  18
ENDBRANCH   1  17
TORSDOF 3
ENDMDL
