MODEL 1
REMARK VINA RESULT:      -5.7      0.000      0.000
REMARK  Name = 
REMARK  9 active torsions:
REMARK  status: ('A' for Active; 'I' for Inactive)
REMARK    1  A    between atoms: C_2  and  C_3
REMARK    2  A    between atoms: C_7  and  O_8
REMARK    3  A    between atoms: O_8  and  C_9
REMARK    4  A    between atoms: C_12  and  N_13
REMARK    5  A    between atoms: C_32  and  O_33
REMARK    6  A    between atoms: O_33  and  C_34
REMARK    7  A    between atoms: C_38  and  O_39
REMARK    8  A    between atoms: C_41  and  O_42
REMARK    9  A    between atoms: C_44  and  O_45
REMARK                            x       y       z     vdW  Elec       q    Type
REMARK                         _______ _______ _______ _____ _____    ______ ____
ROOT
ATOM      1  C   UNL     1      -5.818   4.818  74.686  0.00  0.00    +0.169 C 
ATOM      2  O   UNL     1      -6.358   4.345  73.326  0.00  0.00    -0.452 OA
ATOM      3  C   UNL     1      -6.963   5.202  72.487  0.00  0.00    +0.317 C 
ATOM      4  O   UNL     1      -6.733   4.775  71.291  0.00  0.00    -0.250 OA
ATOM      5  C   UNL     1      -7.155   6.636  72.667  0.00  0.00    +0.114 C 
ATOM      6  C   UNL     1      -8.699   6.948  73.112  0.00  0.00    +0.040 C 
ATOM      7  C   UNL     1      -9.500   6.011  72.088  0.00  0.00    +0.009 C 
ATOM      8  C   UNL     1      -9.467   6.535  70.954  0.00  0.00    -0.028 C 
ATOM      9  C   UNL     1      -8.421   7.707  70.808  0.00  0.00    +0.026 C 
ATOM     10  C   UNL     1      -9.463   8.446  69.737  0.00  0.00    +0.011 C 
ATOM     11  C   UNL     1     -10.235   9.589  70.715  0.00  0.00    +0.021 C 
ATOM     12  C   UNL     1     -11.088   9.561  69.340  0.00  0.00    +0.034 C 
ATOM     13  C   UNL     1      -9.928  10.173  68.340  0.00  0.00    +0.118 C 
ATOM     14  C   UNL     1     -11.307   8.614  71.418  0.00  0.00    -0.048 C 
ATOM     15  C   UNL     1     -12.385   9.532  71.931  0.00  0.00    +0.026 C 
ATOM     16  C   UNL     1     -10.502   8.053  72.231  0.00  0.00    -0.034 C 
ATOM     17  C   UNL     1      -8.661   9.805  69.341  0.00  0.00    +0.030 C 
ATOM     18  C   UNL     1     -10.514   5.395  72.992  0.00  0.00    +0.171 C 
ATOM     19  O   UNL     1     -11.679   5.418  72.786  0.00  0.00    -0.292 OA
ATOM     20  C   UNL     1      -9.704   4.063  73.343  0.00  0.00    +0.089 C 
ATOM     21  C   UNL     1     -10.806   3.045  72.721  0.00  0.00    +0.011 C 
ATOM     22  C   UNL     1     -10.218   3.819  74.954  0.00  0.00    +0.125 C 
ATOM     23  C   UNL     1      -9.527   5.202  75.497  0.00  0.00    +0.030 C 
ATOM     24  C   UNL     1      -8.120   5.095  75.832  0.00  0.00    +0.006 C 
ATOM     25  C   UNL     1      -8.948   8.381  72.243  0.00  0.00    +0.030 C 
ATOM     26  C   UNL     1      -7.067   5.793  75.098  0.00  0.00    +0.044 C 
ENDROOT
BRANCH   1  28
ATOM     27  C   UNL     1      -4.058   6.313  74.624  0.00  0.00    +0.004 C 
ATOM     28  C   UNL     1      -4.934   6.073  74.081  0.00  0.00    +0.044 C 
ENDBRANCH   1  28
BRANCH  22  29
ATOM     29  O   UNL     1      -8.973   3.043  75.273  0.00  0.00    -0.333 OA
BRANCH  29  30
ATOM     30  C   UNL     1      -9.370   2.201  76.475  0.00  0.00    +0.235 C 
ATOM     31  O   UNL     1      -7.919   1.983  76.922  0.00  0.00    -0.332 OA
ATOM     32  C   UNL     1      -7.594   0.612  76.400  0.00  0.00    +0.132 C 
ATOM     33  C   UNL     1      -6.073   0.690  76.998  0.00  0.00    +0.034 C 
ATOM     34  C   UNL     1      -7.265   1.380  74.896  0.00  0.00    +0.085 C 
ATOM     35  C   UNL     1      -8.706   0.771  74.404  0.00  0.00    +0.024 C 
ATOM     36  C   UNL     1      -9.575   0.848  75.526  0.00  0.00    +0.063 C 
BRANCH  34  37
ATOM     37  N   UNL     1      -6.451   0.235  74.222  0.00  0.00    -0.269 NA
ATOM     38  C   UNL     1      -5.368   1.060  73.650  0.00  0.00    +0.090 C 
ATOM     39  C   UNL     1      -7.241   0.168  72.970  0.00  0.00    +0.090 C 
ENDBRANCH  34  37
ENDBRANCH  29  30
ENDBRANCH  22  29
BRANCH  13  40
ATOM     40  O   UNL     1     -10.285  11.587  68.830  0.00  0.00    -0.331 OA
BRANCH  40  41
ATOM     41  C   UNL     1     -10.472  11.868  67.327  0.00  0.00    +0.266 C 
ATOM     42  C   UNL     1     -11.498  13.250  67.507  0.00  0.00    +0.201 C 
ATOM     43  C   UNL     1     -10.630  14.241  68.576  0.00  0.00    +0.177 C 
ATOM     44  C   UNL     1      -9.330  14.633  67.575  0.00  0.00    +0.172 C 
ATOM     45  C   UNL     1      -8.643  13.203  68.219  0.00  0.00    +0.147 C 
ATOM     46  C   UNL     1      -7.246  13.589  67.443  0.00  0.00    +0.035 C 
ATOM     47  O   UNL     1      -9.180  12.549  67.010  0.00  0.00    -0.329 OA
BRANCH  42  48
ATOM     48  O   UNL     1     -11.073  13.853  66.200  0.00  0.00    -0.346 OA
ATOM     49  C   UNL     1     -12.367  13.613  65.662  0.00  0.00    +0.174 C 
ENDBRANCH  42  48
BRANCH  44  50
ATOM     50  O   UNL     1      -8.702  15.463  68.651  0.00  0.00    -0.349 OA
ATOM     51  C   UNL     1      -8.447  16.636  67.930  0.00  0.00    +0.174 C 
ENDBRANCH  44  50
BRANCH  43  52
ATOM     52  O   UNL     1     -11.401  15.418  68.040  0.00  0.00    -0.348 OA
ATOM     53  C   UNL     1     -11.904  16.171  69.004  0.00  0.00    +0.174 C 
ENDBRANCH  43  52
ENDBRANCH  40  41
ENDBRANCH  13  40
TORSDOF 9
ENDMDL
MODEL 2
REMARK VINA RESULT:      -5.6      4.064      6.042
REMARK  Name = 
REMARK  9 active torsions:
REMARK  status: ('A' for Active; 'I' for Inactive)
REMARK    1  A    between atoms: C_2  and  C_3
REMARK    2  A    between atoms: C_7  and  O_8
REMARK    3  A    between atoms: O_8  and  C_9
REMARK    4  A    between atoms: C_12  and  N_13
REMARK    5  A    between atoms: C_32  and  O_33
REMARK    6  A    between atoms: O_33  and  C_34
REMARK    7  A    between atoms: C_38  and  O_39
REMARK    8  A    between atoms: C_41  and  O_42
REMARK    9  A    between atoms: C_44  and  O_45
REMARK                            x       y       z     vdW  Elec       q    Type
REMARK                         _______ _______ _______ _____ _____    ______ ____
ROOT
ATOM      1  C   UNL     1      -7.358   3.207  65.058  0.00  0.00    +0.169 C 
ATOM      2  O   UNL     1      -8.754   3.398  65.673  0.00  0.00    -0.452 OA
ATOM      3  C   UNL     1      -9.221   4.625  65.957  0.00  0.00    +0.317 C 
ATOM      4  O   UNL     1     -10.505   4.573  65.831  0.00  0.00    -0.250 OA
ATOM      5  C   UNL     1      -8.571   5.905  65.705  0.00  0.00    +0.114 C 
ATOM      6  C   UNL     1      -7.937   6.500  67.091  0.00  0.00    +0.040 C 
ATOM      7  C   UNL     1      -9.149   6.243  68.109  0.00  0.00    +0.009 C 
ATOM      8  C   UNL     1     -10.049   7.079  67.879  0.00  0.00    -0.028 C 
ATOM      9  C   UNL     1      -9.881   7.861  66.519  0.00  0.00    +0.026 C 
ATOM     10  C   UNL     1     -10.573   9.191  67.248  0.00  0.00    +0.011 C 
ATOM     11  C   UNL     1      -9.222  10.119  67.663  0.00  0.00    +0.021 C 
ATOM     12  C   UNL     1     -10.466  10.808  68.437  0.00  0.00    +0.034 C 
ATOM     13  C   UNL     1     -11.294  11.339  67.113  0.00  0.00    +0.118 C 
ATOM     14  C   UNL     1      -8.800   9.336  69.004  0.00  0.00    -0.048 C 
ATOM     15  C   UNL     1      -7.938  10.310  69.764  0.00  0.00    +0.026 C 
ATOM     16  C   UNL     1      -8.275   8.322  68.438  0.00  0.00    -0.034 C 
ATOM     17  C   UNL     1     -10.563  10.296  66.054  0.00  0.00    +0.030 C 
ATOM     18  C   UNL     1      -8.423   5.696  69.292  0.00  0.00    +0.171 C 
ATOM     19  O   UNL     1      -8.525   6.136  70.386  0.00  0.00    -0.292 OA
ATOM     20  C   UNL     1      -8.586   4.146  68.942  0.00  0.00    +0.089 C 
ATOM     21  C   UNL     1      -9.423   3.773  70.283  0.00  0.00    +0.011 C 
ATOM     22  C   UNL     1      -7.109   3.546  69.558  0.00  0.00    +0.125 C 
ATOM     23  C   UNL     1      -6.197   4.394  68.494  0.00  0.00    +0.030 C 
ATOM     24  C   UNL     1      -6.019   3.765  67.200  0.00  0.00    +0.006 C 
ATOM     25  C   UNL     1      -8.270   8.144  66.859  0.00  0.00    +0.030 C 
ATOM     26  C   UNL     1      -6.560   4.316  65.959  0.00  0.00    +0.044 C 
ENDROOT
BRANCH   1  28
ATOM     27  C   UNL     1      -7.151   3.977  62.890  0.00  0.00    +0.004 C 
ATOM     28  C   UNL     1      -7.584   4.264  63.812  0.00  0.00    +0.044 C 
ENDBRANCH   1  28
BRANCH  22  29
ATOM     29  O   UNL     1      -7.153   2.372  68.623  0.00  0.00    -0.333 OA
BRANCH  29  30
ATOM     30  C   UNL     1      -6.180   1.382  69.243  0.00  0.00    +0.235 C 
ATOM     31  O   UNL     1      -5.888   0.688  67.906  0.00  0.00    -0.332 OA
ATOM     32  C   UNL     1      -6.756  -0.538  67.950  0.00  0.00    +0.132 C 
ATOM     33  C   UNL     1      -6.248  -1.013  66.470  0.00  0.00    +0.034 C 
ATOM     34  C   UNL     1      -8.035   0.480  67.414  0.00  0.00    +0.085 C 
ATOM     35  C   UNL     1      -8.579   0.413  68.959  0.00  0.00    +0.024 C 
ATOM     36  C   UNL     1      -7.425   0.420  69.788  0.00  0.00    +0.063 C 
BRANCH  34  37
ATOM     37  N   UNL     1      -9.022  -0.623  66.925  0.00  0.00    -0.269 NA
ATOM     38  C   UNL     1      -9.466   0.034  65.680  0.00  0.00    +0.090 C 
ATOM     39  C   UNL     1     -10.187  -0.187  67.729  0.00  0.00    +0.090 C 
ENDBRANCH  34  37
ENDBRANCH  29  30
ENDBRANCH  22  29
BRANCH  13  40
ATOM     40  O   UNL     1     -10.344  12.547  67.034  0.00  0.00    -0.331 OA
BRANCH  40  41
ATOM     41  C   UNL     1     -11.555  13.310  67.605  0.00  0.00    +0.266 C 
ATOM     42  C   UNL     1     -10.663  14.326  68.684  0.00  0.00    +0.201 C 
ATOM     43  C   UNL     1      -9.474  15.006  67.683  0.00  0.00    +0.177 C 
ATOM     44  C   UNL     1     -10.466  15.959  66.706  0.00  0.00    +0.172 C 
ATOM     45  C   UNL     1     -10.572  14.542  65.750  0.00  0.00    +0.147 C 
ATOM     46  C   UNL     1     -11.381  15.426  64.625  0.00  0.00    +0.035 C 
ATOM     47  O   UNL     1     -11.817  14.280  66.498  0.00  0.00    -0.329 OA
BRANCH  42  48
ATOM     48  O   UNL     1     -11.685  15.424  68.646  0.00  0.00    -0.346 OA
ATOM     49  C   UNL     1     -12.061  15.127  69.985  0.00  0.00    +0.174 C 
ENDBRANCH  42  48
BRANCH  44  50
ATOM     50  O   UNL     1      -9.289  16.447  65.919  0.00  0.00    -0.349 OA
ATOM     51  C   UNL     1      -9.419  17.825  66.125  0.00  0.00    +0.174 C 
ENDBRANCH  44  50
BRANCH  43  52
ATOM     52  O   UNL     1      -9.355  16.137  68.670  0.00  0.00    -0.348 OA
ATOM     53  C   UNL     1      -8.121  16.279  69.125  0.00  0.00    +0.174 C 
ENDBRANCH  43  52
ENDBRANCH  40  41
ENDBRANCH  13  40
TORSDOF 9
ENDMDL
MODEL 3
REMARK VINA RESULT:      -5.2      2.675      5.263
REMARK  Name = 
REMARK  9 active torsions:
REMARK  status: ('A' for Active; 'I' for Inactive)
REMARK    1  A    between atoms: C_2  and  C_3
REMARK    2  A    between atoms: C_7  and  O_8
REMARK    3  A    between atoms: O_8  and  C_9
REMARK    4  A    between atoms: C_12  and  N_13
REMARK    5  A    between atoms: C_32  and  O_33
REMARK    6  A    between atoms: O_33  and  C_34
REMARK    7  A    between atoms: C_38  and  O_39
REMARK    8  A    between atoms: C_41  and  O_42
REMARK    9  A    between atoms: C_44  and  O_45
REMARK                            x       y       z     vdW  Elec       q    Type
REMARK                         _______ _______ _______ _____ _____    ______ ____
ROOT
ATOM      1  C   UNL     1     -10.134   6.117  72.189  0.00  0.00    +0.169 C 
ATOM      2  O   UNL     1      -8.628   6.388  72.034  0.00  0.00    -0.452 OA
ATOM      3  C   UNL     1      -8.187   7.477  71.382  0.00  0.00    +0.317 C 
ATOM      4  O   UNL     1      -7.056   7.797  71.917  0.00  0.00    -0.250 OA
ATOM      5  C   UNL     1      -8.985   8.549  70.798  0.00  0.00    +0.114 C 
ATOM      6  C   UNL     1      -9.068   8.371  69.174  0.00  0.00    +0.040 C 
ATOM      7  C   UNL     1      -7.537   8.041  68.830  0.00  0.00    +0.009 C 
ATOM      8  C   UNL     1      -6.870   9.094  68.922  0.00  0.00    -0.028 C 
ATOM      9  C   UNL     1      -7.621  10.282  69.639  0.00  0.00    +0.026 C 
ATOM     10  C   UNL     1      -6.807  11.341  68.643  0.00  0.00    +0.011 C 
ATOM     11  C   UNL     1      -7.955  11.666  67.446  0.00  0.00    +0.021 C 
ATOM     12  C   UNL     1      -6.567  12.276  66.880  0.00  0.00    +0.034 C 
ATOM     13  C   UNL     1      -6.372  13.473  67.998  0.00  0.00    +0.118 C 
ATOM     14  C   UNL     1      -7.753  10.339  66.557  0.00  0.00    -0.048 C 
ATOM     15  C   UNL     1      -8.321  10.688  65.207  0.00  0.00    +0.026 C 
ATOM     16  C   UNL     1      -8.374   9.535  67.326  0.00  0.00    -0.034 C 
ATOM     17  C   UNL     1      -7.374  12.789  69.124  0.00  0.00    +0.030 C 
ATOM     18  C   UNL     1      -7.693   6.911  67.869  0.00  0.00    +0.171 C 
ATOM     19  O   UNL     1      -7.205   6.893  66.791  0.00  0.00    -0.292 OA
ATOM     20  C   UNL     1      -7.557   5.717  68.922  0.00  0.00    +0.089 C 
ATOM     21  C   UNL     1      -6.233   5.065  68.244  0.00  0.00    +0.011 C 
ATOM     22  C   UNL     1      -8.619   4.579  68.219  0.00  0.00    +0.125 C 
ATOM     23  C   UNL     1      -9.941   5.524  68.425  0.00  0.00    +0.030 C 
ATOM     24  C   UNL     1     -10.562   5.434  69.732  0.00  0.00    +0.006 C 
ATOM     25  C   UNL     1      -8.985  10.000  68.717  0.00  0.00    +0.030 C 
ATOM     26  C   UNL     1     -10.599   6.546  70.680  0.00  0.00    +0.044 C 
ENDROOT
BRANCH   1  28
ATOM     27  C   UNL     1     -11.534   7.822  72.875  0.00  0.00    +0.004 C 
ATOM     28  C   UNL     1     -10.501   7.601  72.811  0.00  0.00    +0.044 C 
ENDBRANCH   1  28
BRANCH  22  29
ATOM     29  O   UNL     1      -8.853   3.920  69.547  0.00  0.00    -0.333 OA
BRANCH  29  30
ATOM     30  C   UNL     1      -9.259   2.502  69.180  0.00  0.00    +0.235 C 
ATOM     31  O   UNL     1      -9.987   2.265  70.509  0.00  0.00    -0.332 OA
ATOM     32  C   UNL     1      -8.989   1.489  71.322  0.00  0.00    +0.132 C 
ATOM     33  C   UNL     1     -10.010   1.416  72.598  0.00  0.00    +0.034 C 
ATOM     34  C   UNL     1      -8.282   3.009  71.708  0.00  0.00    +0.085 C 
ATOM     35  C   UNL     1      -7.107   2.601  70.641  0.00  0.00    +0.024 C 
ATOM     36  C   UNL     1      -7.753   1.912  69.579  0.00  0.00    +0.063 C 
BRANCH  34  37
ATOM     37  N   UNL     1      -7.439   2.568  72.942  0.00  0.00    -0.269 NA
ATOM     38  C   UNL     1      -7.779   3.692  73.836  0.00  0.00    +0.090 C 
ATOM     39  C   UNL     1      -6.150   3.142  72.490  0.00  0.00    +0.090 C 
ENDBRANCH  34  37
ENDBRANCH  29  30
ENDBRANCH  22  29
BRANCH  13  40
ATOM     40  O   UNL     1      -7.370  14.339  67.209  0.00  0.00    -0.331 OA
BRANCH  40  41
ATOM     41  C   UNL     1      -7.381  15.184  68.498  0.00  0.00    +0.266 C 
ATOM     42  C   UNL     1      -6.658  16.601  67.817  0.00  0.00    +0.201 C 
ATOM     43  C   UNL     1      -7.615  16.906  66.450  0.00  0.00    +0.177 C 
ATOM     44  C   UNL     1      -9.054  17.327  67.225  0.00  0.00    +0.172 C 
ATOM     45  C   UNL     1      -9.363  15.645  67.162  0.00  0.00    +0.147 C 
ATOM     46  C   UNL     1     -10.874  15.956  67.730  0.00  0.00    +0.035 C 
ATOM     47  O   UNL     1      -8.811  15.618  68.531  0.00  0.00    -0.329 OA
BRANCH  42  48
ATOM     48  O   UNL     1      -7.316  17.524  68.800  0.00  0.00    -0.346 OA
ATOM     49  C   UNL     1      -6.061  17.768  69.420  0.00  0.00    +0.174 C 
ENDBRANCH  42  48
BRANCH  44  50
ATOM     50  O   UNL     1      -9.744  17.541  65.913  0.00  0.00    -0.349 OA
ATOM     51  C   UNL     1     -10.269  18.821  66.125  0.00  0.00    +0.174 C 
ENDBRANCH  44  50
BRANCH  43  52
ATOM     52  O   UNL     1      -7.161  18.341  66.509  0.00  0.00    -0.348 OA
ATOM     53  C   UNL     1      -6.569  18.726  65.390  0.00  0.00    +0.174 C 
ENDBRANCH  43  52
ENDBRANCH  40  41
ENDBRANCH  13  40
TORSDOF 9
ENDMDL
MODEL 4
REMARK VINA RESULT:      -5.1      2.495      3.608
REMARK  Name = 
REMARK  9 active torsions:
REMARK  status: ('A' for Active; 'I' for Inactive)
REMARK    1  A    between atoms: C_2  and  C_3
REMARK    2  A    between atoms: C_7  and  O_8
REMARK    3  A    between atoms: O_8  and  C_9
REMARK    4  A    between atoms: C_12  and  N_13
REMARK    5  A    between atoms: C_32  and  O_33
REMARK    6  A    between atoms: O_33  and  C_34
REMARK    7  A    between atoms: C_38  and  O_39
REMARK    8  A    between atoms: C_41  and  O_42
REMARK    9  A    between atoms: C_44  and  O_45
REMARK                            x       y       z     vdW  Elec       q    Type
REMARK                         _______ _______ _______ _____ _____    ______ ____
ROOT
ATOM      1  C   UNL     1      -6.405   1.495  69.870  0.00  0.00    +0.169 C 
ATOM      2  O   UNL     1      -7.916   1.602  69.604  0.00  0.00    -0.452 OA
ATOM      3  C   UNL     1      -8.470   2.769  69.234  0.00  0.00    +0.317 C 
ATOM      4  O   UNL     1      -9.490   2.478  68.498  0.00  0.00    -0.250 OA
ATOM      5  C   UNL     1      -7.793   4.034  68.978  0.00  0.00    +0.114 C 
ATOM      6  C   UNL     1      -7.996   5.050  70.244  0.00  0.00    +0.040 C 
ATOM      7  C   UNL     1      -9.562   4.861  70.531  0.00  0.00    +0.009 C 
ATOM      8  C   UNL     1     -10.208   5.455  69.641  0.00  0.00    -0.028 C 
ATOM      9  C   UNL     1      -9.347   5.890  68.392  0.00  0.00    +0.026 C 
ATOM     10  C   UNL     1     -10.329   7.228  68.237  0.00  0.00    +0.011 C 
ATOM     11  C   UNL     1      -9.411   8.438  68.979  0.00  0.00    +0.021 C 
ATOM     12  C   UNL     1     -10.880   9.086  68.773  0.00  0.00    +0.034 C 
ATOM     13  C   UNL     1     -10.882   9.127  67.124  0.00  0.00    +0.118 C 
ATOM     14  C   UNL     1      -9.761   8.094  70.512  0.00  0.00    -0.048 C 
ATOM     15  C   UNL     1      -9.441   9.353  71.274  0.00  0.00    +0.026 C 
ATOM     16  C   UNL     1      -9.010   7.070  70.621  0.00  0.00    -0.034 C 
ATOM     17  C   UNL     1      -9.693   7.988  66.946  0.00  0.00    +0.030 C 
ATOM     18  C   UNL     1      -9.572   4.752  72.018  0.00  0.00    +0.171 C 
ATOM     19  O   UNL     1     -10.243   5.427  72.722  0.00  0.00    -0.292 OA
ATOM     20  C   UNL     1      -9.515   3.158  72.115  0.00  0.00    +0.089 C 
ATOM     21  C   UNL     1     -10.935   2.999  72.888  0.00  0.00    +0.011 C 
ATOM     22  C   UNL     1      -8.588   2.979  73.539  0.00  0.00    +0.125 C 
ATOM     23  C   UNL     1      -7.255   3.673  72.886  0.00  0.00    +0.030 C 
ATOM     24  C   UNL     1      -6.412   2.779  72.115  0.00  0.00    +0.006 C 
ATOM     25  C   UNL     1      -8.166   6.508  69.398  0.00  0.00    +0.030 C 
ATOM     26  C   UNL     1      -6.215   2.908  70.673  0.00  0.00    +0.044 C 
ENDROOT
BRANCH   1  28
ATOM     27  C   UNL     1      -5.418   1.506  67.781  0.00  0.00    +0.004 C 
ATOM     28  C   UNL     1      -5.941   2.157  68.432  0.00  0.00    +0.044 C 
ENDBRANCH   1  28
BRANCH  22  29
ATOM     29  O   UNL     1      -8.121   1.619  73.109  0.00  0.00    -0.333 OA
BRANCH  29  30
ATOM     30  C   UNL     1      -7.720   0.947  74.412  0.00  0.00    +0.235 C 
ATOM     31  O   UNL     1      -6.749  -0.021  73.725  0.00  0.00    -0.332 OA
ATOM     32  C   UNL     1      -7.541  -1.294  73.617  0.00  0.00    +0.132 C 
ATOM     33  C   UNL     1      -6.300  -2.062  72.877  0.00  0.00    +0.034 C 
ATOM     34  C   UNL     1      -8.238  -0.613  72.199  0.00  0.00    +0.085 C 
ATOM     35  C   UNL     1      -9.569  -0.353  73.120  0.00  0.00    +0.024 C 
ATOM     36  C   UNL     1      -9.096   0.008  74.411  0.00  0.00    +0.063 C 
BRANCH  34  37
ATOM     37  N   UNL     1      -8.817  -1.917  71.573  0.00  0.00    -0.269 NA
ATOM     38  C   UNL     1      -8.347  -1.710  70.190  0.00  0.00    +0.090 C 
ATOM     39  C   UNL     1     -10.185  -1.404  71.328  0.00  0.00    +0.090 C 
ENDBRANCH  34  37
ENDBRANCH  29  30
ENDBRANCH  22  29
BRANCH  13  40
ATOM     40  O   UNL     1     -10.043  10.416  67.180  0.00  0.00    -0.331 OA
BRANCH  40  41
ATOM     41  C   UNL     1     -11.320  11.008  67.807  0.00  0.00    +0.266 C 
ATOM     42  C   UNL     1     -10.572  12.402  68.509  0.00  0.00    +0.201 C 
ATOM     43  C   UNL     1      -9.727  13.086  67.206  0.00  0.00    +0.177 C 
ATOM     44  C   UNL     1     -11.041  13.567  66.263  0.00  0.00    +0.172 C 
ATOM     45  C   UNL     1     -10.918  11.987  65.616  0.00  0.00    +0.147 C 
ATOM     46  C   UNL     1     -12.058  12.410  64.509  0.00  0.00    +0.035 C 
ATOM     47  O   UNL     1     -11.952  11.634  66.607  0.00  0.00    -0.329 OA
BRANCH  42  48
ATOM     48  O   UNL     1     -11.829  13.220  68.453  0.00  0.00    -0.346 OA
ATOM     49  C   UNL     1     -11.954  13.134  69.867  0.00  0.00    +0.174 C 
ENDBRANCH  42  48
BRANCH  44  50
ATOM     50  O   UNL     1     -10.132  14.112  65.206  0.00  0.00    -0.349 OA
ATOM     51  C   UNL     1     -10.652  15.406  65.086  0.00  0.00    +0.174 C 
ENDBRANCH  44  50
BRANCH  43  52
ATOM     52  O   UNL     1      -9.763  14.404  67.934  0.00  0.00    -0.348 OA
ATOM     53  C   UNL     1      -8.554  14.910  68.116  0.00  0.00    +0.174 C 
ENDBRANCH  43  52
ENDBRANCH  40  41
ENDBRANCH  13  40
TORSDOF 9
ENDMDL
MODEL 5
REMARK VINA RESULT:      -5.1      4.687      7.544
REMARK  Name = 
REMARK  9 active torsions:
REMARK  status: ('A' for Active; 'I' for Inactive)
REMARK    1  A    between atoms: C_2  and  C_3
REMARK    2  A    between atoms: C_7  and  O_8
REMARK    3  A    between atoms: O_8  and  C_9
REMARK    4  A    between atoms: C_12  and  N_13
REMARK    5  A    between atoms: C_32  and  O_33
REMARK    6  A    between atoms: O_33  and  C_34
REMARK    7  A    between atoms: C_38  and  O_39
REMARK    8  A    between atoms: C_41  and  O_42
REMARK    9  A    between atoms: C_44  and  O_45
REMARK                            x       y       z     vdW  Elec       q    Type
REMARK                         _______ _______ _______ _____ _____    ______ ____
ROOT
ATOM      1  C   UNL     1      -7.388   7.145  65.096  0.00  0.00    +0.169 C 
ATOM      2  O   UNL     1      -8.660   7.683  65.774  0.00  0.00    -0.452 OA
ATOM      3  C   UNL     1      -8.753   8.971  66.144  0.00  0.00    +0.317 C 
ATOM      4  O   UNL     1     -10.001   9.291  66.064  0.00  0.00    -0.250 OA
ATOM      5  C   UNL     1      -7.771  10.029  65.938  0.00  0.00    +0.114 C 
ATOM      6  C   UNL     1      -6.965  10.331  67.329  0.00  0.00    +0.040 C 
ATOM      7  C   UNL     1      -8.178  10.362  68.377  0.00  0.00    +0.009 C 
ATOM      8  C   UNL     1      -8.808  11.431  68.229  0.00  0.00    -0.028 C 
ATOM      9  C   UNL     1      -8.454  12.219  66.909  0.00  0.00    +0.026 C 
ATOM     10  C   UNL     1      -8.725  13.641  67.736  0.00  0.00    +0.011 C 
ATOM     11  C   UNL     1      -7.157  14.122  68.149  0.00  0.00    +0.021 C 
ATOM     12  C   UNL     1      -8.137  15.082  69.008  0.00  0.00    +0.034 C 
ATOM     13  C   UNL     1      -8.808  15.908  67.748  0.00  0.00    +0.118 C 
ATOM     14  C   UNL     1      -6.946  13.167  69.428  0.00  0.00    -0.048 C 
ATOM     15  C   UNL     1      -5.827  13.807  70.207  0.00  0.00    +0.026 C 
ATOM     16  C   UNL     1      -6.743  12.084  68.787  0.00  0.00    -0.034 C 
ATOM     17  C   UNL     1      -8.426  14.772  66.606  0.00  0.00    +0.030 C 
ATOM     18  C   UNL     1      -7.613   9.558  69.499  0.00  0.00    +0.171 C 
ATOM     19  O   UNL     1      -7.562   9.937  70.619  0.00  0.00    -0.292 OA
ATOM     20  C   UNL     1      -8.217   8.142  69.071  0.00  0.00    +0.089 C 
ATOM     21  C   UNL     1      -9.097   7.936  70.420  0.00  0.00    +0.011 C 
ATOM     22  C   UNL     1      -6.958   7.112  69.595  0.00  0.00    +0.125 C 
ATOM     23  C   UNL     1      -5.866   7.735  68.545  0.00  0.00    +0.030 C 
ATOM     24  C   UNL     1      -5.901   7.165  67.212  0.00  0.00    +0.006 C 
ATOM     25  C   UNL     1      -6.822  12.014  67.202  0.00  0.00    +0.030 C 
ATOM     26  C   UNL     1      -6.290   7.925  66.026  0.00  0.00    +0.044 C 
ENDROOT
BRANCH   1  28
ATOM     27  C   UNL     1      -6.886   7.999  63.009  0.00  0.00    +0.004 C 
ATOM     28  C   UNL     1      -7.331   8.301  63.920  0.00  0.00    +0.044 C 
ENDBRANCH   1  28
BRANCH  22  29
ATOM     29  O   UNL     1      -7.353   6.061  68.599  0.00  0.00    -0.333 OA
BRANCH  29  30
ATOM     30  C   UNL     1      -6.966   4.757  69.279  0.00  0.00    +0.235 C 
ATOM     31  O   UNL     1      -6.688   4.038  67.953  0.00  0.00    -0.332 OA
ATOM     32  C   UNL     1      -7.939   3.240  67.717  0.00  0.00    +0.132 C 
ATOM     33  C   UNL     1      -7.354   2.643  66.311  0.00  0.00    +0.034 C 
ATOM     34  C   UNL     1      -8.610   4.684  67.067  0.00  0.00    +0.085 C 
ATOM     35  C   UNL     1      -9.442   4.793  68.475  0.00  0.00    +0.024 C 
ATOM     36  C   UNL     1      -8.563   4.335  69.494  0.00  0.00    +0.063 C 
BRANCH  34  37
ATOM     37  N   UNL     1      -9.814   4.059  66.300  0.00  0.00    -0.269 NA
ATOM     38  C   UNL     1      -9.446   4.500  64.941  0.00  0.00    +0.090 C 
ATOM     39  C   UNL     1     -10.772   5.162  66.544  0.00  0.00    +0.090 C 
ENDBRANCH  34  37
ENDBRANCH  29  30
ENDBRANCH  22  29
BRANCH  13  40
ATOM     40  O   UNL     1      -7.557  16.802  67.699  0.00  0.00    -0.331 OA
BRANCH  40  41
ATOM     41  C   UNL     1      -8.550  17.859  67.180  0.00  0.00    +0.266 C 
ATOM     42  C   UNL     1      -8.141  19.097  68.318  0.00  0.00    +0.201 C 
ATOM     43  C   UNL     1      -6.453  19.205  68.183  0.00  0.00    +0.177 C 
ATOM     44  C   UNL     1      -6.353  19.826  66.617  0.00  0.00    +0.172 C 
ATOM     45  C   UNL     1      -6.362  18.176  66.161  0.00  0.00    +0.147 C 
ATOM     46  C   UNL     1      -6.062  18.657  64.618  0.00  0.00    +0.035 C 
ATOM     47  O   UNL     1      -7.815  18.363  65.979  0.00  0.00    -0.329 OA
BRANCH  42  48
ATOM     48  O   UNL     1      -8.541  20.210  67.394  0.00  0.00    -0.346 OA
ATOM     49  C   UNL     1      -9.812  20.285  68.027  0.00  0.00    +0.174 C 
ENDBRANCH  42  48
BRANCH  44  50
ATOM     50  O   UNL     1      -4.857  19.840  66.677  0.00  0.00    -0.349 OA
ATOM     51  C   UNL     1      -4.613  21.151  66.250  0.00  0.00    +0.174 C 
ENDBRANCH  44  50
BRANCH  43  52
ATOM     52  O   UNL     1      -6.545  20.604  68.735  0.00  0.00    -0.348 OA
ATOM     53  C   UNL     1      -5.687  20.812  69.720  0.00  0.00    +0.174 C 
ENDBRANCH  43  52
ENDBRANCH  40  41
ENDBRANCH  13  40
TORSDOF 9
ENDMDL
MODEL 6
REMARK VINA RESULT:      -5.1      4.834      8.386
REMARK  Name = 
REMARK  9 active torsions:
REMARK  status: ('A' for Active; 'I' for Inactive)
REMARK    1  A    between atoms: C_2  and  C_3
REMARK    2  A    between atoms: C_7  and  O_8
REMARK    3  A    between atoms: O_8  and  C_9
REMARK    4  A    between atoms: C_12  and  N_13
REMARK    5  A    between atoms: C_32  and  O_33
REMARK    6  A    between atoms: O_33  and  C_34
REMARK    7  A    between atoms: C_38  and  O_39
REMARK    8  A    between atoms: C_41  and  O_42
REMARK    9  A    between atoms: C_44  and  O_45
REMARK                            x       y       z     vdW  Elec       q    Type
REMARK                         _______ _______ _______ _____ _____    ______ ____
ROOT
ATOM      1  C   UNL     1      -9.063   8.438  64.858  0.00  0.00    +0.169 C 
ATOM      2  O   UNL     1      -9.990   9.162  65.848  0.00  0.00    -0.452 OA
ATOM      3  C   UNL     1      -9.657  10.362  66.353  0.00  0.00    +0.317 C 
ATOM      4  O   UNL     1     -10.763  10.987  66.583  0.00  0.00    -0.250 OA
ATOM      5  C   UNL     1      -8.481  11.164  66.040  0.00  0.00    +0.114 C 
ATOM      6  C   UNL     1      -7.378  11.043  67.242  0.00  0.00    +0.040 C 
ATOM      7  C   UNL     1      -8.318  11.212  68.529  0.00  0.00    +0.009 C 
ATOM      8  C   UNL     1      -8.649  12.413  68.629  0.00  0.00    -0.028 C 
ATOM      9  C   UNL     1      -8.347  13.281  67.346  0.00  0.00    +0.026 C 
ATOM     10  C   UNL     1      -8.060  14.582  68.347  0.00  0.00    +0.011 C 
ATOM     11  C   UNL     1      -6.373  14.595  68.449  0.00  0.00    +0.021 C 
ATOM     12  C   UNL     1      -6.875  15.624  69.592  0.00  0.00    +0.034 C 
ATOM     13  C   UNL     1      -7.520  16.772  68.598  0.00  0.00    +0.118 C 
ATOM     14  C   UNL     1      -6.194  13.434  69.551  0.00  0.00    -0.048 C 
ATOM     15  C   UNL     1      -4.817  13.653  70.122  0.00  0.00    +0.026 C 
ATOM     16  C   UNL     1      -6.418  12.445  68.778  0.00  0.00    -0.034 C 
ATOM     17  C   UNL     1      -7.683  15.764  67.295  0.00  0.00    +0.030 C 
ATOM     18  C   UNL     1      -7.793  10.133  69.415  0.00  0.00    +0.171 C 
ATOM     19  O   UNL     1      -7.432  10.313  70.527  0.00  0.00    -0.292 OA
ATOM     20  C   UNL     1      -8.829   8.991  68.995  0.00  0.00    +0.089 C 
ATOM     21  C   UNL     1      -9.462   8.805  70.479  0.00  0.00    +0.011 C 
ATOM     22  C   UNL     1      -7.823   7.616  69.125  0.00  0.00    +0.125 C 
ATOM     23  C   UNL     1      -6.819   8.102  67.926  0.00  0.00    +0.030 C 
ATOM     24  C   UNL     1      -7.258   7.768  66.585  0.00  0.00    +0.006 C 
ATOM     25  C   UNL     1      -6.809  12.638  67.250  0.00  0.00    +0.030 C 
ATOM     26  C   UNL     1      -7.640   8.772  65.593  0.00  0.00    +0.044 C 
ENDROOT
BRANCH   1  28
ATOM     27  C   UNL     1      -9.062   9.477  62.794  0.00  0.00    +0.004 C 
ATOM     28  C   UNL     1      -8.915   9.709  63.816  0.00  0.00    +0.044 C 
ENDBRANCH   1  28
BRANCH  22  29
ATOM     29  O   UNL     1      -8.669   6.858  68.144  0.00  0.00    -0.333 OA
BRANCH  29  30
ATOM     30  C   UNL     1      -9.636   6.083  69.024  0.00  0.00    +0.235 C 
ATOM     31  O   UNL     1      -8.728   4.849  69.098  0.00  0.00    -0.332 OA
ATOM     32  C   UNL     1      -9.319   3.917  68.078  0.00  0.00    +0.132 C 
ATOM     33  C   UNL     1      -8.182   2.781  68.382  0.00  0.00    +0.034 C 
ATOM     34  C   UNL     1      -8.422   4.801  66.907  0.00  0.00    +0.085 C 
ATOM     35  C   UNL     1      -9.854   5.487  66.499  0.00  0.00    +0.024 C 
ATOM     36  C   UNL     1     -10.573   5.660  67.713  0.00  0.00    +0.063 C 
BRANCH  34  37
ATOM     37  N   UNL     1      -8.482   3.771  65.739  0.00  0.00    -0.269 NA
ATOM     38  C   UNL     1      -7.090   3.908  65.269  0.00  0.00    +0.090 C 
ATOM     39  C   UNL     1      -9.056   4.685  64.725  0.00  0.00    +0.090 C 
ENDBRANCH  34  37
ENDBRANCH  29  30
ENDBRANCH  22  29
BRANCH  13  40
ATOM     40  O   UNL     1      -6.104  17.327  68.362  0.00  0.00    -0.331 OA
BRANCH  40  41
ATOM     41  C   UNL     1      -6.649  18.550  69.124  0.00  0.00    +0.266 C 
ATOM     42  C   UNL     1      -5.140  19.054  69.804  0.00  0.00    +0.201 C 
ATOM     43  C   UNL     1      -4.113  19.131  68.455  0.00  0.00    +0.177 C 
ATOM     44  C   UNL     1      -4.830  20.432  67.654  0.00  0.00    +0.172 C 
ATOM     45  C   UNL     1      -5.803  19.217  66.941  0.00  0.00    +0.147 C 
ATOM     46  C   UNL     1      -6.435  20.375  65.960  0.00  0.00    +0.035 C 
ATOM     47  O   UNL     1      -6.769  19.539  68.009  0.00  0.00    -0.329 OA
BRANCH  42  48
ATOM     48  O   UNL     1      -5.552  20.493  69.893  0.00  0.00    -0.346 OA
ATOM     49  C   UNL     1      -5.613  20.394  71.310  0.00  0.00    +0.174 C 
ENDBRANCH  42  48
BRANCH  44  50
ATOM     50  O   UNL     1      -3.836  20.342  66.538  0.00  0.00    -0.349 OA
ATOM     51  C   UNL     1      -3.400  21.672  66.498  0.00  0.00    +0.174 C 
ENDBRANCH  44  50
BRANCH  43  52
ATOM     52  O   UNL     1      -3.243  20.085  69.230  0.00  0.00    -0.348 OA
ATOM     53  C   UNL     1      -1.994  19.659  69.326  0.00  0.00    +0.174 C 
ENDBRANCH  43  52
ENDBRANCH  40  41
ENDBRANCH  13  40
TORSDOF 9
ENDMDL
MODEL 7
REMARK VINA RESULT:      -5.1      2.276      3.126
REMARK  Name = 
REMARK  9 active torsions:
REMARK  status: ('A' for Active; 'I' for Inactive)
REMARK    1  A    between atoms: C_2  and  C_3
REMARK    2  A    between atoms: C_7  and  O_8
REMARK    3  A    between atoms: O_8  and  C_9
REMARK    4  A    between atoms: C_12  and  N_13
REMARK    5  A    between atoms: C_32  and  O_33
REMARK    6  A    between atoms: O_33  and  C_34
REMARK    7  A    between atoms: C_38  and  O_39
REMARK    8  A    between atoms: C_41  and  O_42
REMARK    9  A    between atoms: C_44  and  O_45
REMARK                            x       y       z     vdW  Elec       q    Type
REMARK                         _______ _______ _______ _____ _____    ______ ____
ROOT
ATOM      1  C   UNL     1      -5.658   4.846  72.258  0.00  0.00    +0.169 C 
ATOM      2  O   UNL     1      -5.735   4.880  70.723  0.00  0.00    -0.452 OA
ATOM      3  C   UNL     1      -6.100   5.999  70.075  0.00  0.00    +0.317 C 
ATOM      4  O   UNL     1      -5.497   5.981  68.934  0.00  0.00    -0.250 OA
ATOM      5  C   UNL     1      -6.411   7.301  70.653  0.00  0.00    +0.114 C 
ATOM      6  C   UNL     1      -8.030   7.532  70.687  0.00  0.00    +0.040 C 
ATOM      7  C   UNL     1      -8.435   7.032  69.219  0.00  0.00    +0.009 C 
ATOM      8  C   UNL     1      -8.087   7.900  68.390  0.00  0.00    -0.028 C 
ATOM      9  C   UNL     1      -7.108   8.995  68.966  0.00  0.00    +0.026 C 
ATOM     10  C   UNL     1      -7.812  10.103  67.939  0.00  0.00    +0.011 C 
ATOM     11  C   UNL     1      -8.902  10.898  68.958  0.00  0.00    +0.021 C 
ATOM     12  C   UNL     1      -9.295  11.374  67.462  0.00  0.00    +0.034 C 
ATOM     13  C   UNL     1      -7.919  12.218  67.123  0.00  0.00    +0.118 C 
ATOM     14  C   UNL     1     -10.084   9.806  68.938  0.00  0.00    -0.048 C 
ATOM     15  C   UNL     1     -11.313  10.560  69.376  0.00  0.00    +0.026 C 
ATOM     16  C   UNL     1      -9.536   8.963  69.722  0.00  0.00    -0.034 C 
ATOM     17  C   UNL     1      -6.998  11.470  68.278  0.00  0.00    +0.030 C 
ATOM     18  C   UNL     1      -9.642   6.208  69.516  0.00  0.00    +0.171 C 
ATOM     19  O   UNL     1     -10.690   6.362  68.987  0.00  0.00    -0.292 OA
ATOM     20  C   UNL     1      -8.910   4.793  69.632  0.00  0.00    +0.089 C 
ATOM     21  C   UNL     1      -9.718   4.100  68.405  0.00  0.00    +0.011 C 
ATOM     22  C   UNL     1      -9.874   4.057  70.836  0.00  0.00    +0.125 C 
ATOM     23  C   UNL     1      -9.453   5.142  71.989  0.00  0.00    +0.030 C 
ATOM     24  C   UNL     1      -8.209   4.853  72.678  0.00  0.00    +0.006 C 
ATOM     25  C   UNL     1      -8.078   9.183  70.312  0.00  0.00    +0.030 C 
ATOM     26  C   UNL     1      -7.020   5.696  72.572  0.00  0.00    +0.044 C 
ENDROOT
BRANCH   1  28
ATOM     27  C   UNL     1      -4.202   6.284  73.331  0.00  0.00    +0.004 C 
ATOM     28  C   UNL     1      -4.697   6.180  72.402  0.00  0.00    +0.044 C 
ENDBRANCH   1  28
BRANCH  22  29
ATOM     29  O   UNL     1      -8.746   3.152  71.239  0.00  0.00    -0.333 OA
BRANCH  29  30
ATOM     30  C   UNL     1      -9.445   1.989  71.925  0.00  0.00    +0.235 C 
ATOM     31  O   UNL     1      -8.194   1.578  72.712  0.00  0.00    -0.332 OA
ATOM     32  C   UNL     1      -7.639   0.432  71.913  0.00  0.00    +0.132 C 
ATOM     33  C   UNL     1      -6.387   0.250  72.950  0.00  0.00    +0.034 C 
ATOM     34  C   UNL     1      -6.907   1.625  70.912  0.00  0.00    +0.085 C 
ATOM     35  C   UNL     1      -8.084   1.267  69.827  0.00  0.00    +0.024 C 
ATOM     36  C   UNL     1      -9.261   1.020  70.583  0.00  0.00    +0.063 C 
BRANCH  34  37
ATOM     37  N   UNL     1      -5.855   0.721  70.202  0.00  0.00    -0.269 NA
ATOM     38  C   UNL     1      -4.700   1.635  70.295  0.00  0.00    +0.090 C 
ATOM     39  C   UNL     1      -6.209   1.094  68.813  0.00  0.00    +0.090 C 
ENDBRANCH  34  37
ENDBRANCH  29  30
ENDBRANCH  22  29
BRANCH  13  40
ATOM     40  O   UNL     1      -8.479  13.407  67.922  0.00  0.00    -0.331 OA
BRANCH  40  41
ATOM     41  C   UNL     1      -9.381  13.584  66.685  0.00  0.00    +0.266 C 
ATOM     42  C   UNL     1     -10.806  14.065  67.541  0.00  0.00    +0.201 C 
ATOM     43  C   UNL     1     -10.257  15.330  68.529  0.00  0.00    +0.177 C 
ATOM     44  C   UNL     1      -9.911  16.468  67.331  0.00  0.00    +0.172 C 
ATOM     45  C   UNL     1      -8.376  15.709  67.315  0.00  0.00    +0.147 C 
ATOM     46  C   UNL     1      -7.864  16.890  66.293  0.00  0.00    +0.035 C 
ATOM     47  O   UNL     1      -8.917  14.917  66.194  0.00  0.00    -0.329 OA
BRANCH  42  48
ATOM     48  O   UNL     1     -11.345  14.858  66.388  0.00  0.00    -0.346 OA
ATOM     49  C   UNL     1     -12.324  13.855  66.149  0.00  0.00    +0.174 C 
ENDBRANCH  42  48
BRANCH  44  50
ATOM     50  O   UNL     1      -9.451  17.461  68.353  0.00  0.00    -0.349 OA
ATOM     51  C   UNL     1     -10.227  18.565  67.979  0.00  0.00    +0.174 C 
ENDBRANCH  44  50
BRANCH  43  52
ATOM     52  O   UNL     1     -11.676  15.831  68.598  0.00  0.00    -0.348 OA
ATOM     53  C   UNL     1     -12.136  15.865  69.838  0.00  0.00    +0.174 C 
ENDBRANCH  43  52
ENDBRANCH  40  41
ENDBRANCH  13  40
TORSDOF 9
ENDMDL
MODEL 8
REMARK VINA RESULT:      -5.0      3.152      5.043
REMARK  Name = 
REMARK  9 active torsions:
REMARK  status: ('A' for Active; 'I' for Inactive)
REMARK    1  A    between atoms: C_2  and  C_3
REMARK    2  A    between atoms: C_7  and  O_8
REMARK    3  A    between atoms: O_8  and  C_9
REMARK    4  A    between atoms: C_12  and  N_13
REMARK    5  A    between atoms: C_32  and  O_33
REMARK    6  A    between atoms: O_33  and  C_34
REMARK    7  A    between atoms: C_38  and  O_39
REMARK    8  A    between atoms: C_41  and  O_42
REMARK    9  A    between atoms: C_44  and  O_45
REMARK                            x       y       z     vdW  Elec       q    Type
REMARK                         _______ _______ _______ _____ _____    ______ ____
ROOT
ATOM      1  C   UNL     1      -6.631   2.007  67.092  0.00  0.00    +0.169 C 
ATOM      2  O   UNL     1      -7.888   2.217  67.953  0.00  0.00    -0.452 OA
ATOM      3  C   UNL     1      -8.443   3.435  68.079  0.00  0.00    +0.317 C 
ATOM      4  O   UNL     1      -9.708   3.249  68.259  0.00  0.00    -0.250 OA
ATOM      5  C   UNL     1      -8.028   4.673  67.431  0.00  0.00    +0.114 C 
ATOM      6  C   UNL     1      -7.210   5.617  68.488  0.00  0.00    +0.040 C 
ATOM      7  C   UNL     1      -8.147   5.500  69.782  0.00  0.00    +0.009 C 
ATOM      8  C   UNL     1      -9.176   6.184  69.596  0.00  0.00    -0.028 C 
ATOM      9  C   UNL     1      -9.388   6.648  68.103  0.00  0.00    +0.026 C 
ATOM     10  C   UNL     1     -10.086   8.047  68.682  0.00  0.00    +0.011 C 
ATOM     11  C   UNL     1      -8.811   9.153  68.584  0.00  0.00    +0.021 C 
ATOM     12  C   UNL     1      -9.951   9.895  69.461  0.00  0.00    +0.034 C 
ATOM     13  C   UNL     1     -11.091  10.041  68.278  0.00  0.00    +0.118 C 
ATOM     14  C   UNL     1      -8.028   8.733  69.926  0.00  0.00    -0.048 C 
ATOM     15  C   UNL     1      -7.164   9.922  70.257  0.00  0.00    +0.026 C 
ATOM     16  C   UNL     1      -7.502   7.663  69.476  0.00  0.00    -0.034 C 
ATOM     17  C   UNL     1     -10.460   8.849  67.317  0.00  0.00    +0.030 C 
ATOM     18  C   UNL     1      -7.134   5.297  70.857  0.00  0.00    +0.171 C 
ATOM     19  O   UNL     1      -7.068   5.964  71.833  0.00  0.00    -0.292 OA
ATOM     20  C   UNL     1      -7.162   3.700  70.878  0.00  0.00    +0.089 C 
ATOM     21  C   UNL     1      -7.655   3.574  72.420  0.00  0.00    +0.011 C 
ATOM     22  C   UNL     1      -5.526   3.379  71.254  0.00  0.00    +0.125 C 
ATOM     23  C   UNL     1      -4.965   4.036  69.862  0.00  0.00    +0.030 C 
ATOM     24  C   UNL     1      -4.972   3.145  68.717  0.00  0.00    +0.006 C 
ATOM     25  C   UNL     1      -7.793   7.133  68.007  0.00  0.00    +0.030 C 
ATOM     26  C   UNL     1      -5.819   3.354  67.545  0.00  0.00    +0.044 C 
ENDROOT
BRANCH   1  28
ATOM     27  C   UNL     1      -6.994   2.261  64.824  0.00  0.00    +0.004 C 
ATOM     28  C   UNL     1      -7.240   2.732  65.740  0.00  0.00    +0.044 C 
ENDBRANCH   1  28
BRANCH  22  29
ATOM     29  O   UNL     1      -5.605   2.024  70.612  0.00  0.00    -0.333 OA
BRANCH  29  30
ATOM     30  C   UNL     1      -4.477   1.247  71.272  0.00  0.00    +0.235 C 
ATOM     31  O   UNL     1      -4.354   0.254  70.109  0.00  0.00    -0.332 OA
ATOM     32  C   UNL     1      -5.115  -0.949  70.594  0.00  0.00    +0.132 C 
ATOM     33  C   UNL     1      -4.818  -1.759  69.205  0.00  0.00    +0.034 C 
ATOM     34  C   UNL     1      -6.533  -0.134  70.060  0.00  0.00    +0.085 C 
ATOM     35  C   UNL     1      -6.815   0.167  71.647  0.00  0.00    +0.024 C 
ATOM     36  C   UNL     1      -5.547   0.413  72.238  0.00  0.00    +0.063 C 
BRANCH  34  37
ATOM     37  N   UNL     1      -7.504  -1.352  70.026  0.00  0.00    -0.269 NA
ATOM     38  C   UNL     1      -8.137  -1.076  68.722  0.00  0.00    +0.090 C 
ATOM     39  C   UNL     1      -8.586  -0.739  70.832  0.00  0.00    +0.090 C 
ENDBRANCH  34  37
ENDBRANCH  29  30
ENDBRANCH  22  29
BRANCH  13  40
ATOM     40  O   UNL     1     -10.342  11.274  67.742  0.00  0.00    -0.331 OA
BRANCH  40  41
ATOM     41  C   UNL     1     -11.535  12.040  68.345  0.00  0.00    +0.266 C 
ATOM     42  C   UNL     1     -10.689  13.516  68.662  0.00  0.00    +0.201 C 
ATOM     43  C   UNL     1      -9.961  13.873  67.172  0.00  0.00    +0.177 C 
ATOM     44  C   UNL     1     -11.350  14.205  66.273  0.00  0.00    +0.172 C 
ATOM     45  C   UNL     1     -11.330  12.520  65.968  0.00  0.00    +0.147 C 
ATOM     46  C   UNL     1     -12.565  12.753  64.907  0.00  0.00    +0.035 C 
ATOM     47  O   UNL     1     -12.269  12.429  67.102  0.00  0.00    -0.329 OA
BRANCH  42  48
ATOM     48  O   UNL     1     -11.925  14.359  68.550  0.00  0.00    -0.346 OA
ATOM     49  C   UNL     1     -11.904  14.584  69.954  0.00  0.00    +0.174 C 
ENDBRANCH  42  48
BRANCH  44  50
ATOM     50  O   UNL     1     -10.539  14.475  65.045  0.00  0.00    -0.349 OA
ATOM     51  C   UNL     1     -11.041  15.735  64.699  0.00  0.00    +0.174 C 
ENDBRANCH  44  50
BRANCH  43  52
ATOM     52  O   UNL     1      -9.893  15.315  67.603  0.00  0.00    -0.348 OA
ATOM     53  C   UNL     1      -8.664  15.800  67.540  0.00  0.00    +0.174 C 
ENDBRANCH  43  52
ENDBRANCH  40  41
ENDBRANCH  13  40
TORSDOF 9
ENDMDL
MODEL 9
REMARK VINA RESULT:      -5.0      5.141      8.813
REMARK  Name = 
REMARK  9 active torsions:
REMARK  status: ('A' for Active; 'I' for Inactive)
REMARK    1  A    between atoms: C_2  and  C_3
REMARK    2  A    between atoms: C_7  and  O_8
REMARK    3  A    between atoms: O_8  and  C_9
REMARK    4  A    between atoms: C_12  and  N_13
REMARK    5  A    between atoms: C_32  and  O_33
REMARK    6  A    between atoms: O_33  and  C_34
REMARK    7  A    between atoms: C_38  and  O_39
REMARK    8  A    between atoms: C_41  and  O_42
REMARK    9  A    between atoms: C_44  and  O_45
REMARK                            x       y       z     vdW  Elec       q    Type
REMARK                         _______ _______ _______ _____ _____    ______ ____
ROOT
ATOM      1  C   UNL     1      -9.616   9.035  65.949  0.00  0.00    +0.169 C 
ATOM      2  O   UNL     1      -9.490   9.210  67.471  0.00  0.00    -0.452 OA
ATOM      3  C   UNL     1      -8.879  10.286  67.994  0.00  0.00    +0.317 C 
ATOM      4  O   UNL     1      -9.439  10.513  69.135  0.00  0.00    -0.250 OA
ATOM      5  C   UNL     1      -8.320  11.427  67.278  0.00  0.00    +0.114 C 
ATOM      6  C   UNL     1      -6.690  11.306  67.209  0.00  0.00    +0.040 C 
ATOM      7  C   UNL     1      -6.356  10.886  68.719  0.00  0.00    +0.009 C 
ATOM      8  C   UNL     1      -6.491  11.888  69.453  0.00  0.00    -0.028 C 
ATOM      9  C   UNL     1      -7.236  13.100  68.771  0.00  0.00    +0.026 C 
ATOM     10  C   UNL     1      -6.285  14.134  69.669  0.00  0.00    +0.011 C 
ATOM     11  C   UNL     1      -5.084  14.572  68.564  0.00  0.00    +0.021 C 
ATOM     12  C   UNL     1      -4.556  15.106  69.998  0.00  0.00    +0.034 C 
ATOM     13  C   UNL     1      -5.715  16.251  70.255  0.00  0.00    +0.118 C 
ATOM     14  C   UNL     1      -4.155  13.262  68.692  0.00  0.00    -0.048 C 
ATOM     15  C   UNL     1      -2.810  13.691  68.168  0.00  0.00    +0.026 C 
ATOM     16  C   UNL     1      -4.890  12.479  68.006  0.00  0.00    -0.034 C 
ATOM     17  C   UNL     1      -6.805  15.600  69.192  0.00  0.00    +0.030 C 
ATOM     18  C   UNL     1      -5.357   9.799  68.504  0.00  0.00    +0.171 C 
ATOM     19  O   UNL     1      -4.286   9.782  69.006  0.00  0.00    -0.292 OA
ATOM     20  C   UNL     1      -6.373   8.566  68.544  0.00  0.00    +0.089 C 
ATOM     21  C   UNL     1      -5.692   7.849  69.832  0.00  0.00    +0.011 C 
ATOM     22  C   UNL     1      -5.619   7.524  67.419  0.00  0.00    +0.125 C 
ATOM     23  C   UNL     1      -5.837   8.549  66.160  0.00  0.00    +0.030 C 
ATOM     24  C   UNL     1      -7.133   8.460  65.514  0.00  0.00    +0.006 C 
ATOM     25  C   UNL     1      -6.287  12.940  67.406  0.00  0.00    +0.030 C 
ATOM     26  C   UNL     1      -8.116   9.541  65.537  0.00  0.00    +0.044 C 
ENDROOT
BRANCH   1  28
ATOM     27  C   UNL     1     -10.492  10.739  64.657  0.00  0.00    +0.004 C 
ATOM     28  C   UNL     1     -10.281  10.520  65.671  0.00  0.00    +0.044 C 
ENDBRANCH   1  28
BRANCH  22  29
ATOM     29  O   UNL     1      -6.922   6.841  67.122  0.00  0.00    -0.333 OA
BRANCH  29  30
ATOM     30  C   UNL     1      -6.502   5.511  66.518  0.00  0.00    +0.235 C 
ATOM     31  O   UNL     1      -7.856   5.288  65.830  0.00  0.00    -0.332 OA
ATOM     32  C   UNL     1      -8.568   4.344  66.757  0.00  0.00    +0.132 C 
ATOM     33  C   UNL     1      -9.894   4.324  65.800  0.00  0.00    +0.034 C 
ATOM     34  C   UNL     1      -8.995   5.736  67.674  0.00  0.00    +0.085 C 
ATOM     35  C   UNL     1      -7.843   5.247  68.733  0.00  0.00    +0.024 C 
ATOM     36  C   UNL     1      -6.784   4.711  67.951  0.00  0.00    +0.063 C 
BRANCH  34  37
ATOM     37  N   UNL     1     -10.154   5.117  68.513  0.00  0.00    -0.269 NA
ATOM     38  C   UNL     1     -11.065   6.278  68.495  0.00  0.00    +0.090 C 
ATOM     39  C   UNL     1      -9.585   5.415  69.848  0.00  0.00    +0.090 C 
ENDBRANCH  34  37
ENDBRANCH  29  30
ENDBRANCH  22  29
BRANCH  13  40
ATOM     40  O   UNL     1      -4.941  17.206  69.329  0.00  0.00    -0.331 OA
BRANCH  40  41
ATOM     41  C   UNL     1      -5.563  18.294  70.226  0.00  0.00    +0.266 C 
ATOM     42  C   UNL     1      -4.194  19.352  70.240  0.00  0.00    +0.201 C 
ATOM     43  C   UNL     1      -3.835  19.543  68.593  0.00  0.00    +0.177 C 
ATOM     44  C   UNL     1      -5.207  20.406  68.123  0.00  0.00    +0.172 C 
ATOM     45  C   UNL     1      -5.875  18.849  67.877  0.00  0.00    +0.147 C 
ATOM     46  C   UNL     1      -7.189  19.578  67.210  0.00  0.00    +0.035 C 
ATOM     47  O   UNL     1      -6.427  19.007  69.236  0.00  0.00    -0.329 OA
BRANCH  42  48
ATOM     48  O   UNL     1      -5.027  20.580  70.463  0.00  0.00    -0.346 OA
ATOM     49  C   UNL     1      -4.488  20.714  71.772  0.00  0.00    +0.174 C 
ENDBRANCH  42  48
BRANCH  44  50
ATOM     50  O   UNL     1      -4.731  20.467  66.705  0.00  0.00    -0.349 OA
ATOM     51  C   UNL     1      -4.813  21.847  66.484  0.00  0.00    +0.174 C 
ENDBRANCH  44  50
BRANCH  43  52
ATOM     52  O   UNL     1      -3.140  20.833  68.941  0.00  0.00    -0.348 OA
ATOM     53  C   UNL     1      -1.938  20.918  68.396  0.00  0.00    +0.174 C 
ENDBRANCH  43  52
ENDBRANCH  40  41
ENDBRANCH  13  40
TORSDOF 9
ENDMDL
