MODEL 1
REMARK VINA RESULT:      -5.9      0.000      0.000
REMARK  Name = 
REMARK  2 active torsions:
REMARK  status: ('A' for Active; 'I' for Inactive)
REMARK    1  A    between atoms: C_6  and  C_7
REMARK    2  A    between atoms: C_10  and  C_11
REMARK                            x       y       z     vdW  Elec       q    Type
REMARK                         _______ _______ _______ _____ _____    ______ ____
ROOT
ATOM      1  C   UNL     1      -8.705  15.904  68.182  0.00  0.00    +0.052 C 
ATOM      2  C   UNL     1      -9.871  15.769  67.264  0.00  0.00    +0.063 A 
ATOM      3  C   UNL     1     -10.844  14.847  67.621  0.00  0.00    +0.015 A 
ATOM      4  C   UNL     1     -11.622  14.242  66.646  0.00  0.00    +0.016 A 
ATOM      5  C   UNL     1     -11.596  14.803  65.395  0.00  0.00    +0.126 A 
ATOM      6  C   UNL     1     -10.891  15.983  65.186  0.00  0.00    +0.289 A 
ATOM      7  O   UNL     1     -11.271  16.723  64.232  0.00  0.00    -0.264 OA
ATOM      8  N   UNL     1      -9.918  16.368  66.051  0.00  0.00    -0.212 NA
ENDROOT
BRANCH   3   9
ATOM      9  C   UNL     1     -11.230  14.731  69.035  0.00  0.00    +0.004 A 
ATOM     10  C   UNL     1     -11.731  15.829  69.724  0.00  0.00    +0.021 A 
ATOM     11  C   UNL     1     -12.750  15.632  70.647  0.00  0.00    +0.099 A 
ATOM     12  N   UNL     1     -13.161  14.382  70.973  0.00  0.00    -0.242 NA
ATOM     13  C   UNL     1     -12.331  13.355  70.672  0.00  0.00    +0.099 A 
ATOM     14  C   UNL     1     -11.557  13.475  69.531  0.00  0.00    +0.021 A 
ENDBRANCH   3   9
BRANCH   5  15
ATOM     15  C   UNL     1     -12.187  14.091  64.286  0.00  0.00    +0.105 C 
ATOM     16  N   UNL     1     -12.454  13.236  63.536  0.00  0.00    -0.191 NA
ENDBRANCH   5  15
TORSDOF 2
ENDMDL
MODEL 2
REMARK VINA RESULT:      -5.9      2.461      3.296
REMARK  Name = 
REMARK  2 active torsions:
REMARK  status: ('A' for Active; 'I' for Inactive)
REMARK    1  A    between atoms: C_6  and  C_7
REMARK    2  A    between atoms: C_10  and  C_11
REMARK                            x       y       z     vdW  Elec       q    Type
REMARK                         _______ _______ _______ _____ _____    ______ ____
ROOT
ATOM      1  C   UNL     1     -11.023  16.511  68.527  0.00  0.00    +0.052 C 
ATOM      2  C   UNL     1     -11.549  15.128  68.358  0.00  0.00    +0.063 A 
ATOM      3  C   UNL     1     -11.764  14.395  69.516  0.00  0.00    +0.015 A 
ATOM      4  C   UNL     1     -11.693  13.010  69.488  0.00  0.00    +0.016 A 
ATOM      5  C   UNL     1     -11.707  12.413  68.254  0.00  0.00    +0.126 A 
ATOM      6  C   UNL     1     -11.889  13.191  67.116  0.00  0.00    +0.289 A 
ATOM      7  O   UNL     1     -12.389  12.624  66.101  0.00  0.00    -0.264 OA
ATOM      8  N   UNL     1     -11.649  14.527  67.149  0.00  0.00    -0.212 NA
ENDROOT
BRANCH   3   9
ATOM      9  C   UNL     1     -12.337  15.070  70.689  0.00  0.00    +0.004 A 
ATOM     10  C   UNL     1     -13.713  15.126  70.871  0.00  0.00    +0.021 A 
ATOM     11  C   UNL     1     -14.225  15.007  72.157  0.00  0.00    +0.099 A 
ATOM     12  N   UNL     1     -13.401  14.970  73.233  0.00  0.00    -0.242 NA
ATOM     13  C   UNL     1     -12.133  15.415  73.061  0.00  0.00    +0.099 A 
ATOM     14  C   UNL     1     -11.547  15.211  71.824  0.00  0.00    +0.021 A 
ENDBRANCH   3   9
BRANCH   5  15
ATOM     15  C   UNL     1     -11.398  11.006  68.143  0.00  0.00    +0.105 C 
ATOM     16  N   UNL     1     -10.996   9.991  67.729  0.00  0.00    -0.191 NA
ENDBRANCH   5  15
TORSDOF 2
ENDMDL
MODEL 3
REMARK VINA RESULT:      -5.7      2.217      4.379
REMARK  Name = 
REMARK  2 active torsions:
REMARK  status: ('A' for Active; 'I' for Inactive)
REMARK    1  A    between atoms: C_6  and  C_7
REMARK    2  A    between atoms: C_10  and  C_11
REMARK                            x       y       z     vdW  Elec       q    Type
REMARK                         _______ _______ _______ _____ _____    ______ ____
ROOT
ATOM      1  C   UNL     1     -11.637  15.818  69.559  0.00  0.00    +0.052 C 
ATOM      2  C   UNL     1     -11.471  14.815  68.471  0.00  0.00    +0.063 A 
ATOM      3  C   UNL     1     -11.009  15.286  67.250  0.00  0.00    +0.015 A 
ATOM      4  C   UNL     1     -11.343  14.628  66.077  0.00  0.00    +0.016 A 
ATOM      5  C   UNL     1     -11.870  13.368  66.201  0.00  0.00    +0.126 A 
ATOM      6  C   UNL     1     -11.951  12.778  67.457  0.00  0.00    +0.289 A 
ATOM      7  O   UNL     1     -11.950  11.513  67.504  0.00  0.00    -0.264 OA
ATOM      8  N   UNL     1     -11.910  13.539  68.581  0.00  0.00    -0.212 NA
ENDROOT
BRANCH   3   9
ATOM      9  C   UNL     1      -9.950  16.305  67.236  0.00  0.00    +0.004 A 
ATOM     10  C   UNL     1      -8.614  15.936  67.128  0.00  0.00    +0.021 A 
ATOM     11  C   UNL     1      -7.760  16.726  66.370  0.00  0.00    +0.099 A 
ATOM     12  N   UNL     1      -8.180  17.907  65.853  0.00  0.00    -0.242 NA
ATOM     13  C   UNL     1      -9.296  18.459  66.388  0.00  0.00    +0.099 A 
ATOM     14  C   UNL     1     -10.278  17.597  66.844  0.00  0.00    +0.021 A 
ENDBRANCH   3   9
BRANCH   5  15
ATOM     15  C   UNL     1     -12.455  12.727  65.046  0.00  0.00    +0.105 C 
ATOM     16  N   UNL     1     -12.868  12.554  63.967  0.00  0.00    -0.191 NA
ENDBRANCH   5  15
TORSDOF 2
ENDMDL
MODEL 4
REMARK VINA RESULT:      -5.6      3.558      6.158
REMARK  Name = 
REMARK  2 active torsions:
REMARK  status: ('A' for Active; 'I' for Inactive)
REMARK    1  A    between atoms: C_6  and  C_7
REMARK    2  A    between atoms: C_10  and  C_11
REMARK                            x       y       z     vdW  Elec       q    Type
REMARK                         _______ _______ _______ _____ _____    ______ ____
ROOT
ATOM      1  C   UNL     1     -11.977  13.563  68.717  0.00  0.00    +0.052 C 
ATOM      2  C   UNL     1     -12.302  14.532  69.800  0.00  0.00    +0.063 A 
ATOM      3  C   UNL     1     -11.264  15.334  70.253  0.00  0.00    +0.015 A 
ATOM      4  C   UNL     1     -11.275  15.821  71.551  0.00  0.00    +0.016 A 
ATOM      5  C   UNL     1     -12.460  15.734  72.236  0.00  0.00    +0.126 A 
ATOM      6  C   UNL     1     -13.596  15.266  71.587  0.00  0.00    +0.289 A 
ATOM      7  O   UNL     1     -14.717  15.650  72.032  0.00  0.00    -0.264 OA
ATOM      8  N   UNL     1     -13.488  14.528  70.452  0.00  0.00    -0.212 NA
ENDROOT
BRANCH   3   9
ATOM      9  C   UNL     1     -10.313  15.886  69.278  0.00  0.00    +0.004 A 
ATOM     10  C   UNL     1     -10.603  17.060  68.594  0.00  0.00    +0.021 A 
ATOM     11  C   UNL     1      -9.575  17.958  68.340  0.00  0.00    +0.099 A 
ATOM     12  N   UNL     1      -8.288  17.644  68.631  0.00  0.00    -0.242 NA
ATOM     13  C   UNL     1      -7.995  16.335  68.820  0.00  0.00    +0.099 A 
ATOM     14  C   UNL     1      -8.972  15.538  69.390  0.00  0.00    +0.021 A 
ENDBRANCH   3   9
BRANCH   5  15
ATOM     15  C   UNL     1     -12.479  16.000  73.657  0.00  0.00    +0.105 C 
ATOM     16  N   UNL     1     -12.496  16.571  74.675  0.00  0.00    -0.191 NA
ENDBRANCH   5  15
TORSDOF 2
ENDMDL
MODEL 5
REMARK VINA RESULT:      -5.5      2.065      4.720
REMARK  Name = 
REMARK  2 active torsions:
REMARK  status: ('A' for Active; 'I' for Inactive)
REMARK    1  A    between atoms: C_6  and  C_7
REMARK    2  A    between atoms: C_10  and  C_11
REMARK                            x       y       z     vdW  Elec       q    Type
REMARK                         _______ _______ _______ _____ _____    ______ ____
ROOT
ATOM      1  C   UNL     1     -11.752  14.361  68.888  0.00  0.00    +0.052 C 
ATOM      2  C   UNL     1     -11.258  15.466  68.021  0.00  0.00    +0.063 A 
ATOM      3  C   UNL     1     -10.588  15.100  66.862  0.00  0.00    +0.015 A 
ATOM      4  C   UNL     1      -9.637  15.944  66.310  0.00  0.00    +0.016 A 
ATOM      5  C   UNL     1      -9.614  17.237  66.768  0.00  0.00    +0.126 A 
ATOM      6  C   UNL     1     -10.584  17.663  67.669  0.00  0.00    +0.289 A 
ATOM      7  O   UNL     1     -10.855  18.900  67.685  0.00  0.00    -0.264 OA
ATOM      8  N   UNL     1     -11.286  16.764  68.405  0.00  0.00    -0.212 NA
ENDROOT
BRANCH   3   9
ATOM      9  C   UNL     1     -11.087  13.959  66.082  0.00  0.00    +0.004 A 
ATOM     10  C   UNL     1     -12.159  14.112  65.211  0.00  0.00    +0.021 A 
ATOM     11  C   UNL     1     -12.147  13.423  64.005  0.00  0.00    +0.099 A 
ATOM     12  N   UNL     1     -11.178  12.515  63.733  0.00  0.00    -0.242 NA
ATOM     13  C   UNL     1     -10.463  12.035  64.779  0.00  0.00    +0.099 A 
ATOM     14  C   UNL     1     -10.227  12.895  65.837  0.00  0.00    +0.021 A 
ENDBRANCH   3   9
BRANCH   5  15
ATOM     15  C   UNL     1      -8.507  18.095  66.415  0.00  0.00    +0.105 C 
ATOM     16  N   UNL     1      -7.689  18.643  65.788  0.00  0.00    -0.191 NA
ENDBRANCH   5  15
TORSDOF 2
ENDMDL
MODEL 6
REMARK VINA RESULT:      -5.5      2.426      3.366
REMARK  Name = 
REMARK  2 active torsions:
REMARK  status: ('A' for Active; 'I' for Inactive)
REMARK    1  A    between atoms: C_6  and  C_7
REMARK    2  A    between atoms: C_10  and  C_11
REMARK                            x       y       z     vdW  Elec       q    Type
REMARK                         _______ _______ _______ _____ _____    ______ ____
ROOT
ATOM      1  C   UNL     1     -11.872  11.131  69.591  0.00  0.00    +0.052 C 
ATOM      2  C   UNL     1     -11.570  11.695  68.246  0.00  0.00    +0.063 A 
ATOM      3  C   UNL     1     -11.805  13.051  68.069  0.00  0.00    +0.015 A 
ATOM      4  C   UNL     1     -12.106  13.548  66.811  0.00  0.00    +0.016 A 
ATOM      5  C   UNL     1     -11.867  12.721  65.743  0.00  0.00    +0.126 A 
ATOM      6  C   UNL     1     -11.254  11.490  65.952  0.00  0.00    +0.289 A 
ATOM      7  O   UNL     1     -10.607  10.994  64.983  0.00  0.00    -0.264 OA
ATOM      8  N   UNL     1     -11.256  10.918  67.183  0.00  0.00    -0.212 NA
ENDROOT
BRANCH   3   9
ATOM      9  C   UNL     1     -11.458  13.980  69.154  0.00  0.00    +0.004 A 
ATOM     10  C   UNL     1     -10.274  14.707  69.112  0.00  0.00    +0.021 A 
ATOM     11  C   UNL     1     -10.274  16.015  69.578  0.00  0.00    +0.099 A 
ATOM     12  N   UNL     1     -11.368  16.537  70.185  0.00  0.00    -0.242 NA
ATOM     13  C   UNL     1     -12.297  15.667  70.650  0.00  0.00    +0.099 A 
ATOM     14  C   UNL     1     -12.483  14.494  69.939  0.00  0.00    +0.021 A 
ENDBRANCH   3   9
BRANCH   5  15
ATOM     15  C   UNL     1     -12.376  13.080  64.439  0.00  0.00    +0.105 C 
ATOM     16  N   UNL     1     -12.520  13.637  63.423  0.00  0.00    -0.191 NA
ENDBRANCH   5  15
TORSDOF 2
ENDMDL
MODEL 7
REMARK VINA RESULT:      -5.4      2.307      5.206
REMARK  Name = 
REMARK  2 active torsions:
REMARK  status: ('A' for Active; 'I' for Inactive)
REMARK    1  A    between atoms: C_6  and  C_7
REMARK    2  A    between atoms: C_10  and  C_11
REMARK                            x       y       z     vdW  Elec       q    Type
REMARK                         _______ _______ _______ _____ _____    ______ ____
ROOT
ATOM      1  C   UNL     1     -11.820  11.468  68.729  0.00  0.00    +0.052 C 
ATOM      2  C   UNL     1     -11.712  12.896  68.320  0.00  0.00    +0.063 A 
ATOM      3  C   UNL     1     -11.120  13.152  67.092  0.00  0.00    +0.015 A 
ATOM      4  C   UNL     1     -10.473  14.357  66.867  0.00  0.00    +0.016 A 
ATOM      5  C   UNL     1     -10.703  15.363  67.770  0.00  0.00    +0.126 A 
ATOM      6  C   UNL     1     -11.630  15.172  68.789  0.00  0.00    +0.289 A 
ATOM      7  O   UNL     1     -12.184  16.204  69.269  0.00  0.00    -0.264 OA
ATOM      8  N   UNL     1     -12.002  13.919  69.158  0.00  0.00    -0.212 NA
ENDROOT
BRANCH   3   9
ATOM      9  C   UNL     1     -11.425  12.268  65.958  0.00  0.00    +0.004 A 
ATOM     10  C   UNL     1     -12.430  12.594  65.056  0.00  0.00    +0.021 A 
ATOM     11  C   UNL     1     -12.242  12.310  63.710  0.00  0.00    +0.099 A 
ATOM     12  N   UNL     1     -11.160  11.608  63.292  0.00  0.00    -0.242 NA
ATOM     13  C   UNL     1     -10.486  10.890  64.223  0.00  0.00    +0.099 A 
ATOM     14  C   UNL     1     -10.435  11.402  65.508  0.00  0.00    +0.021 A 
ENDBRANCH   3   9
BRANCH   5  15
ATOM     15  C   UNL     1      -9.884  16.553  67.732  0.00  0.00    +0.105 C 
ATOM     16  N   UNL     1      -8.970  17.261  67.573  0.00  0.00    -0.191 NA
ENDBRANCH   5  15
TORSDOF 2
ENDMDL
MODEL 8
REMARK VINA RESULT:      -5.3      2.457      3.410
REMARK  Name = 
REMARK  2 active torsions:
REMARK  status: ('A' for Active; 'I' for Inactive)
REMARK    1  A    between atoms: C_6  and  C_7
REMARK    2  A    between atoms: C_10  and  C_11
REMARK                            x       y       z     vdW  Elec       q    Type
REMARK                         _______ _______ _______ _____ _____    ______ ____
ROOT
ATOM      1  C   UNL     1     -11.924  12.090  69.559  0.00  0.00    +0.052 C 
ATOM      2  C   UNL     1     -11.216  13.331  69.136  0.00  0.00    +0.063 A 
ATOM      3  C   UNL     1     -11.785  14.537  69.522  0.00  0.00    +0.015 A 
ATOM      4  C   UNL     1     -11.579  15.678  68.762  0.00  0.00    +0.016 A 
ATOM      5  C   UNL     1     -10.578  15.629  67.826  0.00  0.00    +0.126 A 
ATOM      6  C   UNL     1      -9.766  14.503  67.747  0.00  0.00    +0.289 A 
ATOM      7  O   UNL     1      -8.602  14.661  67.275  0.00  0.00    -0.264 OA
ATOM      8  N   UNL     1     -10.175  13.319  68.271  0.00  0.00    -0.212 NA
ENDROOT
BRANCH   3   9
ATOM      9  C   UNL     1     -12.360  14.654  70.869  0.00  0.00    +0.004 A 
ATOM     10  C   UNL     1     -11.604  15.159  71.920  0.00  0.00    +0.021 A 
ATOM     11  C   UNL     1     -12.224  15.970  72.862  0.00  0.00    +0.099 A 
ATOM     12  N   UNL     1     -13.566  16.161  72.840  0.00  0.00    -0.242 NA
ATOM     13  C   UNL     1     -14.310  15.275  72.134  0.00  0.00    +0.099 A 
ATOM     14  C   UNL     1     -13.742  14.732  70.995  0.00  0.00    +0.021 A 
ENDBRANCH   3   9
BRANCH   5  15
ATOM     15  C   UNL     1     -10.469  16.687  66.847  0.00  0.00    +0.105 C 
ATOM     16  N   UNL     1     -10.111  17.309  65.927  0.00  0.00    -0.191 NA
ENDBRANCH   5  15
TORSDOF 2
ENDMDL
MODEL 9
REMARK VINA RESULT:      -5.3      2.583      3.141
REMARK  Name = 
REMARK  2 active torsions:
REMARK  status: ('A' for Active; 'I' for Inactive)
REMARK    1  A    between atoms: C_6  and  C_7
REMARK    2  A    between atoms: C_10  and  C_11
REMARK                            x       y       z     vdW  Elec       q    Type
REMARK                         _______ _______ _______ _____ _____    ______ ____
ROOT
ATOM      1  C   UNL     1      -9.913  14.527  68.548  0.00  0.00    +0.052 C 
ATOM      2  C   UNL     1     -10.924  13.925  67.636  0.00  0.00    +0.063 A 
ATOM      3  C   UNL     1     -10.996  12.539  67.609  0.00  0.00    +0.015 A 
ATOM      4  C   UNL     1     -11.440  11.886  66.469  0.00  0.00    +0.016 A 
ATOM      5  C   UNL     1     -12.073  12.651  65.523  0.00  0.00    +0.126 A 
ATOM      6  C   UNL     1     -12.325  13.994  65.781  0.00  0.00    +0.289 A 
ATOM      7  O   UNL     1     -13.299  14.527  65.173  0.00  0.00    -0.264 OA
ATOM      8  N   UNL     1     -11.625  14.656  66.738  0.00  0.00    -0.212 NA
ENDROOT
BRANCH   3   9
ATOM      9  C   UNL     1     -10.868  11.795  68.870  0.00  0.00    +0.004 A 
ATOM     10  C   UNL     1     -11.880  11.836  69.821  0.00  0.00    +0.021 A 
ATOM     11  C   UNL     1     -12.177  10.682  70.535  0.00  0.00    +0.099 A 
ATOM     12  N   UNL     1     -11.411   9.570  70.408  0.00  0.00    -0.242 NA
ATOM     13  C   UNL     1     -10.174   9.723  69.876  0.00  0.00    +0.099 A 
ATOM     14  C   UNL     1     -10.013  10.701  68.910  0.00  0.00    +0.021 A 
ENDBRANCH   3   9
BRANCH   5  15
ATOM     15  C   UNL     1     -12.345  12.087  64.221  0.00  0.00    +0.105 C 
ATOM     16  N   UNL     1     -12.881  11.835  63.215  0.00  0.00    -0.191 NA
ENDBRANCH   5  15
TORSDOF 2
ENDMDL
