MODEL 1
REMARK VINA RESULT:      -7.2      0.000      0.000
REMARK  Name = 
REMARK  9 active torsions:
REMARK  status: ('A' for Active; 'I' for Inactive)
REMARK    1  A    between atoms: C_2  and  O_3
REMARK    2  A    between atoms: O_3  and  C_4
REMARK    3  A    between atoms: C_4  and  O_6
REMARK    4  A    between atoms: O_6  and  C_7
REMARK    5  A    between atoms: C_7  and  C_8
REMARK    6  A    between atoms: C_8  and  C_10
REMARK    7  A    between atoms: C_10  and  O_11
REMARK    8  A    between atoms: O_11  and  C_12
REMARK    9  A    between atoms: C_12  and  C_14
REMARK                            x       y       z     vdW  Elec       q    Type
REMARK                         _______ _______ _______ _____ _____    ______ ____
ROOT
ATOM      1  C   UNL     1     -10.133  15.039  67.387  0.00  0.00    +0.193 C 
ATOM      2  C   UNL     1      -8.881  15.697  67.805  0.00  0.00    +0.043 C 
ATOM      3  C   UNL     1      -9.430  17.209  67.487  0.00  0.00    +0.004 C 
ATOM      4  C   UNL     1      -8.220  17.860  68.504  0.00  0.00    +0.003 C 
ATOM      5  C   UNL     1      -7.249  18.038  67.138  0.00  0.00    +0.038 C 
ATOM      6  C   UNL     1      -6.486  16.481  67.217  0.00  0.00    +0.153 C 
ATOM      7  O   UNL     1      -6.595  16.316  68.740  0.00  0.00    -0.223 OA
ATOM      8  C   UNL     1      -6.048  18.825  67.873  0.00  0.00    +0.036 C 
ATOM      9  C   UNL     1      -6.598  20.213  67.736  0.00  0.00    -0.038 C 
ATOM     10  C   UNL     1      -5.796  21.187  67.393  0.00  0.00    +0.034 C 
ATOM     11  C   UNL     1      -4.668  20.923  66.488  0.00  0.00    +0.195 C 
ATOM     12  C   UNL     1      -4.217  19.552  66.385  0.00  0.00    +0.038 C 
ATOM     13  O   UNL     1      -4.156  21.862  65.804  0.00  0.00    -0.287 OA
ATOM     14  C   UNL     1      -8.051  20.307  67.749  0.00  0.00    +0.022 C 
ATOM     15  C   UNL     1      -5.991  18.595  69.310  0.00  0.00    +0.009 C 
ATOM     16  C   UNL     1      -4.829  18.606  67.097  0.00  0.00    -0.020 C 
ATOM     17  C   UNL     1      -8.862  19.327  68.376  0.00  0.00    +0.004 C 
ATOM     18  C   UNL     1     -10.565  17.017  68.652  0.00  0.00    +0.004 C 
ATOM     19  C   UNL     1      -8.792  15.563  69.266  0.00  0.00    +0.004 C 
ATOM     20  C   UNL     1      -7.862  15.617  66.875  0.00  0.00    +0.037 C 
ATOM     21  C   UNL     1     -11.264  16.014  67.718  0.00  0.00    +0.048 C 
ENDROOT
BRANCH   1  22
ATOM     22  C   UNL     1     -10.569  13.857  68.201  0.00  0.00    +0.230 C 
ATOM     23  O   UNL     1     -10.175  12.791  67.716  0.00  0.00    -0.288 OA
BRANCH  22  24
ATOM     24  C   UNL     1     -11.984  13.700  68.679  0.00  0.00    +0.276 C 
BRANCH  24  25
ATOM     25  O   UNL     1     -12.063  13.340  70.035  0.00  0.00    -0.440 OA
BRANCH  25  26
ATOM     26  C   UNL     1     -12.835  14.024  70.972  0.00  0.00    +0.317 C 
ATOM     27  O   UNL     1     -13.193  13.339  71.977  0.00  0.00    -0.250 OA
BRANCH  26  28
ATOM     28  C   UNL     1     -12.825  15.486  71.147  0.00  0.00    +0.110 C 
ATOM     29  C   UNL     1     -12.062  15.966  72.340  0.00  0.00    +0.012 C 
ENDBRANCH  26  28
ENDBRANCH  25  26
ENDBRANCH  24  25
ENDBRANCH  22  24
ENDBRANCH   1  22
BRANCH   1  30
ATOM     30  O   UNL     1     -10.101  14.652  66.042  0.00  0.00    -0.418 OA
BRANCH  30  31
ATOM     31  C   UNL     1     -11.099  15.135  65.186  0.00  0.00    +0.512 C 
ATOM     32  O   UNL     1     -10.938  16.164  64.468  0.00  0.00    -0.203 OA
BRANCH  31  33
ATOM     33  O   UNL     1     -12.244  14.402  64.872  0.00  0.00    -0.418 OA
BRANCH  33  35
ATOM     34  C   UNL     1     -12.063  12.440  63.500  0.00  0.00    +0.051 C 
ATOM     35  C   UNL     1     -12.243  12.991  64.805  0.00  0.00    +0.212 C 
ENDBRANCH  33  35
ENDBRANCH  31  33
ENDBRANCH  30  31
ENDBRANCH   1  30
TORSDOF 9
ENDMDL
MODEL 2
REMARK VINA RESULT:      -7.0      1.802      4.610
REMARK  Name = 
REMARK  9 active torsions:
REMARK  status: ('A' for Active; 'I' for Inactive)
REMARK    1  A    between atoms: C_2  and  O_3
REMARK    2  A    between atoms: O_3  and  C_4
REMARK    3  A    between atoms: C_4  and  O_6
REMARK    4  A    between atoms: O_6  and  C_7
REMARK    5  A    between atoms: C_7  and  C_8
REMARK    6  A    between atoms: C_8  and  C_10
REMARK    7  A    between atoms: C_10  and  O_11
REMARK    8  A    between atoms: O_11  and  C_12
REMARK    9  A    between atoms: C_12  and  C_14
REMARK                            x       y       z     vdW  Elec       q    Type
REMARK                         _______ _______ _______ _____ _____    ______ ____
ROOT
ATOM      1  C   UNL     1     -10.871  15.036  67.670  0.00  0.00    +0.193 C 
ATOM      2  C   UNL     1      -9.804  15.940  67.202  0.00  0.00    +0.043 C 
ATOM      3  C   UNL     1      -8.843  15.676  68.504  0.00  0.00    +0.004 C 
ATOM      4  C   UNL     1      -7.495  16.247  67.622  0.00  0.00    +0.003 C 
ATOM      5  C   UNL     1      -7.786  17.773  68.277  0.00  0.00    +0.038 C 
ATOM      6  C   UNL     1      -8.849  18.340  67.028  0.00  0.00    +0.153 C 
ATOM      7  O   UNL     1      -8.255  17.485  65.900  0.00  0.00    -0.223 OA
ATOM      8  C   UNL     1      -6.467  18.481  67.676  0.00  0.00    +0.036 C 
ATOM      9  C   UNL     1      -5.519  18.121  68.782  0.00  0.00    -0.038 C 
ATOM     10  C   UNL     1      -4.682  19.024  69.223  0.00  0.00    +0.034 C 
ATOM     11  C   UNL     1      -5.072  20.441  69.237  0.00  0.00    +0.195 C 
ATOM     12  C   UNL     1      -6.150  20.833  68.354  0.00  0.00    +0.038 C 
ATOM     13  O   UNL     1      -4.505  21.258  70.026  0.00  0.00    -0.287 OA
ATOM     14  C   UNL     1      -5.797  16.857  69.448  0.00  0.00    +0.022 C 
ATOM     15  C   UNL     1      -5.928  17.811  66.501  0.00  0.00    +0.009 C 
ATOM     16  C   UNL     1      -6.732  19.915  67.584  0.00  0.00    -0.020 C 
ATOM     17  C   UNL     1      -6.500  15.807  68.805  0.00  0.00    +0.004 C 
ATOM     18  C   UNL     1      -8.704  14.107  68.054  0.00  0.00    +0.004 C 
ATOM     19  C   UNL     1      -9.165  15.290  66.049  0.00  0.00    +0.004 C 
ATOM     20  C   UNL     1     -10.081  17.282  67.382  0.00  0.00    +0.037 C 
ATOM     21  C   UNL     1     -10.177  13.925  68.462  0.00  0.00    +0.048 C 
ENDROOT
BRANCH   1  22
ATOM     22  C   UNL     1     -11.554  14.211  66.621  0.00  0.00    +0.230 C 
ATOM     23  O   UNL     1     -12.673  14.656  66.341  0.00  0.00    -0.288 OA
BRANCH  22  24
ATOM     24  C   UNL     1     -11.614  12.712  66.701  0.00  0.00    +0.276 C 
BRANCH  24  25
ATOM     25  O   UNL     1     -12.338  12.140  65.643  0.00  0.00    -0.440 OA
BRANCH  25  26
ATOM     26  C   UNL     1     -11.909  12.153  64.317  0.00  0.00    +0.317 C 
ATOM     27  O   UNL     1     -12.708  12.699  63.498  0.00  0.00    -0.250 OA
BRANCH  26  28
ATOM     28  C   UNL     1     -10.499  12.072  63.901  0.00  0.00    +0.110 C 
ATOM     29  C   UNL     1     -10.002  10.684  63.649  0.00  0.00    +0.012 C 
ENDBRANCH  26  28
ENDBRANCH  25  26
ENDBRANCH  24  25
ENDBRANCH  22  24
ENDBRANCH   1  22
BRANCH   1  30
ATOM     30  O   UNL     1     -11.854  15.714  68.400  0.00  0.00    -0.418 OA
BRANCH  30  31
ATOM     31  C   UNL     1     -11.994  15.423  69.762  0.00  0.00    +0.512 C 
ATOM     32  O   UNL     1     -11.505  16.159  70.668  0.00  0.00    -0.203 OA
BRANCH  31  33
ATOM     33  O   UNL     1     -12.873  14.449  70.239  0.00  0.00    -0.418 OA
BRANCH  33  35
ATOM     34  C   UNL     1     -13.568  13.742  72.426  0.00  0.00    +0.051 C 
ATOM     35  C   UNL     1     -13.715  14.672  71.352  0.00  0.00    +0.212 C 
ENDBRANCH  33  35
ENDBRANCH  31  33
ENDBRANCH  30  31
ENDBRANCH   1  30
TORSDOF 9
ENDMDL
MODEL 3
REMARK VINA RESULT:      -6.6      3.972      8.320
REMARK  Name = 
REMARK  9 active torsions:
REMARK  status: ('A' for Active; 'I' for Inactive)
REMARK    1  A    between atoms: C_2  and  O_3
REMARK    2  A    between atoms: O_3  and  C_4
REMARK    3  A    between atoms: C_4  and  O_6
REMARK    4  A    between atoms: O_6  and  C_7
REMARK    5  A    between atoms: C_7  and  C_8
REMARK    6  A    between atoms: C_8  and  C_10
REMARK    7  A    between atoms: C_10  and  O_11
REMARK    8  A    between atoms: O_11  and  C_12
REMARK    9  A    between atoms: C_12  and  C_14
REMARK                            x       y       z     vdW  Elec       q    Type
REMARK                         _______ _______ _______ _____ _____    ______ ____
ROOT
ATOM      1  C   UNL     1     -11.147  13.800  67.140  0.00  0.00    +0.193 C 
ATOM      2  C   UNL     1     -10.710  12.539  67.766  0.00  0.00    +0.043 C 
ATOM      3  C   UNL     1     -10.167  11.890  66.361  0.00  0.00    +0.004 C 
ATOM      4  C   UNL     1      -9.210  10.783  67.245  0.00  0.00    +0.003 C 
ATOM      5  C   UNL     1     -10.484   9.685  67.138  0.00  0.00    +0.038 C 
ATOM      6  C   UNL     1     -11.294  10.159  68.598  0.00  0.00    +0.153 C 
ATOM      7  O   UNL     1     -10.040  10.650  69.336  0.00  0.00    -0.223 OA
ATOM      8  C   UNL     1      -9.704   8.440  67.804  0.00  0.00    +0.036 C 
ATOM      9  C   UNL     1      -9.063   7.909  66.556  0.00  0.00    -0.038 C 
ATOM     10  C   UNL     1      -9.049   6.619  66.344  0.00  0.00    +0.034 C 
ATOM     11  C   UNL     1     -10.163   5.787  66.817  0.00  0.00    +0.195 C 
ATOM     12  C   UNL     1     -10.984   6.331  67.878  0.00  0.00    +0.038 C 
ATOM     13  O   UNL     1     -10.404   4.664  66.278  0.00  0.00    -0.287 OA
ATOM     14  C   UNL     1      -8.736   8.913  65.553  0.00  0.00    +0.022 C 
ATOM     15  C   UNL     1      -8.585   8.835  68.649  0.00  0.00    +0.009 C 
ATOM     16  C   UNL     1     -10.703   7.537  68.370  0.00  0.00    -0.020 C 
ATOM     17  C   UNL     1      -8.507  10.270  65.895  0.00  0.00    +0.004 C 
ATOM     18  C   UNL     1      -9.042  13.078  66.276  0.00  0.00    +0.004 C 
ATOM     19  C   UNL     1      -9.532  12.852  68.587  0.00  0.00    +0.004 C 
ATOM     20  C   UNL     1     -11.740  11.661  68.048  0.00  0.00    +0.037 C 
ATOM     21  C   UNL     1     -10.190  14.058  65.975  0.00  0.00    +0.048 C 
ENDROOT
BRANCH   1  22
ATOM     22  C   UNL     1     -10.922  15.052  67.935  0.00  0.00    +0.230 C 
ATOM     23  O   UNL     1     -11.852  15.275  68.718  0.00  0.00    -0.288 OA
BRANCH  22  24
ATOM     24  C   UNL     1     -10.490  16.337  67.288  0.00  0.00    +0.276 C 
BRANCH  24  25
ATOM     25  O   UNL     1     -10.849  17.470  68.038  0.00  0.00    -0.440 OA
BRANCH  25  26
ATOM     26  C   UNL     1     -10.006  18.562  68.239  0.00  0.00    +0.317 C 
ATOM     27  O   UNL     1      -8.842  18.274  68.649  0.00  0.00    -0.250 OA
BRANCH  26  28
ATOM     28  C   UNL     1     -10.161  19.863  67.569  0.00  0.00    +0.110 C 
ATOM     29  C   UNL     1     -10.415  19.781  66.098  0.00  0.00    +0.012 C 
ENDBRANCH  26  28
ENDBRANCH  25  26
ENDBRANCH  24  25
ENDBRANCH  22  24
ENDBRANCH   1  22
BRANCH   1  30
ATOM     30  O   UNL     1     -12.494  13.762  66.761  0.00  0.00    -0.418 OA
BRANCH  30  31
ATOM     31  C   UNL     1     -12.801  13.690  65.397  0.00  0.00    +0.512 C 
ATOM     32  O   UNL     1     -12.710  14.690  64.626  0.00  0.00    -0.203 OA
BRANCH  31  33
ATOM     33  O   UNL     1     -12.994  12.479  64.729  0.00  0.00    -0.418 OA
BRANCH  33  35
ATOM     34  C   UNL     1     -11.258  11.484  63.402  0.00  0.00    +0.051 C 
ATOM     35  C   UNL     1     -12.472  12.235  63.440  0.00  0.00    +0.212 C 
ENDBRANCH  33  35
ENDBRANCH  31  33
ENDBRANCH  30  31
ENDBRANCH   1  30
TORSDOF 9
ENDMDL
MODEL 4
REMARK VINA RESULT:      -6.5      1.170      1.515
REMARK  Name = 
REMARK  9 active torsions:
REMARK  status: ('A' for Active; 'I' for Inactive)
REMARK    1  A    between atoms: C_2  and  O_3
REMARK    2  A    between atoms: O_3  and  C_4
REMARK    3  A    between atoms: C_4  and  O_6
REMARK    4  A    between atoms: O_6  and  C_7
REMARK    5  A    between atoms: C_7  and  C_8
REMARK    6  A    between atoms: C_8  and  C_10
REMARK    7  A    between atoms: C_10  and  O_11
REMARK    8  A    between atoms: O_11  and  C_12
REMARK    9  A    between atoms: C_12  and  C_14
REMARK                            x       y       z     vdW  Elec       q    Type
REMARK                         _______ _______ _______ _____ _____    ______ ____
ROOT
ATOM      1  C   UNL     1      -9.901  14.772  67.340  0.00  0.00    +0.193 C 
ATOM      2  C   UNL     1      -8.699  15.482  67.818  0.00  0.00    +0.043 C 
ATOM      3  C   UNL     1      -9.314  16.972  67.518  0.00  0.00    +0.004 C 
ATOM      4  C   UNL     1      -8.173  17.656  68.592  0.00  0.00    +0.003 C 
ATOM      5  C   UNL     1      -7.167  17.918  67.265  0.00  0.00    +0.038 C 
ATOM      6  C   UNL     1      -6.329  16.401  67.332  0.00  0.00    +0.153 C 
ATOM      7  O   UNL     1      -6.480  16.190  68.845  0.00  0.00    -0.223 OA
ATOM      8  C   UNL     1      -6.033  18.745  68.060  0.00  0.00    +0.036 C 
ATOM      9  C   UNL     1      -6.650  20.107  67.939  0.00  0.00    -0.038 C 
ATOM     10  C   UNL     1      -5.887  21.129  67.647  0.00  0.00    +0.034 C 
ATOM     11  C   UNL     1      -4.718  20.946  66.776  0.00  0.00    +0.195 C 
ATOM     12  C   UNL     1      -4.195  19.602  66.655  0.00  0.00    +0.038 C 
ATOM     13  O   UNL     1      -4.233  21.927  66.134  0.00  0.00    -0.287 OA
ATOM     14  C   UNL     1      -8.105  20.127  67.904  0.00  0.00    +0.022 C 
ATOM     15  C   UNL     1      -6.012  18.480  69.492  0.00  0.00    +0.009 C 
ATOM     16  C   UNL     1      -4.780  18.609  67.322  0.00  0.00    -0.020 C 
ATOM     17  C   UNL     1      -8.885  19.092  68.479  0.00  0.00    +0.004 C 
ATOM     18  C   UNL     1     -10.475  16.692  68.639  0.00  0.00    +0.004 C 
ATOM     19  C   UNL     1      -8.652  15.313  69.277  0.00  0.00    +0.004 C 
ATOM     20  C   UNL     1      -7.647  15.477  66.921  0.00  0.00    +0.037 C 
ATOM     21  C   UNL     1     -11.091  15.680  67.657  0.00  0.00    +0.048 C 
ENDROOT
BRANCH   1  22
ATOM     22  C   UNL     1     -10.302  13.549  68.110  0.00  0.00    +0.230 C 
ATOM     23  O   UNL     1      -9.809  12.521  67.633  0.00  0.00    -0.288 OA
BRANCH  22  24
ATOM     24  C   UNL     1     -11.729  13.289  68.501  0.00  0.00    +0.276 C 
BRANCH  24  25
ATOM     25  O   UNL     1     -11.872  12.982  69.864  0.00  0.00    -0.440 OA
BRANCH  25  26
ATOM     26  C   UNL     1     -12.122  11.698  70.345  0.00  0.00    +0.317 C 
ATOM     27  O   UNL     1     -11.266  10.823  70.013  0.00  0.00    -0.250 OA
BRANCH  26  28
ATOM     28  C   UNL     1     -12.931  11.402  71.539  0.00  0.00    +0.110 C 
ATOM     29  C   UNL     1     -13.187   9.948  71.773  0.00  0.00    +0.012 C 
ENDBRANCH  26  28
ENDBRANCH  25  26
ENDBRANCH  24  25
ENDBRANCH  22  24
ENDBRANCH   1  22
BRANCH   1  30
ATOM     30  O   UNL     1      -9.805  14.423  65.988  0.00  0.00    -0.418 OA
BRANCH  30  31
ATOM     31  C   UNL     1     -10.841  14.805  65.127  0.00  0.00    +0.512 C 
ATOM     32  O   UNL     1     -10.849  15.919  64.526  0.00  0.00    -0.203 OA
BRANCH  31  33
ATOM     33  O   UNL     1     -11.813  13.912  64.673  0.00  0.00    -0.418 OA
BRANCH  33  35
ATOM     34  C   UNL     1     -12.551  11.931  63.536  0.00  0.00    +0.051 C 
ATOM     35  C   UNL     1     -11.537  12.922  63.705  0.00  0.00    +0.212 C 
ENDBRANCH  33  35
ENDBRANCH  31  33
ENDBRANCH  30  31
ENDBRANCH   1  30
TORSDOF 9
ENDMDL
MODEL 5
REMARK VINA RESULT:      -6.4      1.863      8.245
REMARK  Name = 
REMARK  9 active torsions:
REMARK  status: ('A' for Active; 'I' for Inactive)
REMARK    1  A    between atoms: C_2  and  O_3
REMARK    2  A    between atoms: O_3  and  C_4
REMARK    3  A    between atoms: C_4  and  O_6
REMARK    4  A    between atoms: O_6  and  C_7
REMARK    5  A    between atoms: C_7  and  C_8
REMARK    6  A    between atoms: C_8  and  C_10
REMARK    7  A    between atoms: C_10  and  O_11
REMARK    8  A    between atoms: O_11  and  C_12
REMARK    9  A    between atoms: C_12  and  C_14
REMARK                            x       y       z     vdW  Elec       q    Type
REMARK                         _______ _______ _______ _____ _____    ______ ____
ROOT
ATOM      1  C   UNL     1      -7.985  17.506  67.323  0.00  0.00    +0.193 C 
ATOM      2  C   UNL     1      -8.840  16.320  67.129  0.00  0.00    +0.043 C 
ATOM      3  C   UNL     1      -9.499  16.403  68.628  0.00  0.00    +0.004 C 
ATOM      4  C   UNL     1     -10.806  15.433  68.103  0.00  0.00    +0.003 C 
ATOM      5  C   UNL     1      -9.959  14.089  68.665  0.00  0.00    +0.038 C 
ATOM      6  C   UNL     1      -9.106  13.746  67.193  0.00  0.00    +0.153 C 
ATOM      7  O   UNL     1     -10.162  14.332  66.245  0.00  0.00    -0.223 OA
ATOM      8  C   UNL     1     -11.133  13.015  68.405  0.00  0.00    +0.036 C 
ATOM      9  C   UNL     1     -11.855  13.180  69.710  0.00  0.00    -0.038 C 
ATOM     10  C   UNL     1     -12.281  12.117  70.342  0.00  0.00    +0.034 C 
ATOM     11  C   UNL     1     -11.524  10.861  70.259  0.00  0.00    +0.195 C 
ATOM     12  C   UNL     1     -10.619  10.715  69.138  0.00  0.00    +0.038 C 
ATOM     13  O   UNL     1     -11.639   9.977  71.161  0.00  0.00    -0.287 OA
ATOM     14  C   UNL     1     -11.788  14.514  70.289  0.00  0.00    +0.022 C 
ATOM     15  C   UNL     1     -12.099  13.435  67.399  0.00  0.00    +0.009 C 
ATOM     16  C   UNL     1     -10.512  11.701  68.249  0.00  0.00    -0.020 C 
ATOM     17  C   UNL     1     -11.576  15.668  69.494  0.00  0.00    +0.004 C 
ATOM     18  C   UNL     1     -10.169  17.843  68.227  0.00  0.00    +0.004 C 
ATOM     19  C   UNL     1      -9.886  16.696  66.169  0.00  0.00    +0.004 C 
ATOM     20  C   UNL     1      -8.168  15.116  67.234  0.00  0.00    +0.037 C 
ATOM     21  C   UNL     1      -8.751  18.440  68.261  0.00  0.00    +0.048 C 
ENDROOT
BRANCH   1  22
ATOM     22  C   UNL     1      -7.823  18.411  66.138  0.00  0.00    +0.230 C 
ATOM     23  O   UNL     1      -6.964  17.997  65.353  0.00  0.00    -0.288 OA
BRANCH  22  24
ATOM     24  C   UNL     1      -7.692  19.900  66.288  0.00  0.00    +0.276 C 
BRANCH  24  25
ATOM     25  O   UNL     1      -6.555  20.413  65.641  0.00  0.00    -0.440 OA
BRANCH  25  26
ATOM     26  C   UNL     1      -5.636  21.264  66.252  0.00  0.00    +0.317 C 
ATOM     27  O   UNL     1      -6.086  21.924  67.237  0.00  0.00    -0.250 OA
BRANCH  26  28
ATOM     28  C   UNL     1      -4.176  21.084  66.198  0.00  0.00    +0.110 C 
ATOM     29  C   UNL     1      -3.722  19.659  66.194  0.00  0.00    +0.012 C 
ENDBRANCH  26  28
ENDBRANCH  25  26
ENDBRANCH  24  25
ENDBRANCH  22  24
ENDBRANCH   1  22
BRANCH   1  30
ATOM     30  O   UNL     1      -6.709  17.166  67.787  0.00  0.00    -0.418 OA
BRANCH  30  31
ATOM     31  C   UNL     1      -6.245  17.771  68.962  0.00  0.00    +0.512 C 
ATOM     32  O   UNL     1      -6.083  17.127  70.039  0.00  0.00    -0.203 OA
BRANCH  31  33
ATOM     33  O   UNL     1      -5.699  19.056  68.985  0.00  0.00    -0.418 OA
BRANCH  33  35
ATOM     34  C   UNL     1      -4.835  20.853  70.321  0.00  0.00    +0.051 C 
ATOM     35  C   UNL     1      -5.906  19.946  70.062  0.00  0.00    +0.212 C 
ENDBRANCH  33  35
ENDBRANCH  31  33
ENDBRANCH  30  31
ENDBRANCH   1  30
TORSDOF 9
ENDMDL
MODEL 6
REMARK VINA RESULT:      -6.4      3.088      6.956
REMARK  Name = 
REMARK  9 active torsions:
REMARK  status: ('A' for Active; 'I' for Inactive)
REMARK    1  A    between atoms: C_2  and  O_3
REMARK    2  A    between atoms: O_3  and  C_4
REMARK    3  A    between atoms: C_4  and  O_6
REMARK    4  A    between atoms: O_6  and  C_7
REMARK    5  A    between atoms: C_7  and  C_8
REMARK    6  A    between atoms: C_8  and  C_10
REMARK    7  A    between atoms: C_10  and  O_11
REMARK    8  A    between atoms: O_11  and  C_12
REMARK    9  A    between atoms: C_12  and  C_14
REMARK                            x       y       z     vdW  Elec       q    Type
REMARK                         _______ _______ _______ _____ _____    ______ ____
ROOT
ATOM      1  C   UNL     1     -10.545  15.044  67.978  0.00  0.00    +0.193 C 
ATOM      2  C   UNL     1     -10.719  13.721  67.351  0.00  0.00    +0.043 C 
ATOM      3  C   UNL     1      -9.109  13.438  67.222  0.00  0.00    +0.004 C 
ATOM      4  C   UNL     1      -9.419  11.764  67.063  0.00  0.00    +0.003 C 
ATOM      5  C   UNL     1      -9.408  11.980  65.391  0.00  0.00    +0.038 C 
ATOM      6  C   UNL     1     -11.101  12.316  65.211  0.00  0.00    +0.153 C 
ATOM      7  O   UNL     1     -11.566  11.504  66.428  0.00  0.00    -0.223 OA
ATOM      8  C   UNL     1      -9.530  10.418  65.008  0.00  0.00    +0.036 C 
ATOM      9  C   UNL     1      -8.067  10.086  65.034  0.00  0.00    -0.038 C 
ATOM     10  C   UNL     1      -7.566   9.334  64.089  0.00  0.00    +0.034 C 
ATOM     11  C   UNL     1      -8.116   9.403  62.728  0.00  0.00    +0.195 C 
ATOM     12  C   UNL     1      -9.455   9.933  62.589  0.00  0.00    +0.038 C 
ATOM     13  O   UNL     1      -7.416   9.048  61.731  0.00  0.00    -0.287 OA
ATOM     14  C   UNL     1      -7.275  10.856  65.983  0.00  0.00    +0.022 C 
ATOM     15  C   UNL     1     -10.109   9.600  66.064  0.00  0.00    +0.009 C 
ATOM     16  C   UNL     1     -10.119  10.330  63.674  0.00  0.00    -0.020 C 
ATOM     17  C   UNL     1      -7.848  11.437  67.143  0.00  0.00    +0.004 C 
ATOM     18  C   UNL     1      -9.001  13.449  68.857  0.00  0.00    +0.004 C 
ATOM     19  C   UNL     1     -11.240  12.819  68.387  0.00  0.00    +0.004 C 
ATOM     20  C   UNL     1     -11.057  13.771  66.011  0.00  0.00    +0.037 C 
ATOM     21  C   UNL     1      -9.257  14.965  68.801  0.00  0.00    +0.048 C 
ENDROOT
BRANCH   1  22
ATOM     22  C   UNL     1     -11.518  15.401  69.063  0.00  0.00    +0.230 C 
ATOM     23  O   UNL     1     -12.233  16.358  68.746  0.00  0.00    -0.288 OA
BRANCH  22  24
ATOM     24  C   UNL     1     -11.093  15.543  70.497  0.00  0.00    +0.276 C 
BRANCH  24  25
ATOM     25  O   UNL     1     -12.012  16.276  71.265  0.00  0.00    -0.440 OA
BRANCH  25  26
ATOM     26  C   UNL     1     -13.039  15.693  72.005  0.00  0.00    +0.317 C 
ATOM     27  O   UNL     1     -14.142  15.573  71.393  0.00  0.00    -0.250 OA
BRANCH  26  28
ATOM     28  C   UNL     1     -12.827  14.798  73.155  0.00  0.00    +0.110 C 
ATOM     29  C   UNL     1     -12.415  15.489  74.416  0.00  0.00    +0.012 C 
ENDBRANCH  26  28
ENDBRANCH  25  26
ENDBRANCH  24  25
ENDBRANCH  22  24
ENDBRANCH   1  22
BRANCH   1  30
ATOM     30  O   UNL     1     -10.546  16.079  67.036  0.00  0.00    -0.418 OA
BRANCH  30  31
ATOM     31  C   UNL     1      -9.416  16.901  66.948  0.00  0.00    +0.512 C 
ATOM     32  O   UNL     1      -8.603  16.837  65.980  0.00  0.00    -0.203 OA
BRANCH  31  33
ATOM     33  O   UNL     1      -9.222  18.009  67.775  0.00  0.00    -0.418 OA
BRANCH  33  35
ATOM     34  C   UNL     1     -10.539  19.600  66.552  0.00  0.00    +0.051 C 
ATOM     35  C   UNL     1     -10.133  19.087  67.821  0.00  0.00    +0.212 C 
ENDBRANCH  33  35
ENDBRANCH  31  33
ENDBRANCH  30  31
ENDBRANCH   1  30
TORSDOF 9
ENDMDL
MODEL 7
REMARK VINA RESULT:      -6.3      2.457      7.978
REMARK  Name = 
REMARK  9 active torsions:
REMARK  status: ('A' for Active; 'I' for Inactive)
REMARK    1  A    between atoms: C_2  and  O_3
REMARK    2  A    between atoms: O_3  and  C_4
REMARK    3  A    between atoms: C_4  and  O_6
REMARK    4  A    between atoms: O_6  and  C_7
REMARK    5  A    between atoms: C_7  and  C_8
REMARK    6  A    between atoms: C_8  and  C_10
REMARK    7  A    between atoms: C_10  and  O_11
REMARK    8  A    between atoms: O_11  and  C_12
REMARK    9  A    between atoms: C_12  and  C_14
REMARK                            x       y       z     vdW  Elec       q    Type
REMARK                         _______ _______ _______ _____ _____    ______ ____
ROOT
ATOM      1  C   UNL     1      -7.113  18.167  67.730  0.00  0.00    +0.193 C 
ATOM      2  C   UNL     1      -8.413  17.499  67.530  0.00  0.00    +0.043 C 
ATOM      3  C   UNL     1      -7.765  15.994  67.465  0.00  0.00    +0.004 C 
ATOM      4  C   UNL     1      -9.296  15.322  67.819  0.00  0.00    +0.003 C 
ATOM      5  C   UNL     1      -9.549  15.171  66.160  0.00  0.00    +0.038 C 
ATOM      6  C   UNL     1     -10.282  16.726  65.916  0.00  0.00    +0.153 C 
ATOM      7  O   UNL     1     -10.869  16.860  67.328  0.00  0.00    -0.223 OA
ATOM      8  C   UNL     1     -10.945  14.369  66.263  0.00  0.00    +0.036 C 
ATOM      9  C   UNL     1     -10.378  12.984  66.363  0.00  0.00    -0.038 C 
ATOM     10  C   UNL     1     -10.932  12.017  65.678  0.00  0.00    +0.034 C 
ATOM     11  C   UNL     1     -11.535  12.298  64.369  0.00  0.00    +0.195 C 
ATOM     12  C   UNL     1     -11.905  13.671  64.099  0.00  0.00    +0.038 C 
ATOM     13  O   UNL     1     -11.677  11.374  63.511  0.00  0.00    -0.287 OA
ATOM     14  C   UNL     1      -9.084  12.891  67.025  0.00  0.00    +0.022 C 
ATOM     15  C   UNL     1     -11.643  14.569  67.526  0.00  0.00    +0.009 C 
ATOM     16  C   UNL     1     -11.688  14.603  65.027  0.00  0.00    -0.020 C 
ATOM     17  C   UNL     1      -8.651  13.858  67.967  0.00  0.00    +0.004 C 
ATOM     18  C   UNL     1      -7.276  16.163  69.020  0.00  0.00    +0.004 C 
ATOM     19  C   UNL     1      -9.149  17.603  68.798  0.00  0.00    +0.004 C 
ATOM     20  C   UNL     1      -8.907  17.598  66.243  0.00  0.00    +0.037 C 
ATOM     21  C   UNL     1      -6.241  17.186  68.517  0.00  0.00    +0.048 C 
ENDROOT
BRANCH   1  22
ATOM     22  C   UNL     1      -7.100  19.331  68.675  0.00  0.00    +0.230 C 
ATOM     23  O   UNL     1      -7.243  20.407  68.083  0.00  0.00    -0.288 OA
BRANCH  22  24
ATOM     24  C   UNL     1      -6.053  19.479  69.741  0.00  0.00    +0.276 C 
BRANCH  24  25
ATOM     25  O   UNL     1      -5.712  20.819  69.986  0.00  0.00    -0.440 OA
BRANCH  25  26
ATOM     26  C   UNL     1      -4.496  21.219  70.537  0.00  0.00    +0.317 C 
ATOM     27  O   UNL     1      -4.572  22.158  71.386  0.00  0.00    -0.250 OA
BRANCH  26  28
ATOM     28  C   UNL     1      -3.299  20.366  70.612  0.00  0.00    +0.110 C 
ATOM     29  C   UNL     1      -2.397  20.452  69.422  0.00  0.00    +0.012 C 
ENDBRANCH  26  28
ENDBRANCH  25  26
ENDBRANCH  24  25
ENDBRANCH  22  24
ENDBRANCH   1  22
BRANCH   1  30
ATOM     30  O   UNL     1      -6.541  18.581  66.521  0.00  0.00    -0.418 OA
BRANCH  30  31
ATOM     31  C   UNL     1      -5.203  18.255  66.272  0.00  0.00    +0.512 C 
ATOM     32  O   UNL     1      -4.860  17.180  65.699  0.00  0.00    -0.203 OA
BRANCH  31  33
ATOM     33  O   UNL     1      -4.163  19.177  66.408  0.00  0.00    -0.418 OA
BRANCH  33  35
ATOM     34  C   UNL     1      -4.392  21.561  66.567  0.00  0.00    +0.051 C 
ATOM     35  C   UNL     1      -4.164  20.421  65.739  0.00  0.00    +0.212 C 
ENDBRANCH  33  35
ENDBRANCH  31  33
ENDBRANCH  30  31
ENDBRANCH   1  30
TORSDOF 9
ENDMDL
MODEL 8
REMARK VINA RESULT:      -6.1      3.918      8.885
REMARK  Name = 
REMARK  9 active torsions:
REMARK  status: ('A' for Active; 'I' for Inactive)
REMARK    1  A    between atoms: C_2  and  O_3
REMARK    2  A    between atoms: O_3  and  C_4
REMARK    3  A    between atoms: C_4  and  O_6
REMARK    4  A    between atoms: O_6  and  C_7
REMARK    5  A    between atoms: C_7  and  C_8
REMARK    6  A    between atoms: C_8  and  C_10
REMARK    7  A    between atoms: C_10  and  O_11
REMARK    8  A    between atoms: O_11  and  C_12
REMARK    9  A    between atoms: C_12  and  C_14
REMARK                            x       y       z     vdW  Elec       q    Type
REMARK                         _______ _______ _______ _____ _____    ______ ____
ROOT
ATOM      1  C   UNL     1     -10.190  13.313  67.779  0.00  0.00    +0.193 C 
ATOM      2  C   UNL     1     -10.058  11.878  68.095  0.00  0.00    +0.043 C 
ATOM      3  C   UNL     1     -11.082  11.942  69.373  0.00  0.00    +0.004 C 
ATOM      4  C   UNL     1     -11.303  10.249  69.277  0.00  0.00    +0.003 C 
ATOM      5  C   UNL     1     -10.066  10.082  70.410  0.00  0.00    +0.038 C 
ATOM      6  C   UNL     1      -8.755   9.980  69.278  0.00  0.00    +0.153 C 
ATOM      7  O   UNL     1      -9.572   9.379  68.125  0.00  0.00    -0.223 OA
ATOM      8  C   UNL     1     -10.214   8.487  70.602  0.00  0.00    +0.036 C 
ATOM      9  C   UNL     1     -11.269   8.506  71.668  0.00  0.00    -0.038 C 
ATOM     10  C   UNL     1     -11.162   7.693  72.687  0.00  0.00    +0.034 C 
ATOM     11  C   UNL     1      -9.833   7.330  73.199  0.00  0.00    +0.195 C 
ATOM     12  C   UNL     1      -8.714   7.502  72.297  0.00  0.00    +0.038 C 
ATOM     13  O   UNL     1      -9.690   6.927  74.393  0.00  0.00    -0.287 OA
ATOM     14  C   UNL     1     -12.197   9.626  71.601  0.00  0.00    +0.022 C 
ATOM     15  C   UNL     1     -10.847   7.818  69.474  0.00  0.00    +0.009 C 
ATOM     16  C   UNL     1      -8.929   7.972  71.069  0.00  0.00    -0.020 C 
ATOM     17  C   UNL     1     -12.463  10.309  70.387  0.00  0.00    +0.004 C 
ATOM     18  C   UNL     1     -12.297  12.342  68.350  0.00  0.00    +0.004 C 
ATOM     19  C   UNL     1     -10.740  11.138  67.024  0.00  0.00    +0.004 C 
ATOM     20  C   UNL     1      -8.885  11.550  68.749  0.00  0.00    +0.037 C 
ATOM     21  C   UNL     1     -11.614  13.711  68.176  0.00  0.00    +0.048 C 
ENDROOT
BRANCH   1  22
ATOM     22  C   UNL     1     -10.221  13.676  66.325  0.00  0.00    +0.230 C 
ATOM     23  O   UNL     1      -9.086  13.857  65.870  0.00  0.00    -0.288 OA
BRANCH  22  24
ATOM     24  C   UNL     1     -11.152  14.724  65.786  0.00  0.00    +0.276 C 
BRANCH  24  25
ATOM     25  O   UNL     1     -11.834  14.304  64.633  0.00  0.00    -0.440 OA
BRANCH  25  26
ATOM     26  C   UNL     1     -12.140  12.972  64.358  0.00  0.00    +0.317 C 
ATOM     27  O   UNL     1     -13.221  12.552  64.870  0.00  0.00    -0.250 OA
BRANCH  26  28
ATOM     28  C   UNL     1     -11.635  12.229  63.192  0.00  0.00    +0.110 C 
ATOM     29  C   UNL     1     -10.532  11.266  63.496  0.00  0.00    +0.012 C 
ENDBRANCH  26  28
ENDBRANCH  25  26
ENDBRANCH  24  25
ENDBRANCH  22  24
ENDBRANCH   1  22
BRANCH   1  30
ATOM     30  O   UNL     1      -9.199  14.083  68.399  0.00  0.00    -0.418 OA
BRANCH  30  31
ATOM     31  C   UNL     1      -9.559  15.325  68.936  0.00  0.00    +0.512 C 
ATOM     32  O   UNL     1      -9.954  15.461  70.130  0.00  0.00    -0.203 OA
BRANCH  31  33
ATOM     33  O   UNL     1      -9.288  16.533  68.291  0.00  0.00    -0.418 OA
BRANCH  33  35
ATOM     34  C   UNL     1      -9.873  18.857  68.429  0.00  0.00    +0.051 C 
ATOM     35  C   UNL     1     -10.274  17.527  68.101  0.00  0.00    +0.212 C 
ENDBRANCH  33  35
ENDBRANCH  31  33
ENDBRANCH  30  31
ENDBRANCH   1  30
TORSDOF 9
ENDMDL
MODEL 9
REMARK VINA RESULT:      -5.8      2.319      3.160
REMARK  Name = 
REMARK  9 active torsions:
REMARK  status: ('A' for Active; 'I' for Inactive)
REMARK    1  A    between atoms: C_2  and  O_3
REMARK    2  A    between atoms: O_3  and  C_4
REMARK    3  A    between atoms: C_4  and  O_6
REMARK    4  A    between atoms: O_6  and  C_7
REMARK    5  A    between atoms: C_7  and  C_8
REMARK    6  A    between atoms: C_8  and  C_10
REMARK    7  A    between atoms: C_10  and  O_11
REMARK    8  A    between atoms: O_11  and  C_12
REMARK    9  A    between atoms: C_12  and  C_14
REMARK                            x       y       z     vdW  Elec       q    Type
REMARK                         _______ _______ _______ _____ _____    ______ ____
ROOT
ATOM      1  C   UNL     1      -9.840  12.465  67.347  0.00  0.00    +0.193 C 
ATOM      2  C   UNL     1      -9.167  13.704  67.779  0.00  0.00    +0.043 C 
ATOM      3  C   UNL     1      -9.979  14.656  66.719  0.00  0.00    +0.004 C 
ATOM      4  C   UNL     1      -9.592  16.030  67.661  0.00  0.00    +0.003 C 
ATOM      5  C   UNL     1      -8.246  16.257  66.673  0.00  0.00    +0.038 C 
ATOM      6  C   UNL     1      -7.137  15.300  67.603  0.00  0.00    +0.153 C 
ATOM      7  O   UNL     1      -7.823  15.516  68.959  0.00  0.00    -0.223 OA
ATOM      8  C   UNL     1      -7.791  17.666  67.311  0.00  0.00    +0.036 C 
ATOM      9  C   UNL     1      -8.642  18.561  66.459  0.00  0.00    -0.038 C 
ATOM     10  C   UNL     1      -8.126  19.662  65.976  0.00  0.00    +0.034 C 
ATOM     11  C   UNL     1      -6.703  19.707  65.614  0.00  0.00    +0.195 C 
ATOM     12  C   UNL     1      -5.840  18.717  66.224  0.00  0.00    +0.038 C 
ATOM     13  O   UNL     1      -6.277  20.555  64.772  0.00  0.00    -0.287 OA
ATOM     14  C   UNL     1      -9.909  17.986  66.030  0.00  0.00    +0.022 C 
ATOM     15  C   UNL     1      -8.279  17.880  68.666  0.00  0.00    +0.009 C 
ATOM     16  C   UNL     1      -6.359  17.826  67.067  0.00  0.00    -0.020 C 
ATOM     17  C   UNL     1     -10.550  16.953  66.759  0.00  0.00    +0.004 C 
ATOM     18  C   UNL     1     -11.374  14.290  67.495  0.00  0.00    +0.004 C 
ATOM     19  C   UNL     1      -9.669  14.020  69.123  0.00  0.00    +0.004 C 
ATOM     20  C   UNL     1      -7.883  13.849  67.289  0.00  0.00    +0.037 C 
ATOM     21  C   UNL     1     -11.251  12.870  66.914  0.00  0.00    +0.048 C 
ENDROOT
BRANCH   1  22
ATOM     22  C   UNL     1     -10.179  11.480  68.426  0.00  0.00    +0.230 C 
ATOM     23  O   UNL     1      -9.324  10.594  68.527  0.00  0.00    -0.288 OA
BRANCH  22  24
ATOM     24  C   UNL     1     -11.548  10.874  68.548  0.00  0.00    +0.276 C 
BRANCH  24  25
ATOM     25  O   UNL     1     -12.185  11.209  69.754  0.00  0.00    -0.440 OA
BRANCH  25  26
ATOM     26  C   UNL     1     -12.151  10.408  70.894  0.00  0.00    +0.317 C 
ATOM     27  O   UNL     1     -13.001  10.706  71.786  0.00  0.00    -0.250 OA
BRANCH  26  28
ATOM     28  C   UNL     1     -11.621   9.035  70.928  0.00  0.00    +0.110 C 
ATOM     29  C   UNL     1     -10.395   8.860  71.765  0.00  0.00    +0.012 C 
ENDBRANCH  26  28
ENDBRANCH  25  26
ENDBRANCH  24  25
ENDBRANCH  22  24
ENDBRANCH   1  22
BRANCH   1  30
ATOM     30  O   UNL     1      -9.120  11.791  66.354  0.00  0.00    -0.418 OA
BRANCH  30  31
ATOM     31  C   UNL     1      -9.809  11.336  65.224  0.00  0.00    +0.512 C 
ATOM     32  O   UNL     1     -10.385  10.209  65.187  0.00  0.00    -0.203 OA
BRANCH  31  33
ATOM     33  O   UNL     1     -10.125  12.166  64.147  0.00  0.00    -0.418 OA
BRANCH  33  35
ATOM     34  C   UNL     1     -12.253  13.007  63.420  0.00  0.00    +0.051 C 
ATOM     35  C   UNL     1     -11.277  11.968  63.352  0.00  0.00    +0.212 C 
ENDBRANCH  33  35
ENDBRANCH  31  33
ENDBRANCH  30  31
ENDBRANCH   1  30
TORSDOF 9
ENDMDL
