MODEL 1
REMARK VINA RESULT:      -7.7      0.000      0.000
REMARK  Name = 
REMARK  4 active torsions:
REMARK  status: ('A' for Active; 'I' for Inactive)
REMARK    1  A    between atoms: N_4  and  N_5
REMARK    2  A    between atoms: C_6  and  C_7
REMARK    3  A    between atoms: C_10  and  C_11
REMARK    4  A    between atoms: C_14  and  N_15
REMARK                            x       y       z     vdW  Elec       q    Type
REMARK                         _______ _______ _______ _____ _____    ______ ____
ROOT
ATOM      1  C   UNL     1     -11.248  11.257  67.011  0.00  0.00    +0.166 A 
ATOM      2  O   UNL     1     -12.024  12.026  67.729  0.00  0.00    -0.452 OA
ATOM      3  C   UNL     1     -11.987  11.710  68.988  0.00  0.00    +0.145 A 
ATOM      4  C   UNL     1     -11.538  10.397  69.038  0.00  0.00    +0.041 A 
ATOM      5  C   UNL     1     -11.038  10.120  67.772  0.00  0.00    +0.042 A 
ENDROOT
BRANCH   3   6
ATOM      6  C   UNL     1     -12.054  12.574  70.174  0.00  0.00    +0.035 A 
ATOM      7  C   UNL     1     -12.628  12.117  71.354  0.00  0.00    +0.009 A 
ATOM      8  C   UNL     1     -13.448  12.944  72.109  0.00  0.00    +0.075 A 
ATOM      9  C   UNL     1     -13.411  14.308  71.864  0.00  0.00    +0.290 A 
ATOM     10  C   UNL     1     -12.403  14.782  71.034  0.00  0.00    +0.075 A 
ATOM     11  C   UNL     1     -11.819  13.940  70.096  0.00  0.00    +0.009 A 
BRANCH   9  12
ATOM     12  N   UNL     1     -14.534  15.147  72.162  0.00  0.00    +0.081 N 
ATOM     13  O   UNL     1     -15.403  15.346  71.100  0.00  0.00    -0.576 OA
ATOM     14  O   UNL     1     -14.262  16.183  72.820  0.00  0.00    +0.041 OA
ENDBRANCH   9  12
ENDBRANCH   3   6
BRANCH   1  16
ATOM     15  N   UNL     1      -9.786  12.496  65.530  0.00  0.00    -0.169 NA
ATOM     16  C   UNL     1     -10.610  11.535  65.718  0.00  0.00    +0.155 C 
BRANCH  15  22
ATOM     17  O   UNL     1     -11.302  16.867  64.233  0.00  0.00    -0.271 OA
ATOM     18  C   UNL     1     -10.941  15.880  64.910  0.00  0.00    +0.272 C 
ATOM     19  N   UNL     1     -10.125  15.964  66.080  0.00  0.00    -0.125 NA
ATOM     20  C   UNL     1      -9.878  14.781  66.537  0.00  0.00    +0.349 C 
ATOM     21  O   UNL     1      -9.212  14.523  67.738  0.00  0.00    -0.249 OA
ATOM     22  N   UNL     1     -10.229  13.815  65.546  0.00  0.00    -0.154 N 
ATOM     23  C   UNL     1     -11.304  14.441  64.781  0.00  0.00    +0.208 C 
ENDBRANCH  15  22
ENDBRANCH   1  16
TORSDOF 4
ENDMDL
MODEL 2
REMARK VINA RESULT:      -7.5      1.041      1.895
REMARK  Name = 
REMARK  4 active torsions:
REMARK  status: ('A' for Active; 'I' for Inactive)
REMARK    1  A    between atoms: N_4  and  N_5
REMARK    2  A    between atoms: C_6  and  C_7
REMARK    3  A    between atoms: C_10  and  C_11
REMARK    4  A    between atoms: C_14  and  N_15
REMARK                            x       y       z     vdW  Elec       q    Type
REMARK                         _______ _______ _______ _____ _____    ______ ____
ROOT
ATOM      1  C   UNL     1     -11.631  12.475  66.266  0.00  0.00    +0.166 A 
ATOM      2  O   UNL     1     -12.365  12.794  67.300  0.00  0.00    -0.452 OA
ATOM      3  C   UNL     1     -11.878  12.315  68.404  0.00  0.00    +0.145 A 
ATOM      4  C   UNL     1     -11.060  11.257  68.033  0.00  0.00    +0.041 A 
ATOM      5  C   UNL     1     -10.881  11.380  66.661  0.00  0.00    +0.042 A 
ENDROOT
BRANCH   3   6
ATOM      6  C   UNL     1     -11.863  12.899  69.752  0.00  0.00    +0.035 A 
ATOM      7  C   UNL     1     -12.437  12.227  70.824  0.00  0.00    +0.009 A 
ATOM      8  C   UNL     1     -13.186  12.912  71.771  0.00  0.00    +0.075 A 
ATOM      9  C   UNL     1     -13.069  14.292  71.829  0.00  0.00    +0.290 A 
ATOM     10  C   UNL     1     -12.052  14.879  71.087  0.00  0.00    +0.075 A 
ATOM     11  C   UNL     1     -11.545  14.233  69.966  0.00  0.00    +0.009 A 
BRANCH   9  12
ATOM     12  N   UNL     1     -14.129  15.107  72.344  0.00  0.00    +0.081 N 
ATOM     13  O   UNL     1     -15.088  15.464  71.408  0.00  0.00    -0.576 OA
ATOM     14  O   UNL     1     -13.761  16.040  73.101  0.00  0.00    +0.041 OA
ENDBRANCH   9  12
ENDBRANCH   3   6
BRANCH   1  16
ATOM     15  N   UNL     1     -10.459  13.819  64.628  0.00  0.00    -0.169 NA
ATOM     16  C   UNL     1     -11.501  13.162  64.975  0.00  0.00    +0.155 C 
BRANCH  15  22
ATOM     17  O   UNL     1      -9.147  17.145  67.838  0.00  0.00    -0.271 OA
ATOM     18  C   UNL     1      -9.528  16.582  66.789  0.00  0.00    +0.272 C 
ATOM     19  N   UNL     1     -10.536  17.101  65.919  0.00  0.00    -0.125 NA
ATOM     20  C   UNL     1     -10.748  16.281  64.944  0.00  0.00    +0.349 C 
ATOM     21  O   UNL     1     -11.584  16.548  63.857  0.00  0.00    -0.249 OA
ATOM     22  N   UNL     1     -10.147  15.024  65.252  0.00  0.00    -0.154 N 
ATOM     23  C   UNL     1      -9.018  15.353  66.118  0.00  0.00    +0.208 C 
ENDBRANCH  15  22
ENDBRANCH   1  16
TORSDOF 4
ENDMDL
MODEL 3
REMARK VINA RESULT:      -7.5      2.232      2.947
REMARK  Name = 
REMARK  4 active torsions:
REMARK  status: ('A' for Active; 'I' for Inactive)
REMARK    1  A    between atoms: N_4  and  N_5
REMARK    2  A    between atoms: C_6  and  C_7
REMARK    3  A    between atoms: C_10  and  C_11
REMARK    4  A    between atoms: C_14  and  N_15
REMARK                            x       y       z     vdW  Elec       q    Type
REMARK                         _______ _______ _______ _____ _____    ______ ____
ROOT
ATOM      1  C   UNL     1     -11.221  14.657  66.328  0.00  0.00    +0.166 A 
ATOM      2  O   UNL     1     -11.838  14.975  67.437  0.00  0.00    -0.452 OA
ATOM      3  C   UNL     1     -11.814  14.004  68.298  0.00  0.00    +0.145 A 
ATOM      4  C   UNL     1     -11.586  12.848  67.564  0.00  0.00    +0.041 A 
ATOM      5  C   UNL     1     -11.177  13.273  66.306  0.00  0.00    +0.042 A 
ENDROOT
BRANCH   3   6
ATOM      6  C   UNL     1     -11.701  14.053  69.762  0.00  0.00    +0.035 A 
ATOM      7  C   UNL     1     -12.384  13.142  70.559  0.00  0.00    +0.009 A 
ATOM      8  C   UNL     1     -13.005  13.552  71.730  0.00  0.00    +0.075 A 
ATOM      9  C   UNL     1     -12.652  14.780  72.266  0.00  0.00    +0.290 A 
ATOM     10  C   UNL     1     -11.548  15.423  71.721  0.00  0.00    +0.075 A 
ATOM     11  C   UNL     1     -11.158  15.151  70.416  0.00  0.00    +0.009 A 
BRANCH   9  12
ATOM     12  N   UNL     1     -13.558  15.515  73.100  0.00  0.00    +0.081 N 
ATOM     13  O   UNL     1     -14.621  16.094  72.425  0.00  0.00    -0.576 OA
ATOM     14  O   UNL     1     -13.009  16.257  73.953  0.00  0.00    +0.041 OA
ENDBRANCH   9  12
ENDBRANCH   3   6
BRANCH   1  16
ATOM     15  N   UNL     1      -9.547  16.240  65.582  0.00  0.00    -0.169 NA
ATOM     16  C   UNL     1     -10.587  15.535  65.337  0.00  0.00    +0.155 C 
BRANCH  15  22
ATOM     17  O   UNL     1      -9.801  20.700  67.352  0.00  0.00    -0.271 OA
ATOM     18  C   UNL     1      -9.741  19.455  67.255  0.00  0.00    +0.272 C 
ATOM     19  N   UNL     1      -8.981  18.616  68.127  0.00  0.00    -0.125 NA
ATOM     20  C   UNL     1      -9.074  17.384  67.753  0.00  0.00    +0.349 C 
ATOM     21  O   UNL     1      -8.550  16.301  68.465  0.00  0.00    -0.249 OA
ATOM     22  N   UNL     1      -9.627  17.335  66.438  0.00  0.00    -0.154 N 
ATOM     23  C   UNL     1     -10.466  18.526  66.343  0.00  0.00    +0.208 C 
ENDBRANCH  15  22
ENDBRANCH   1  16
TORSDOF 4
ENDMDL
MODEL 4
REMARK VINA RESULT:      -7.2      4.990      7.734
REMARK  Name = 
REMARK  4 active torsions:
REMARK  status: ('A' for Active; 'I' for Inactive)
REMARK    1  A    between atoms: N_4  and  N_5
REMARK    2  A    between atoms: C_6  and  C_7
REMARK    3  A    between atoms: C_10  and  C_11
REMARK    4  A    between atoms: C_14  and  N_15
REMARK                            x       y       z     vdW  Elec       q    Type
REMARK                         _______ _______ _______ _____ _____    ______ ____
ROOT
ATOM      1  C   UNL     1      -8.444  19.285  67.916  0.00  0.00    +0.166 A 
ATOM      2  O   UNL     1      -8.626  18.050  68.306  0.00  0.00    -0.452 OA
ATOM      3  C   UNL     1      -9.758  17.572  67.885  0.00  0.00    +0.145 A 
ATOM      4  C   UNL     1     -10.557  18.673  67.609  0.00  0.00    +0.041 A 
ATOM      5  C   UNL     1      -9.703  19.769  67.602  0.00  0.00    +0.042 A 
ENDROOT
BRANCH   3   6
ATOM      6  C   UNL     1     -10.094  16.212  67.444  0.00  0.00    +0.035 A 
ATOM      7  C   UNL     1      -9.585  15.705  66.255  0.00  0.00    +0.009 A 
ATOM      8  C   UNL     1     -10.386  14.955  65.405  0.00  0.00    +0.075 A 
ATOM      9  C   UNL     1     -11.569  14.434  65.905  0.00  0.00    +0.290 A 
ATOM     10  C   UNL     1     -11.772  14.511  67.277  0.00  0.00    +0.075 A 
ATOM     11  C   UNL     1     -11.131  15.493  68.023  0.00  0.00    +0.009 A 
BRANCH   9  12
ATOM     12  N   UNL     1     -12.674  14.139  65.042  0.00  0.00    +0.081 N 
ATOM     13  O   UNL     1     -13.034  12.801  65.002  0.00  0.00    -0.576 OA
ATOM     14  O   UNL     1     -12.637  14.707  63.921  0.00  0.00    +0.041 OA
ENDBRANCH   9  12
ENDBRANCH   3   6
BRANCH   1  16
ATOM     15  N   UNL     1      -6.040  19.548  68.037  0.00  0.00    -0.169 NA
ATOM     16  C   UNL     1      -7.188  20.019  67.722  0.00  0.00    +0.155 C 
BRANCH  15  22
ATOM     17  O   UNL     1      -4.124  20.133  72.404  0.00  0.00    -0.271 OA
ATOM     18  C   UNL     1      -4.767  19.680  71.433  0.00  0.00    +0.272 C 
ATOM     19  N   UNL     1      -4.876  18.290  71.120  0.00  0.00    -0.125 NA
ATOM     20  C   UNL     1      -5.562  18.129  70.037  0.00  0.00    +0.349 C 
ATOM     21  O   UNL     1      -5.954  16.888  69.528  0.00  0.00    -0.249 OA
ATOM     22  N   UNL     1      -5.689  19.387  69.374  0.00  0.00    -0.154 N 
ATOM     23  C   UNL     1      -5.635  20.378  70.444  0.00  0.00    +0.208 C 
ENDBRANCH  15  22
ENDBRANCH   1  16
TORSDOF 4
ENDMDL
MODEL 5
REMARK VINA RESULT:      -7.2      2.209      6.699
REMARK  Name = 
REMARK  4 active torsions:
REMARK  status: ('A' for Active; 'I' for Inactive)
REMARK    1  A    between atoms: N_4  and  N_5
REMARK    2  A    between atoms: C_6  and  C_7
REMARK    3  A    between atoms: C_10  and  C_11
REMARK    4  A    between atoms: C_14  and  N_15
REMARK                            x       y       z     vdW  Elec       q    Type
REMARK                         _______ _______ _______ _____ _____    ______ ____
ROOT
ATOM      1  C   UNL     1     -12.421  11.733  71.103  0.00  0.00    +0.166 A 
ATOM      2  O   UNL     1     -11.756  12.671  70.481  0.00  0.00    -0.452 OA
ATOM      3  C   UNL     1     -11.307  12.265  69.333  0.00  0.00    +0.145 A 
ATOM      4  C   UNL     1     -11.272  10.879  69.406  0.00  0.00    +0.041 A 
ATOM      5  C   UNL     1     -12.014  10.540  70.530  0.00  0.00    +0.042 A 
ENDROOT
BRANCH   3   6
ATOM      6  C   UNL     1     -11.167  13.000  68.068  0.00  0.00    +0.035 A 
ATOM      7  C   UNL     1     -12.126  13.926  67.675  0.00  0.00    +0.009 A 
ATOM      8  C   UNL     1     -12.542  13.995  66.352  0.00  0.00    +0.075 A 
ATOM      9  C   UNL     1     -11.760  13.385  65.384  0.00  0.00    +0.290 A 
ATOM     10  C   UNL     1     -10.504  12.933  65.768  0.00  0.00    +0.075 A 
ATOM     11  C   UNL     1     -10.254  12.613  67.097  0.00  0.00    +0.009 A 
BRANCH   9  12
ATOM     12  N   UNL     1     -12.326  12.935  64.147  0.00  0.00    +0.081 N 
ATOM     13  O   UNL     1     -12.566  13.941  63.224  0.00  0.00    -0.576 OA
ATOM     14  O   UNL     1     -13.255  12.096  64.264  0.00  0.00    +0.041 OA
ENDBRANCH   9  12
ENDBRANCH   3   6
BRANCH   1  16
ATOM     15  N   UNL     1     -14.262  12.869  72.193  0.00  0.00    -0.169 NA
ATOM     16  C   UNL     1     -13.473  11.863  72.119  0.00  0.00    +0.155 C 
BRANCH  15  22
ATOM     17  O   UNL     1     -12.277  16.451  74.707  0.00  0.00    -0.271 OA
ATOM     18  C   UNL     1     -12.841  15.794  73.806  0.00  0.00    +0.272 C 
ATOM     19  N   UNL     1     -13.922  16.284  73.010  0.00  0.00    -0.125 NA
ATOM     20  C   UNL     1     -14.327  15.367  72.196  0.00  0.00    +0.349 C 
ATOM     21  O   UNL     1     -15.287  15.565  71.199  0.00  0.00    -0.249 OA
ATOM     22  N   UNL     1     -13.780  14.111  72.596  0.00  0.00    -0.154 N 
ATOM     23  C   UNL     1     -12.520  14.448  73.253  0.00  0.00    +0.208 C 
ENDBRANCH  15  22
ENDBRANCH   1  16
TORSDOF 4
ENDMDL
MODEL 6
REMARK VINA RESULT:      -7.1      1.799      2.428
REMARK  Name = 
REMARK  4 active torsions:
REMARK  status: ('A' for Active; 'I' for Inactive)
REMARK    1  A    between atoms: N_4  and  N_5
REMARK    2  A    between atoms: C_6  and  C_7
REMARK    3  A    between atoms: C_10  and  C_11
REMARK    4  A    between atoms: C_14  and  N_15
REMARK                            x       y       z     vdW  Elec       q    Type
REMARK                         _______ _______ _______ _____ _____    ______ ____
ROOT
ATOM      1  C   UNL     1     -11.293  12.556  68.408  0.00  0.00    +0.166 A 
ATOM      2  O   UNL     1     -12.205  13.458  68.660  0.00  0.00    -0.452 OA
ATOM      3  C   UNL     1     -12.515  13.495  69.920  0.00  0.00    +0.145 A 
ATOM      4  C   UNL     1     -12.141  12.263  70.440  0.00  0.00    +0.041 A 
ATOM      5  C   UNL     1     -11.332  11.675  69.476  0.00  0.00    +0.042 A 
ENDROOT
BRANCH   3   6
ATOM      6  C   UNL     1     -12.865  14.643  70.766  0.00  0.00    +0.035 A 
ATOM      7  C   UNL     1     -12.029  15.751  70.842  0.00  0.00    +0.009 A 
ATOM      8  C   UNL     1     -11.792  16.376  72.058  0.00  0.00    +0.075 A 
ATOM      9  C   UNL     1     -12.649  16.108  73.114  0.00  0.00    +0.290 A 
ATOM     10  C   UNL     1     -13.812  15.404  72.831  0.00  0.00    +0.075 A 
ATOM     11  C   UNL     1     -13.867  14.566  71.724  0.00  0.00    +0.009 A 
BRANCH   9  12
ATOM     12  N   UNL     1     -12.218  16.243  74.474  0.00  0.00    +0.081 N 
ATOM     13  O   UNL     1     -12.780  15.328  75.350  0.00  0.00    -0.576 OA
ATOM     14  O   UNL     1     -12.176  17.424  74.902  0.00  0.00    +0.041 OA
ENDBRANCH   9  12
ENDBRANCH   3   6
BRANCH   1  16
ATOM     15  N   UNL     1      -9.585  13.488  66.966  0.00  0.00    -0.169 NA
ATOM     16  C   UNL     1     -10.325  12.500  67.306  0.00  0.00    +0.155 C 
BRANCH  15  22
ATOM     17  O   UNL     1     -11.561  16.518  63.804  0.00  0.00    -0.271 OA
ATOM     18  C   UNL     1     -11.075  16.029  64.846  0.00  0.00    +0.272 C 
ATOM     19  N   UNL     1     -10.207  16.735  65.735  0.00  0.00    -0.125 NA
ATOM     20  C   UNL     1      -9.829  15.960  66.697  0.00  0.00    +0.349 C 
ATOM     21  O   UNL     1      -9.076  16.379  67.798  0.00  0.00    -0.249 OA
ATOM     22  N   UNL     1     -10.145  14.609  66.361  0.00  0.00    -0.154 N 
ATOM     23  C   UNL     1     -11.313  14.707  65.490  0.00  0.00    +0.208 C 
ENDBRANCH  15  22
ENDBRANCH   1  16
TORSDOF 4
ENDMDL
MODEL 7
REMARK VINA RESULT:      -7.1      2.567      4.023
REMARK  Name = 
REMARK  4 active torsions:
REMARK  status: ('A' for Active; 'I' for Inactive)
REMARK    1  A    between atoms: N_4  and  N_5
REMARK    2  A    between atoms: C_6  and  C_7
REMARK    3  A    between atoms: C_10  and  C_11
REMARK    4  A    between atoms: C_14  and  N_15
REMARK                            x       y       z     vdW  Elec       q    Type
REMARK                         _______ _______ _______ _____ _____    ______ ____
ROOT
ATOM      1  C   UNL     1     -11.915  14.461  65.020  0.00  0.00    +0.166 A 
ATOM      2  O   UNL     1     -12.335  14.123  66.211  0.00  0.00    -0.452 OA
ATOM      3  C   UNL     1     -11.952  12.926  66.537  0.00  0.00    +0.145 A 
ATOM      4  C   UNL     1     -11.672  12.277  65.342  0.00  0.00    +0.041 A 
ATOM      5  C   UNL     1     -11.620  13.272  64.374  0.00  0.00    +0.042 A 
ENDROOT
BRANCH   3   6
ATOM      6  C   UNL     1     -11.548  12.395  67.846  0.00  0.00    +0.035 A 
ATOM      7  C   UNL     1     -11.355  11.031  68.030  0.00  0.00    +0.009 A 
ATOM      8  C   UNL     1     -11.800  10.404  69.185  0.00  0.00    +0.075 A 
ATOM      9  C   UNL     1     -12.121  11.191  70.280  0.00  0.00    +0.290 A 
ATOM     10  C   UNL     1     -11.770  12.534  70.227  0.00  0.00    +0.075 A 
ATOM     11  C   UNL     1     -11.616  13.166  68.999  0.00  0.00    +0.009 A 
BRANCH   9  12
ATOM     12  N   UNL     1     -13.056  10.743  71.269  0.00  0.00    +0.081 N 
ATOM     13  O   UNL     1     -13.455  11.719  72.168  0.00  0.00    -0.576 OA
ATOM     14  O   UNL     1     -12.787   9.630  71.787  0.00  0.00    +0.041 OA
ENDBRANCH   9  12
ENDBRANCH   3   6
BRANCH   1  16
ATOM     15  N   UNL     1     -10.648  16.508  64.756  0.00  0.00    -0.169 NA
ATOM     16  C   UNL     1     -11.675  15.801  64.468  0.00  0.00    +0.155 C 
BRANCH  15  22
ATOM     17  O   UNL     1     -10.727  17.207  69.509  0.00  0.00    -0.271 OA
ATOM     18  C   UNL     1     -10.556  17.366  68.281  0.00  0.00    +0.272 C 
ATOM     19  N   UNL     1     -10.768  18.601  67.594  0.00  0.00    -0.125 NA
ATOM     20  C   UNL     1     -10.557  18.448  66.329  0.00  0.00    +0.349 C 
ATOM     21  O   UNL     1     -10.560  19.490  65.397  0.00  0.00    -0.249 OA
ATOM     22  N   UNL     1     -10.504  17.053  66.029  0.00  0.00    -0.154 N 
ATOM     23  C   UNL     1     -10.020  16.428  67.256  0.00  0.00    +0.208 C 
ENDBRANCH  15  22
ENDBRANCH   1  16
TORSDOF 4
ENDMDL
MODEL 8
REMARK VINA RESULT:      -7.0      5.334      7.472
REMARK  Name = 
REMARK  4 active torsions:
REMARK  status: ('A' for Active; 'I' for Inactive)
REMARK    1  A    between atoms: N_4  and  N_5
REMARK    2  A    between atoms: C_6  and  C_7
REMARK    3  A    between atoms: C_10  and  C_11
REMARK    4  A    between atoms: C_14  and  N_15
REMARK                            x       y       z     vdW  Elec       q    Type
REMARK                         _______ _______ _______ _____ _____    ______ ____
ROOT
ATOM      1  C   UNL     1      -9.365  16.672  68.302  0.00  0.00    +0.166 A 
ATOM      2  O   UNL     1      -8.212  17.093  67.850  0.00  0.00    -0.452 OA
ATOM      3  C   UNL     1      -7.919  18.275  68.300  0.00  0.00    +0.145 A 
ATOM      4  C   UNL     1      -9.125  18.848  68.681  0.00  0.00    +0.041 A 
ATOM      5  C   UNL     1     -10.046  17.807  68.709  0.00  0.00    +0.042 A 
ENDROOT
BRANCH   3   6
ATOM      6  C   UNL     1      -6.616  18.838  68.677  0.00  0.00    +0.035 A 
ATOM      7  C   UNL     1      -5.697  18.081  69.395  0.00  0.00    +0.009 A 
ATOM      8  C   UNL     1      -4.964  18.651  70.427  0.00  0.00    +0.075 A 
ATOM      9  C   UNL     1      -4.904  20.034  70.506  0.00  0.00    +0.290 A 
ATOM     10  C   UNL     1      -5.397  20.758  69.428  0.00  0.00    +0.075 A 
ATOM     11  C   UNL     1      -6.356  20.199  68.592  0.00  0.00    +0.009 A 
BRANCH   9  12
ATOM     12  N   UNL     1      -4.667  20.696  71.754  0.00  0.00    +0.081 N 
ATOM     13  O   UNL     1      -4.552  22.075  71.662  0.00  0.00    -0.576 OA
ATOM     14  O   UNL     1      -3.810  20.146  72.491  0.00  0.00    +0.041 OA
ENDBRANCH   9  12
ENDBRANCH   3   6
BRANCH   1  16
ATOM     15  N   UNL     1      -9.781  14.406  67.556  0.00  0.00    -0.169 NA
ATOM     16  C   UNL     1      -9.846  15.296  68.474  0.00  0.00    +0.155 C 
BRANCH  15  22
ATOM     17  O   UNL     1     -12.228  16.053  63.762  0.00  0.00    -0.271 OA
ATOM     18  C   UNL     1     -11.744  15.304  64.638  0.00  0.00    +0.272 C 
ATOM     19  N   UNL     1     -12.457  14.235  65.263  0.00  0.00    -0.125 NA
ATOM     20  C   UNL     1     -11.717  13.669  66.158  0.00  0.00    +0.349 C 
ATOM     21  O   UNL     1     -12.073  12.516  66.863  0.00  0.00    -0.249 OA
ATOM     22  N   UNL     1     -10.589  14.502  66.426  0.00  0.00    -0.154 N 
ATOM     23  C   UNL     1     -10.359  15.228  65.180  0.00  0.00    +0.208 C 
ENDBRANCH  15  22
ENDBRANCH   1  16
TORSDOF 4
ENDMDL
MODEL 9
REMARK VINA RESULT:      -6.9      3.064      5.875
REMARK  Name = 
REMARK  4 active torsions:
REMARK  status: ('A' for Active; 'I' for Inactive)
REMARK    1  A    between atoms: N_4  and  N_5
REMARK    2  A    between atoms: C_6  and  C_7
REMARK    3  A    between atoms: C_10  and  C_11
REMARK    4  A    between atoms: C_14  and  N_15
REMARK                            x       y       z     vdW  Elec       q    Type
REMARK                         _______ _______ _______ _____ _____    ______ ____
ROOT
ATOM      1  C   UNL     1     -11.748  14.430  68.817  0.00  0.00    +0.166 A 
ATOM      2  O   UNL     1     -11.469  15.648  68.430  0.00  0.00    -0.452 OA
ATOM      3  C   UNL     1     -10.735  16.275  69.298  0.00  0.00    +0.145 A 
ATOM      4  C   UNL     1     -10.927  15.617  70.506  0.00  0.00    +0.041 A 
ATOM      5  C   UNL     1     -11.554  14.419  70.188  0.00  0.00    +0.042 A 
ENDROOT
BRANCH   3   6
ATOM      6  C   UNL     1      -9.655  17.247  69.084  0.00  0.00    +0.035 A 
ATOM      7  C   UNL     1      -9.938  18.545  68.674  0.00  0.00    +0.009 A 
ATOM      8  C   UNL     1      -9.151  19.173  67.718  0.00  0.00    +0.075 A 
ATOM      9  C   UNL     1      -7.904  18.637  67.437  0.00  0.00    +0.290 A 
ATOM     10  C   UNL     1      -7.432  17.639  68.280  0.00  0.00    +0.075 A 
ATOM     11  C   UNL     1      -8.325  16.856  69.001  0.00  0.00    +0.009 A 
BRANCH   9  12
ATOM     12  N   UNL     1      -7.276  18.845  66.166  0.00  0.00    +0.081 N 
ATOM     13  O   UNL     1      -7.641  20.021  65.529  0.00  0.00    -0.576 OA
ATOM     14  O   UNL     1      -7.239  17.834  65.421  0.00  0.00    +0.041 OA
ENDBRANCH   9  12
ENDBRANCH   3   6
BRANCH   1  16
ATOM     15  N   UNL     1     -11.459  12.929  66.940  0.00  0.00    -0.169 NA
ATOM     16  C   UNL     1     -12.089  13.256  68.005  0.00  0.00    +0.155 C 
BRANCH  15  22
ATOM     17  O   UNL     1     -11.523  16.599  63.839  0.00  0.00    -0.271 OA
ATOM     18  C   UNL     1     -11.605  15.457  64.340  0.00  0.00    +0.272 C 
ATOM     19  N   UNL     1     -12.611  14.501  63.999  0.00  0.00    -0.125 NA
ATOM     20  C   UNL     1     -12.469  13.432  64.710  0.00  0.00    +0.349 C 
ATOM     21  O   UNL     1     -13.216  12.264  64.535  0.00  0.00    -0.249 OA
ATOM     22  N   UNL     1     -11.575  13.704  65.789  0.00  0.00    -0.154 N 
ATOM     23  C   UNL     1     -10.694  14.754  65.286  0.00  0.00    +0.208 C 
ENDBRANCH  15  22
ENDBRANCH   1  16
TORSDOF 4
ENDMDL
