MODEL 1
REMARK VINA RESULT:      -7.4      0.000      0.000
REMARK  Name = 
REMARK  6 active torsions:
REMARK  status: ('A' for Active; 'I' for Inactive)
REMARK    1  A    between atoms: C_2  and  N_3
REMARK    2  A    between atoms: C_5  and  C_6
REMARK    3  A    between atoms: C_6  and  C_7
REMARK    4  A    between atoms: C_7  and  N_8
REMARK    5  A    between atoms: C_14  and  C_15
REMARK    6  A    between atoms: C_14  and  C_21
REMARK                            x       y       z     vdW  Elec       q    Type
REMARK                         _______ _______ _______ _____ _____    ______ ____
ROOT
ATOM      1  N   UNL     1      -9.452  15.330  67.724  0.00  0.00    -0.279 N 
ATOM      2  C   UNL     1      -9.313  13.931  67.813  0.00  0.00    +0.232 C 
ATOM      3  O   UNL     1      -8.238  13.327  67.575  0.00  0.00    -0.274 OA
ATOM      4  C   UNL     1     -10.610  13.273  67.669  0.00  0.00    +0.108 C 
ATOM      5  C   UNL     1     -11.654  14.465  68.025  0.00  0.00    +0.037 C 
ATOM      6  C   UNL     1     -10.774  15.579  67.231  0.00  0.00    +0.095 C 
ENDROOT
BRANCH   4   7
ATOM      7  C   UNL     1     -10.754  12.248  68.718  0.00  0.00    -0.011 A 
ATOM      8  C   UNL     1     -11.958  12.223  69.412  0.00  0.00    -0.004 A 
ATOM      9  C   UNL     1     -12.157  11.375  70.478  0.00  0.00    -0.000 A 
ATOM     10  C   UNL     1     -11.343  10.252  70.531  0.00  0.00    -0.000 A 
ATOM     11  C   UNL     1     -10.304  10.104  69.621  0.00  0.00    -0.000 A 
ATOM     12  C   UNL     1      -9.887  11.171  68.836  0.00  0.00    -0.004 A 
ENDBRANCH   4   7
BRANCH   4  13
ATOM     13  C   UNL     1     -10.920  12.797  66.318  0.00  0.00    -0.011 A 
ATOM     14  C   UNL     1     -12.256  12.821  65.935  0.00  0.00    -0.004 A 
ATOM     15  C   UNL     1     -12.668  12.830  64.630  0.00  0.00    -0.000 A 
ATOM     16  C   UNL     1     -11.764  12.363  63.686  0.00  0.00    -0.000 A 
ATOM     17  C   UNL     1     -10.420  12.302  64.033  0.00  0.00    -0.000 A 
ATOM     18  C   UNL     1     -10.000  12.550  65.334  0.00  0.00    -0.004 A 
ENDBRANCH   4  13
BRANCH   1  20
ATOM     19  C   UNL     1      -8.080  16.710  66.473  0.00  0.00    +0.023 C 
ATOM     20  C   UNL     1      -8.366  16.275  67.738  0.00  0.00    +0.093 C 
ENDBRANCH   1  20
BRANCH   5  21
ATOM     21  C   UNL     1     -10.945  14.777  69.459  0.00  0.00    +0.020 C 
BRANCH  21  22
ATOM     22  C   UNL     1     -11.667  15.917  70.082  0.00  0.00    +0.072 C 
BRANCH  22  23
ATOM     23  N   UNL     1     -12.480  15.668  71.182  0.00  0.00    -0.268 NA
ATOM     24  C   UNL     1     -13.767  15.138  71.025  0.00  0.00    +0.105 C 
ATOM     25  C   UNL     1     -14.124  14.134  72.115  0.00  0.00    +0.159 C 
ATOM     26  O   UNL     1     -13.187  14.114  73.134  0.00  0.00    -0.351 OA
ATOM     27  C   UNL     1     -12.817  15.374  73.571  0.00  0.00    +0.159 C 
ATOM     28  C   UNL     1     -12.046  16.046  72.470  0.00  0.00    +0.105 C 
ENDBRANCH  22  23
ENDBRANCH  21  22
ENDBRANCH   5  21
TORSDOF 6
ENDMDL
MODEL 2
REMARK VINA RESULT:      -6.8      2.028      5.378
REMARK  Name = 
REMARK  6 active torsions:
REMARK  status: ('A' for Active; 'I' for Inactive)
REMARK    1  A    between atoms: C_2  and  N_3
REMARK    2  A    between atoms: C_5  and  C_6
REMARK    3  A    between atoms: C_6  and  C_7
REMARK    4  A    between atoms: C_7  and  N_8
REMARK    5  A    between atoms: C_14  and  C_15
REMARK    6  A    between atoms: C_14  and  C_21
REMARK                            x       y       z     vdW  Elec       q    Type
REMARK                         _______ _______ _______ _____ _____    ______ ____
ROOT
ATOM      1  N   UNL     1     -10.197  13.886  67.281  0.00  0.00    -0.279 N 
ATOM      2  C   UNL     1      -9.794  15.103  66.698  0.00  0.00    +0.232 C 
ATOM      3  O   UNL     1      -9.584  15.244  65.468  0.00  0.00    -0.274 OA
ATOM      4  C   UNL     1      -9.148  15.961  67.689  0.00  0.00    +0.108 C 
ATOM      5  C   UNL     1      -9.687  15.349  69.093  0.00  0.00    +0.037 C 
ATOM      6  C   UNL     1      -9.563  13.816  68.563  0.00  0.00    +0.095 C 
ENDROOT
BRANCH   4   7
ATOM      7  C   UNL     1      -9.693  17.327  67.578  0.00  0.00    -0.011 A 
ATOM      8  C   UNL     1      -9.308  18.239  68.554  0.00  0.00    -0.004 A 
ATOM      9  C   UNL     1      -9.840  19.508  68.602  0.00  0.00    -0.000 A 
ATOM     10  C   UNL     1     -10.374  19.996  67.417  0.00  0.00    -0.000 A 
ATOM     11  C   UNL     1     -10.477  19.167  66.308  0.00  0.00    -0.000 A 
ATOM     12  C   UNL     1     -10.314  17.793  66.428  0.00  0.00    -0.004 A 
ENDBRANCH   4   7
BRANCH   4  13
ATOM     13  C   UNL     1      -7.684  15.899  67.708  0.00  0.00    -0.011 A 
ATOM     14  C   UNL     1      -7.016  16.514  66.656  0.00  0.00    -0.004 A 
ATOM     15  C   UNL     1      -5.711  16.921  66.725  0.00  0.00    -0.000 A 
ATOM     16  C   UNL     1      -4.918  16.315  67.690  0.00  0.00    -0.000 A 
ATOM     17  C   UNL     1      -5.544  15.669  68.749  0.00  0.00    -0.000 A 
ATOM     18  C   UNL     1      -6.922  15.492  68.770  0.00  0.00    -0.004 A 
ENDBRANCH   4  13
BRANCH   1  20
ATOM     19  C   UNL     1     -12.082  13.049  66.234  0.00  0.00    +0.023 C 
ATOM     20  C   UNL     1     -10.785  12.779  66.571  0.00  0.00    +0.093 C 
ENDBRANCH   1  20
BRANCH   5  21
ATOM     21  C   UNL     1     -11.251  15.483  68.653  0.00  0.00    +0.020 C 
BRANCH  21  22
ATOM     22  C   UNL     1     -12.020  15.927  69.844  0.00  0.00    +0.072 C 
BRANCH  22  23
ATOM     23  N   UNL     1     -12.191  15.034  70.897  0.00  0.00    -0.268 NA
ATOM     24  C   UNL     1     -11.785  15.363  72.196  0.00  0.00    +0.105 C 
ATOM     25  C   UNL     1     -12.750  14.850  73.258  0.00  0.00    +0.159 C 
ATOM     26  O   UNL     1     -13.706  14.001  72.729  0.00  0.00    -0.351 OA
ATOM     27  C   UNL     1     -13.186  13.044  71.874  0.00  0.00    +0.159 C 
ATOM     28  C   UNL     1     -12.687  13.739  70.639  0.00  0.00    +0.105 C 
ENDBRANCH  22  23
ENDBRANCH  21  22
ENDBRANCH   5  21
TORSDOF 6
ENDMDL
MODEL 3
REMARK VINA RESULT:      -6.7      2.436      5.341
REMARK  Name = 
REMARK  6 active torsions:
REMARK  status: ('A' for Active; 'I' for Inactive)
REMARK    1  A    between atoms: C_2  and  N_3
REMARK    2  A    between atoms: C_5  and  C_6
REMARK    3  A    between atoms: C_6  and  C_7
REMARK    4  A    between atoms: C_7  and  N_8
REMARK    5  A    between atoms: C_14  and  C_15
REMARK    6  A    between atoms: C_14  and  C_21
REMARK                            x       y       z     vdW  Elec       q    Type
REMARK                         _______ _______ _______ _____ _____    ______ ____
ROOT
ATOM      1  N   UNL     1     -11.711  12.951  65.771  0.00  0.00    -0.279 N 
ATOM      2  C   UNL     1     -10.809  12.487  66.748  0.00  0.00    +0.232 C 
ATOM      3  O   UNL     1     -10.487  11.280  66.874  0.00  0.00    -0.274 OA
ATOM      4  C   UNL     1     -10.739  13.420  67.871  0.00  0.00    +0.108 C 
ATOM      5  C   UNL     1     -11.302  14.798  67.222  0.00  0.00    +0.037 C 
ATOM      6  C   UNL     1     -12.450  14.021  66.371  0.00  0.00    +0.095 C 
ENDROOT
BRANCH   4   7
ATOM      7  C   UNL     1      -9.327  13.655  68.221  0.00  0.00    -0.011 A 
ATOM      8  C   UNL     1      -9.052  14.758  69.020  0.00  0.00    -0.004 A 
ATOM      9  C   UNL     1      -7.759  15.127  69.319  0.00  0.00    -0.000 A 
ATOM     10  C   UNL     1      -6.797  14.131  69.215  0.00  0.00    -0.000 A 
ATOM     11  C   UNL     1      -7.136  12.888  68.698  0.00  0.00    -0.000 A 
ATOM     12  C   UNL     1      -8.340  12.698  68.032  0.00  0.00    -0.004 A 
ENDBRANCH   4   7
BRANCH   4  13
ATOM     13  C   UNL     1     -11.593  13.083  69.014  0.00  0.00    -0.011 A 
ATOM     14  C   UNL     1     -11.705  11.737  69.339  0.00  0.00    -0.004 A 
ATOM     15  C   UNL     1     -12.082  11.287  70.575  0.00  0.00    -0.000 A 
ATOM     16  C   UNL     1     -12.789  12.176  71.374  0.00  0.00    -0.000 A 
ATOM     17  C   UNL     1     -12.723  13.531  71.073  0.00  0.00    -0.000 A 
ATOM     18  C   UNL     1     -12.100  13.981  69.915  0.00  0.00    -0.004 A 
ENDBRANCH   4  13
BRANCH   1  20
ATOM     19  C   UNL     1     -12.090  13.066  63.492  0.00  0.00    +0.023 C 
ATOM     20  C   UNL     1     -12.084  12.236  64.578  0.00  0.00    +0.093 C 
ENDBRANCH   1  20
BRANCH   5  21
ATOM     21  C   UNL     1     -10.227  14.765  65.997  0.00  0.00    +0.020 C 
BRANCH  21  22
ATOM     22  C   UNL     1     -10.271  16.087  65.320  0.00  0.00    +0.072 C 
BRANCH  22  23
ATOM     23  N   UNL     1      -9.694  17.180  65.958  0.00  0.00    -0.268 NA
ATOM     24  C   UNL     1     -10.431  18.344  66.207  0.00  0.00    +0.105 C 
ATOM     25  C   UNL     1     -10.095  18.973  67.553  0.00  0.00    +0.159 C 
ATOM     26  O   UNL     1      -8.995  18.379  68.148  0.00  0.00    -0.351 OA
ATOM     27  C   UNL     1      -7.930  18.197  67.284  0.00  0.00    +0.159 C 
ATOM     28  C   UNL     1      -8.318  17.158  66.270  0.00  0.00    +0.105 C 
ENDBRANCH  22  23
ENDBRANCH  21  22
ENDBRANCH   5  21
TORSDOF 6
ENDMDL
MODEL 4
REMARK VINA RESULT:      -6.6      2.074      5.331
REMARK  Name = 
REMARK  6 active torsions:
REMARK  status: ('A' for Active; 'I' for Inactive)
REMARK    1  A    between atoms: C_2  and  N_3
REMARK    2  A    between atoms: C_5  and  C_6
REMARK    3  A    between atoms: C_6  and  C_7
REMARK    4  A    between atoms: C_7  and  N_8
REMARK    5  A    between atoms: C_14  and  C_15
REMARK    6  A    between atoms: C_14  and  C_21
REMARK                            x       y       z     vdW  Elec       q    Type
REMARK                         _______ _______ _______ _____ _____    ______ ____
ROOT
ATOM      1  N   UNL     1     -10.431  15.291  68.665  0.00  0.00    -0.279 N 
ATOM      2  C   UNL     1     -11.183  14.261  68.067  0.00  0.00    +0.232 C 
ATOM      3  O   UNL     1     -12.348  13.960  68.425  0.00  0.00    -0.274 OA
ATOM      4  C   UNL     1     -10.305  13.290  67.418  0.00  0.00    +0.108 C 
ATOM      5  C   UNL     1      -8.931  14.132  67.217  0.00  0.00    +0.037 C 
ATOM      6  C   UNL     1      -9.067  14.851  68.670  0.00  0.00    +0.095 C 
ENDROOT
BRANCH   4   7
ATOM      7  C   UNL     1     -10.824  12.988  66.072  0.00  0.00    -0.011 A 
ATOM      8  C   UNL     1      -9.999  12.251  65.230  0.00  0.00    -0.004 A 
ATOM      9  C   UNL     1     -10.345  12.004  63.920  0.00  0.00    -0.000 A 
ATOM     10  C   UNL     1     -11.697  12.082  63.615  0.00  0.00    -0.000 A 
ATOM     11  C   UNL     1     -12.599  12.528  64.571  0.00  0.00    -0.000 A 
ATOM     12  C   UNL     1     -12.159  13.153  65.731  0.00  0.00    -0.004 A 
ENDBRANCH   4   7
BRANCH   4  13
ATOM     13  C   UNL     1      -9.988  12.104  68.219  0.00  0.00    -0.011 A 
ATOM     14  C   UNL     1     -11.060  11.324  68.637  0.00  0.00    -0.004 A 
ATOM     15  C   UNL     1     -10.942  10.010  69.000  0.00  0.00    -0.000 A 
ATOM     16  C   UNL     1      -9.678   9.579  69.381  0.00  0.00    -0.000 A 
ATOM     17  C   UNL     1      -8.579  10.339  69.003  0.00  0.00    -0.000 A 
ATOM     18  C   UNL     1      -8.736  11.579  68.397  0.00  0.00    -0.004 A 
ENDBRANCH   4  13
BRANCH   1  20
ATOM     19  C   UNL     1     -11.313  15.921  70.709  0.00  0.00    +0.023 C 
ATOM     20  C   UNL     1     -10.973  16.362  69.460  0.00  0.00    +0.093 C 
ENDBRANCH   1  20
BRANCH   5  21
ATOM     21  C   UNL     1      -9.685  15.345  66.432  0.00  0.00    +0.020 C 
BRANCH  21  22
ATOM     22  C   UNL     1      -8.662  16.364  66.083  0.00  0.00    +0.072 C 
BRANCH  22  23
ATOM     23  N   UNL     1      -8.980  17.709  66.242  0.00  0.00    -0.268 NA
ATOM     24  C   UNL     1     -10.304  18.155  66.138  0.00  0.00    +0.105 C 
ATOM     25  C   UNL     1     -10.631  19.253  67.143  0.00  0.00    +0.159 C 
ATOM     26  O   UNL     1      -9.503  19.714  67.800  0.00  0.00    -0.351 OA
ATOM     27  C   UNL     1      -8.435  19.966  66.956  0.00  0.00    +0.159 C 
ATOM     28  C   UNL     1      -7.948  18.654  66.409  0.00  0.00    +0.105 C 
ENDBRANCH  22  23
ENDBRANCH  21  22
ENDBRANCH   5  21
TORSDOF 6
ENDMDL
MODEL 5
REMARK VINA RESULT:      -6.4      2.340      3.927
REMARK  Name = 
REMARK  6 active torsions:
REMARK  status: ('A' for Active; 'I' for Inactive)
REMARK    1  A    between atoms: C_2  and  N_3
REMARK    2  A    between atoms: C_5  and  C_6
REMARK    3  A    between atoms: C_6  and  C_7
REMARK    4  A    between atoms: C_7  and  N_8
REMARK    5  A    between atoms: C_14  and  C_15
REMARK    6  A    between atoms: C_14  and  C_21
REMARK                            x       y       z     vdW  Elec       q    Type
REMARK                         _______ _______ _______ _____ _____    ______ ____
ROOT
ATOM      1  N   UNL     1     -10.552  13.899  68.700  0.00  0.00    -0.279 N 
ATOM      2  C   UNL     1      -9.738  12.946  68.058  0.00  0.00    +0.232 C 
ATOM      3  O   UNL     1      -8.565  13.182  67.679  0.00  0.00    -0.274 OA
ATOM      4  C   UNL     1     -10.554  11.912  67.426  0.00  0.00    +0.108 C 
ATOM      5  C   UNL     1     -11.967  12.041  68.217  0.00  0.00    +0.037 C 
ATOM      6  C   UNL     1     -11.891  13.665  68.247  0.00  0.00    +0.095 C 
ENDROOT
BRANCH   4   7
ATOM      7  C   UNL     1      -9.999  10.586  67.752  0.00  0.00    -0.011 A 
ATOM      8  C   UNL     1     -10.744   9.478  67.365  0.00  0.00    -0.004 A 
ATOM      9  C   UNL     1     -10.367   8.200  67.712  0.00  0.00    -0.000 A 
ATOM     10  C   UNL     1      -9.026   8.017  68.021  0.00  0.00    -0.000 A 
ATOM     11  C   UNL     1      -8.177   9.113  68.104  0.00  0.00    -0.000 A 
ATOM     12  C   UNL     1      -8.683  10.405  68.154  0.00  0.00    -0.004 A 
ENDBRANCH   4   7
BRANCH   4  13
ATOM     13  C   UNL     1     -10.822  12.115  65.999  0.00  0.00    -0.011 A 
ATOM     14  C   UNL     1      -9.824  11.731  65.112  0.00  0.00    -0.004 A 
ATOM     15  C   UNL     1     -10.054  11.449  63.792  0.00  0.00    -0.000 A 
ATOM     16  C   UNL     1     -11.208  11.982  63.232  0.00  0.00    -0.000 A 
ATOM     17  C   UNL     1     -12.223  12.399  64.083  0.00  0.00    -0.000 A 
ATOM     18  C   UNL     1     -12.040  12.434  65.459  0.00  0.00    -0.004 A 
ENDBRANCH   4  13
BRANCH   1  20
ATOM     19  C   UNL     1     -11.077  15.688  70.069  0.00  0.00    +0.023 C 
ATOM     20  C   UNL     1     -10.079  15.096  69.346  0.00  0.00    +0.093 C 
ENDBRANCH   1  20
BRANCH   5  21
ATOM     21  C   UNL     1     -11.263  11.879  69.679  0.00  0.00    +0.020 C 
BRANCH  21  22
ATOM     22  C   UNL     1     -12.292  11.368  70.622  0.00  0.00    +0.072 C 
BRANCH  22  23
ATOM     23  N   UNL     1     -12.112  10.108  71.184  0.00  0.00    -0.268 NA
ATOM     24  C   UNL     1     -13.144   9.478  71.890  0.00  0.00    +0.105 C 
ATOM     25  C   UNL     1     -13.195   7.976  71.635  0.00  0.00    +0.159 C 
ATOM     26  O   UNL     1     -12.093   7.529  70.927  0.00  0.00    -0.351 OA
ATOM     27  C   UNL     1     -10.891   8.020  71.405  0.00  0.00    +0.159 C 
ATOM     28  C   UNL     1     -10.843   9.496  71.129  0.00  0.00    +0.105 C 
ENDBRANCH  22  23
ENDBRANCH  21  22
ENDBRANCH   5  21
TORSDOF 6
ENDMDL
MODEL 6
REMARK VINA RESULT:      -6.2      2.168      3.932
REMARK  Name = 
REMARK  6 active torsions:
REMARK  status: ('A' for Active; 'I' for Inactive)
REMARK    1  A    between atoms: C_2  and  N_3
REMARK    2  A    between atoms: C_5  and  C_6
REMARK    3  A    between atoms: C_6  and  C_7
REMARK    4  A    between atoms: C_7  and  N_8
REMARK    5  A    between atoms: C_14  and  C_15
REMARK    6  A    between atoms: C_14  and  C_21
REMARK                            x       y       z     vdW  Elec       q    Type
REMARK                         _______ _______ _______ _____ _____    ______ ____
ROOT
ATOM      1  N   UNL     1      -8.533  14.651  67.207  0.00  0.00    -0.279 N 
ATOM      2  C   UNL     1      -9.195  13.513  67.709  0.00  0.00    +0.232 C 
ATOM      3  O   UNL     1      -8.611  12.433  67.968  0.00  0.00    -0.274 OA
ATOM      4  C   UNL     1     -10.617  13.556  67.378  0.00  0.00    +0.108 C 
ATOM      5  C   UNL     1     -10.864  15.133  67.076  0.00  0.00    +0.037 C 
ATOM      6  C   UNL     1      -9.442  15.287  66.302  0.00  0.00    +0.095 C 
ENDROOT
BRANCH   4   7
ATOM      7  C   UNL     1     -11.406  13.219  68.577  0.00  0.00    -0.011 A 
ATOM      8  C   UNL     1     -11.217  11.955  69.121  0.00  0.00    -0.004 A 
ATOM      9  C   UNL     1     -11.977  11.504  70.176  0.00  0.00    -0.000 A 
ATOM     10  C   UNL     1     -12.573  12.478  70.965  0.00  0.00    -0.000 A 
ATOM     11  C   UNL     1     -12.500  13.813  70.593  0.00  0.00    -0.000 A 
ATOM     12  C   UNL     1     -12.084  14.176  69.319  0.00  0.00    -0.004 A 
ENDBRANCH   4   7
BRANCH   4  13
ATOM     13  C   UNL     1     -11.000  12.807  66.178  0.00  0.00    -0.011 A 
ATOM     14  C   UNL     1     -12.145  13.229  65.512  0.00  0.00    -0.004 A 
ATOM     15  C   UNL     1     -12.402  12.949  64.198  0.00  0.00    -0.000 A 
ATOM     16  C   UNL     1     -11.735  11.861  63.650  0.00  0.00    -0.000 A 
ATOM     17  C   UNL     1     -10.597  11.391  64.294  0.00  0.00    -0.000 A 
ATOM     18  C   UNL     1     -10.217  11.886  65.535  0.00  0.00    -0.004 A 
ENDBRANCH   4  13
BRANCH   1  20
ATOM     19  C   UNL     1      -6.727  15.153  68.562  0.00  0.00    +0.023 C 
ATOM     20  C   UNL     1      -7.114  14.886  67.278  0.00  0.00    +0.093 C 
ENDBRANCH   1  20
BRANCH   5  21
ATOM     21  C   UNL     1     -10.249  15.595  68.513  0.00  0.00    +0.020 C 
BRANCH  21  22
ATOM     22  C   UNL     1     -10.657  17.004  68.747  0.00  0.00    +0.072 C 
BRANCH  22  23
ATOM     23  N   UNL     1      -9.977  18.014  68.074  0.00  0.00    -0.268 NA
ATOM     24  C   UNL     1      -8.627  18.277  68.339  0.00  0.00    +0.105 C 
ATOM     25  C   UNL     1      -7.844  18.635  67.081  0.00  0.00    +0.159 C 
ATOM     26  O   UNL     1      -8.670  18.822  65.986  0.00  0.00    -0.351 OA
ATOM     27  C   UNL     1      -9.775  19.611  66.254  0.00  0.00    +0.159 C 
ATOM     28  C   UNL     1     -10.679  18.853  67.185  0.00  0.00    +0.105 C 
ENDBRANCH  22  23
ENDBRANCH  21  22
ENDBRANCH   5  21
TORSDOF 6
ENDMDL
MODEL 7
REMARK VINA RESULT:      -6.1      3.460      6.772
REMARK  Name = 
REMARK  6 active torsions:
REMARK  status: ('A' for Active; 'I' for Inactive)
REMARK    1  A    between atoms: C_2  and  N_3
REMARK    2  A    between atoms: C_5  and  C_6
REMARK    3  A    between atoms: C_6  and  C_7
REMARK    4  A    between atoms: C_7  and  N_8
REMARK    5  A    between atoms: C_14  and  C_15
REMARK    6  A    between atoms: C_14  and  C_21
REMARK                            x       y       z     vdW  Elec       q    Type
REMARK                         _______ _______ _______ _____ _____    ______ ____
ROOT
ATOM      1  N   UNL     1      -7.724  14.889  68.627  0.00  0.00    -0.279 N 
ATOM      2  C   UNL     1      -8.834  15.752  68.708  0.00  0.00    +0.232 C 
ATOM      3  O   UNL     1      -9.630  15.765  69.679  0.00  0.00    -0.274 OA
ATOM      4  C   UNL     1      -9.243  16.194  67.376  0.00  0.00    +0.108 C 
ATOM      5  C   UNL     1      -7.908  15.931  66.490  0.00  0.00    +0.037 C 
ATOM      6  C   UNL     1      -7.586  14.528  67.247  0.00  0.00    +0.095 C 
ENDROOT
BRANCH   4   7
ATOM      7  C   UNL     1      -9.467  17.651  67.395  0.00  0.00    -0.011 A 
ATOM      8  C   UNL     1     -10.064  18.210  66.271  0.00  0.00    -0.004 A 
ATOM      9  C   UNL     1     -10.223  19.572  66.144  0.00  0.00    -0.000 A 
ATOM     10  C   UNL     1     -10.222  20.305  67.323  0.00  0.00    -0.000 A 
ATOM     11  C   UNL     1      -9.929  19.680  68.528  0.00  0.00    -0.000 A 
ATOM     12  C   UNL     1      -9.374  18.407  68.555  0.00  0.00    -0.004 A 
ENDBRANCH   4   7
BRANCH   4  13
ATOM     13  C   UNL     1     -10.336  15.426  66.774  0.00  0.00    -0.011 A 
ATOM     14  C   UNL     1     -10.202  15.090  65.432  0.00  0.00    -0.004 A 
ATOM     15  C   UNL     1     -10.875  14.055  64.842  0.00  0.00    -0.000 A 
ATOM     16  C   UNL     1     -12.033  13.621  65.475  0.00  0.00    -0.000 A 
ATOM     17  C   UNL     1     -12.219  13.953  66.811  0.00  0.00    -0.000 A 
ATOM     18  C   UNL     1     -11.356  14.825  67.463  0.00  0.00    -0.004 A 
ENDBRANCH   4  13
BRANCH   1  20
ATOM     19  C   UNL     1      -5.779  14.031  69.540  0.00  0.00    +0.023 C 
ATOM     20  C   UNL     1      -7.120  14.205  69.741  0.00  0.00    +0.093 C 
ENDBRANCH   1  20
BRANCH   5  21
ATOM     21  C   UNL     1      -6.964  16.807  67.490  0.00  0.00    +0.020 C 
BRANCH  21  22
ATOM     22  C   UNL     1      -6.005  17.573  66.653  0.00  0.00    +0.072 C 
BRANCH  22  23
ATOM     23  N   UNL     1      -5.772  18.909  66.962  0.00  0.00    -0.268 NA
ATOM     24  C   UNL     1      -5.376  19.821  65.976  0.00  0.00    +0.105 C 
ATOM     25  C   UNL     1      -6.014  21.193  66.157  0.00  0.00    +0.159 C 
ATOM     26  O   UNL     1      -6.683  21.303  67.363  0.00  0.00    -0.351 OA
ATOM     27  C   UNL     1      -5.960  20.826  68.443  0.00  0.00    +0.159 C 
ATOM     28  C   UNL     1      -5.837  19.335  68.305  0.00  0.00    +0.105 C 
ENDBRANCH  22  23
ENDBRANCH  21  22
ENDBRANCH   5  21
TORSDOF 6
ENDMDL
MODEL 8
REMARK VINA RESULT:      -6.1      1.332      2.112
REMARK  Name = 
REMARK  6 active torsions:
REMARK  status: ('A' for Active; 'I' for Inactive)
REMARK    1  A    between atoms: C_2  and  N_3
REMARK    2  A    between atoms: C_5  and  C_6
REMARK    3  A    between atoms: C_6  and  C_7
REMARK    4  A    between atoms: C_7  and  N_8
REMARK    5  A    between atoms: C_14  and  C_15
REMARK    6  A    between atoms: C_14  and  C_21
REMARK                            x       y       z     vdW  Elec       q    Type
REMARK                         _______ _______ _______ _____ _____    ______ ____
ROOT
ATOM      1  N   UNL     1      -9.822  14.447  67.679  0.00  0.00    -0.279 N 
ATOM      2  C   UNL     1      -9.143  13.218  67.561  0.00  0.00    +0.232 C 
ATOM      3  O   UNL     1      -7.911  13.128  67.339  0.00  0.00    -0.274 OA
ATOM      4  C   UNL     1     -10.069  12.150  67.189  0.00  0.00    +0.108 C 
ATOM      5  C   UNL     1     -11.510  12.763  67.622  0.00  0.00    +0.037 C 
ATOM      6  C   UNL     1     -11.120  14.254  67.103  0.00  0.00    +0.095 C 
ENDROOT
BRANCH   4   7
ATOM      7  C   UNL     1      -9.826  10.975  68.045  0.00  0.00    -0.011 A 
ATOM      8  C   UNL     1     -10.739   9.931  67.955  0.00  0.00    -0.004 A 
ATOM      9  C   UNL     1     -10.663   8.835  68.785  0.00  0.00    -0.000 A 
ATOM     10  C   UNL     1      -9.422   8.579  69.352  0.00  0.00    -0.000 A 
ATOM     11  C   UNL     1      -8.381   9.482  69.183  0.00  0.00    -0.000 A 
ATOM     12  C   UNL     1      -8.619  10.760  68.694  0.00  0.00    -0.004 A 
ENDBRANCH   4   7
BRANCH   4  13
ATOM     13  C   UNL     1     -10.126  11.847  65.756  0.00  0.00    -0.011 A 
ATOM     14  C   UNL     1      -9.074  11.109  65.228  0.00  0.00    -0.004 A 
ATOM     15  C   UNL     1      -9.163  10.390  64.067  0.00  0.00    -0.000 A 
ATOM     16  C   UNL     1     -10.166  10.758  63.180  0.00  0.00    -0.000 A 
ATOM     17  C   UNL     1     -11.227  11.514  63.660  0.00  0.00    -0.000 A 
ATOM     18  C   UNL     1     -11.219  12.027  64.951  0.00  0.00    -0.004 A 
ENDBRANCH   4  13
BRANCH   1  20
ATOM     19  C   UNL     1      -9.818  16.721  67.254  0.00  0.00    +0.023 C 
ATOM     20  C   UNL     1      -9.200  15.717  67.947  0.00  0.00    +0.093 C 
ENDBRANCH   1  20
BRANCH   5  21
ATOM     21  C   UNL     1     -11.024  13.056  69.151  0.00  0.00    +0.020 C 
BRANCH  21  22
ATOM     22  C   UNL     1     -12.220  12.975  70.029  0.00  0.00    +0.072 C 
BRANCH  22  23
ATOM     23  N   UNL     1     -12.481  14.030  70.896  0.00  0.00    -0.268 NA
ATOM     24  C   UNL     1     -13.408  13.898  71.938  0.00  0.00    +0.105 C 
ATOM     25  C   UNL     1     -12.965  14.611  73.210  0.00  0.00    +0.159 C 
ATOM     26  O   UNL     1     -11.847  15.401  73.004  0.00  0.00    -0.351 OA
ATOM     27  C   UNL     1     -11.927  16.187  71.868  0.00  0.00    +0.159 C 
ATOM     28  C   UNL     1     -11.880  15.286  70.667  0.00  0.00    +0.105 C 
ENDBRANCH  22  23
ENDBRANCH  21  22
ENDBRANCH   5  21
TORSDOF 6
ENDMDL
MODEL 9
REMARK VINA RESULT:      -6.0      2.618      4.898
REMARK  Name = 
REMARK  6 active torsions:
REMARK  status: ('A' for Active; 'I' for Inactive)
REMARK    1  A    between atoms: C_2  and  N_3
REMARK    2  A    between atoms: C_5  and  C_6
REMARK    3  A    between atoms: C_6  and  C_7
REMARK    4  A    between atoms: C_7  and  N_8
REMARK    5  A    between atoms: C_14  and  C_15
REMARK    6  A    between atoms: C_14  and  C_21
REMARK                            x       y       z     vdW  Elec       q    Type
REMARK                         _______ _______ _______ _____ _____    ______ ____
ROOT
ATOM      1  N   UNL     1     -11.916  13.989  66.440  0.00  0.00    -0.279 N 
ATOM      2  C   UNL     1     -11.488  12.665  66.656  0.00  0.00    +0.232 C 
ATOM      3  O   UNL     1     -12.018  11.669  66.106  0.00  0.00    -0.274 OA
ATOM      4  C   UNL     1     -10.784  12.552  67.931  0.00  0.00    +0.108 C 
ATOM      5  C   UNL     1     -10.348  14.087  68.234  0.00  0.00    +0.037 C 
ATOM      6  C   UNL     1     -11.761  14.678  67.686  0.00  0.00    +0.095 C 
ENDROOT
BRANCH   4   7
ATOM      7  C   UNL     1      -9.541  11.784  67.735  0.00  0.00    -0.011 A 
ATOM      8  C   UNL     1      -8.603  11.830  68.760  0.00  0.00    -0.004 A 
ATOM      9  C   UNL     1      -7.369  11.234  68.633  0.00  0.00    -0.000 A 
ATOM     10  C   UNL     1      -7.272  10.214  67.697  0.00  0.00    -0.000 A 
ATOM     11  C   UNL     1      -8.342   9.939  66.856  0.00  0.00    -0.000 A 
ATOM     12  C   UNL     1      -9.403  10.827  66.739  0.00  0.00    -0.004 A 
ENDBRANCH   4   7
BRANCH   4  13
ATOM     13  C   UNL     1     -11.603  12.091  69.056  0.00  0.00    -0.011 A 
ATOM     14  C   UNL     1     -11.746  10.717  69.207  0.00  0.00    -0.004 A 
ATOM     15  C   UNL     1     -12.089  10.118  70.389  0.00  0.00    -0.000 A 
ATOM     16  C   UNL     1     -12.735  10.913  71.327  0.00  0.00    -0.000 A 
ATOM     17  C   UNL     1     -12.637  12.293  71.202  0.00  0.00    -0.000 A 
ATOM     18  C   UNL     1     -12.045  12.875  70.088  0.00  0.00    -0.004 A 
ENDBRANCH   4  13
BRANCH   1  20
ATOM     19  C   UNL     1     -11.936  15.052  64.385  0.00  0.00    +0.023 C 
ATOM     20  C   UNL     1     -12.713  14.434  65.325  0.00  0.00    +0.093 C 
ENDBRANCH   1  20
BRANCH   5  21
ATOM     21  C   UNL     1      -9.603  14.252  66.794  0.00  0.00    +0.020 C 
BRANCH  21  22
ATOM     22  C   UNL     1      -8.532  15.271  66.952  0.00  0.00    +0.072 C 
BRANCH  22  23
ATOM     23  N   UNL     1      -8.900  16.595  67.168  0.00  0.00    -0.268 NA
ATOM     24  C   UNL     1      -9.561  17.332  66.178  0.00  0.00    +0.105 C 
ATOM     25  C   UNL     1     -10.629  18.256  66.751  0.00  0.00    +0.159 C 
ATOM     26  O   UNL     1     -10.578  18.320  68.133  0.00  0.00    -0.351 OA
ATOM     27  C   UNL     1      -9.300  18.492  68.633  0.00  0.00    +0.159 C 
ATOM     28  C   UNL     1      -8.516  17.238  68.363  0.00  0.00    +0.105 C 
ENDBRANCH  22  23
ENDBRANCH  21  22
ENDBRANCH   5  21
TORSDOF 6
ENDMDL
