MODEL 1
REMARK VINA RESULT:      -7.0      0.000      0.000
REMARK  Name = 
REMARK  6 active torsions:
REMARK  status: ('A' for Active; 'I' for Inactive)
REMARK    1  A    between atoms: C_5  and  C_6
REMARK    2  A    between atoms: C_6  and  O_7
REMARK    3  A    between atoms: O_7  and  C_8
REMARK    4  A    between atoms: C_8  and  C_9
REMARK    5  A    between atoms: C_8  and  C_15
REMARK    6  A    between atoms: C_9  and  N_10
REMARK                            x       y       z     vdW  Elec       q    Type
REMARK                         _______ _______ _______ _____ _____    ______ ____
ROOT
ATOM      1  C   UNL     1     -11.037  14.696  67.555  0.00  0.00    +0.161 C 
ENDROOT
BRANCH   1   2
ATOM      2  C   UNL     1      -9.609  15.469  67.448  0.00  0.00    +0.017 A 
ATOM      3  C   UNL     1      -9.877  16.543  66.598  0.00  0.00    +0.057 A 
ATOM      4 CL   UNL     1     -10.874  16.337  65.161  0.00  0.00    -0.082 Cl
ATOM      5  C   UNL     1      -9.203  17.745  66.702  0.00  0.00    +0.023 A 
ATOM      6  C   UNL     1      -8.368  17.898  67.781  0.00  0.00    +0.058 A 
ATOM      7 CL   UNL     1      -7.830  19.490  68.313  0.00  0.00    -0.082 Cl
ATOM      8  C   UNL     1      -8.125  16.836  68.630  0.00  0.00    +0.011 A 
ATOM      9  C   UNL     1      -9.079  15.845  68.675  0.00  0.00    -0.000 A 
ENDBRANCH   1   2
BRANCH   1  10
ATOM     10  O   UNL     1     -10.862  14.365  69.031  0.00  0.00    -0.345 OA
BRANCH  10  11
ATOM     11  C   UNL     1     -12.130  14.132  69.494  0.00  0.00    +0.169 C 
BRANCH  11  16
ATOM     12 CL   UNL     1     -12.496  15.434  74.446  0.00  0.00    -0.082 Cl
ATOM     13  C   UNL     1     -12.737  15.572  73.268  0.00  0.00    +0.058 A 
ATOM     14  C   UNL     1     -13.849  15.143  72.546  0.00  0.00    +0.011 A 
ATOM     15  C   UNL     1     -13.770  14.856  71.185  0.00  0.00    -0.001 A 
ATOM     16  C   UNL     1     -12.616  15.149  70.466  0.00  0.00    +0.007 A 
ATOM     17  C   UNL     1     -11.808  16.084  71.084  0.00  0.00    -0.001 A 
ATOM     18  C   UNL     1     -11.848  16.277  72.460  0.00  0.00    +0.011 A 
ENDBRANCH  11  16
ENDBRANCH  10  11
ENDBRANCH   1  10
BRANCH   1  19
ATOM     19  C   UNL     1     -10.388  13.304  66.975  0.00  0.00    +0.142 C 
BRANCH  19  20
ATOM     20  N   UNL     1     -11.079  12.843  65.852  0.00  0.00    -0.305 N 
ATOM     21  C   UNL     1     -12.402  13.160  65.850  0.00  0.00    +0.179 A 
ATOM     22  N   UNL     1     -12.947  12.678  64.740  0.00  0.00    -0.222 NA
ATOM     23  C   UNL     1     -11.974  12.375  63.881  0.00  0.00    +0.119 A 
ATOM     24  C   UNL     1     -10.815  12.736  64.524  0.00  0.00    +0.098 A 
ENDBRANCH  19  20
ENDBRANCH   1  19
TORSDOF 6
ENDMDL
MODEL 2
REMARK VINA RESULT:      -6.8      3.170      4.815
REMARK  Name = 
REMARK  6 active torsions:
REMARK  status: ('A' for Active; 'I' for Inactive)
REMARK    1  A    between atoms: C_5  and  C_6
REMARK    2  A    between atoms: C_6  and  O_7
REMARK    3  A    between atoms: O_7  and  C_8
REMARK    4  A    between atoms: C_8  and  C_9
REMARK    5  A    between atoms: C_8  and  C_15
REMARK    6  A    between atoms: C_9  and  N_10
REMARK                            x       y       z     vdW  Elec       q    Type
REMARK                         _______ _______ _______ _____ _____    ______ ____
ROOT
ATOM      1  C   UNL     1     -10.746  12.333  68.321  0.00  0.00    +0.161 C 
ENDROOT
BRANCH   1   2
ATOM      2  C   UNL     1     -10.843  10.817  68.904  0.00  0.00    +0.017 A 
ATOM      3  C   UNL     1      -9.509  10.439  69.065  0.00  0.00    +0.057 A 
ATOM      4 CL   UNL     1      -8.300  10.837  67.849  0.00  0.00    -0.082 Cl
ATOM      5  C   UNL     1      -9.114   9.551  70.048  0.00  0.00    +0.023 A 
ATOM      6  C   UNL     1     -10.063   9.177  70.966  0.00  0.00    +0.058 A 
ATOM      7 CL   UNL     1      -9.619   8.464  72.516  0.00  0.00    -0.082 Cl
ATOM      8  C   UNL     1     -11.378   9.575  70.811  0.00  0.00    +0.011 A 
ATOM      9  C   UNL     1     -11.600  10.708  70.063  0.00  0.00    -0.000 A 
ENDBRANCH   1   2
BRANCH   1  10
ATOM     10  O   UNL     1     -11.814  12.872  69.263  0.00  0.00    -0.345 OA
BRANCH  10  11
ATOM     11  C   UNL     1     -11.364  14.111  69.634  0.00  0.00    +0.169 C 
BRANCH  11  16
ATOM     12 CL   UNL     1     -12.332  15.206  74.555  0.00  0.00    -0.082 Cl
ATOM     13  C   UNL     1     -12.595  15.201  73.374  0.00  0.00    +0.058 A 
ATOM     14  C   UNL     1     -13.391  14.308  72.659  0.00  0.00    +0.011 A 
ATOM     15  C   UNL     1     -13.176  14.061  71.305  0.00  0.00    -0.001 A 
ATOM     16  C   UNL     1     -12.264  14.824  70.583  0.00  0.00    +0.007 A 
ATOM     17  C   UNL     1     -11.964  16.032  71.181  0.00  0.00    -0.001 A 
ATOM     18  C   UNL     1     -12.102  16.212  72.553  0.00  0.00    +0.011 A 
ENDBRANCH  11  16
ENDBRANCH  10  11
ENDBRANCH   1  10
BRANCH   1  19
ATOM     19  C   UNL     1     -11.759  11.977  67.078  0.00  0.00    +0.142 C 
BRANCH  19  20
ATOM     20  N   UNL     1     -11.706  12.952  66.077  0.00  0.00    -0.305 N 
ATOM     21  C   UNL     1     -12.514  12.693  65.014  0.00  0.00    +0.179 A 
ATOM     22  N   UNL     1     -12.384  13.682  64.139  0.00  0.00    -0.222 NA
ATOM     23  C   UNL     1     -11.802  14.717  64.744  0.00  0.00    +0.119 A 
ATOM     24  C   UNL     1     -11.623  14.307  66.043  0.00  0.00    +0.098 A 
ENDBRANCH  19  20
ENDBRANCH   1  19
TORSDOF 6
ENDMDL
MODEL 3
REMARK VINA RESULT:      -6.6      1.558      2.015
REMARK  Name = 
REMARK  6 active torsions:
REMARK  status: ('A' for Active; 'I' for Inactive)
REMARK    1  A    between atoms: C_5  and  C_6
REMARK    2  A    between atoms: C_6  and  O_7
REMARK    3  A    between atoms: O_7  and  C_8
REMARK    4  A    between atoms: C_8  and  C_9
REMARK    5  A    between atoms: C_8  and  C_15
REMARK    6  A    between atoms: C_9  and  N_10
REMARK                            x       y       z     vdW  Elec       q    Type
REMARK                         _______ _______ _______ _____ _____    ______ ____
ROOT
ATOM      1  C   UNL     1     -10.420  15.740  66.413  0.00  0.00    +0.161 C 
ENDROOT
BRANCH   1   2
ATOM      2  C   UNL     1      -8.984  16.481  66.610  0.00  0.00    +0.017 A 
ATOM      3  C   UNL     1      -9.238  17.436  67.595  0.00  0.00    +0.057 A 
ATOM      4 CL   UNL     1     -10.721  18.385  67.580  0.00  0.00    -0.082 Cl
ATOM      5  C   UNL     1      -8.262  17.848  68.483  0.00  0.00    +0.023 A 
ATOM      6  C   UNL     1      -7.073  17.163  68.463  0.00  0.00    +0.058 A 
ATOM      7 CL   UNL     1      -5.942  17.234  69.813  0.00  0.00    -0.082 Cl
ATOM      8  C   UNL     1      -6.839  16.202  67.497  0.00  0.00    +0.011 A 
ATOM      9  C   UNL     1      -7.943  15.616  66.923  0.00  0.00    -0.000 A 
ENDBRANCH   1   2
BRANCH   1  10
ATOM     10  O   UNL     1     -10.232  14.834  67.624  0.00  0.00    -0.345 OA
BRANCH  10  11
ATOM     11  C   UNL     1     -11.477  14.736  68.186  0.00  0.00    +0.169 C 
BRANCH  11  16
ATOM     12 CL   UNL     1     -13.970  15.742  72.559  0.00  0.00    -0.082 Cl
ATOM     13  C   UNL     1     -13.019  15.358  71.918  0.00  0.00    +0.058 A 
ATOM     14  C   UNL     1     -11.864  16.053  71.564  0.00  0.00    +0.011 A 
ATOM     15  C   UNL     1     -11.144  15.736  70.415  0.00  0.00    -0.001 A 
ATOM     16  C   UNL     1     -11.463  14.606  69.669  0.00  0.00    +0.007 A 
ATOM     17  C   UNL     1     -12.197  13.673  70.375  0.00  0.00    -0.001 A 
ATOM     18  C   UNL     1     -12.980  14.042  71.463  0.00  0.00    +0.011 A 
ENDBRANCH  11  16
ENDBRANCH  10  11
ENDBRANCH   1  10
BRANCH   1  19
ATOM     19  C   UNL     1      -9.792  14.701  65.307  0.00  0.00    +0.142 C 
BRANCH  19  20
ATOM     20  N   UNL     1     -10.757  13.805  64.838  0.00  0.00    -0.305 N 
ATOM     21  C   UNL     1     -11.937  14.390  64.504  0.00  0.00    +0.179 A 
ATOM     22  N   UNL     1     -12.765  13.449  64.071  0.00  0.00    -0.222 NA
ATOM     23  C   UNL     1     -12.060  12.354  63.790  0.00  0.00    +0.119 A 
ATOM     24  C   UNL     1     -10.756  12.703  64.043  0.00  0.00    +0.098 A 
ENDBRANCH  19  20
ENDBRANCH   1  19
TORSDOF 6
ENDMDL
MODEL 4
REMARK VINA RESULT:      -6.6      1.881      5.351
REMARK  Name = 
REMARK  6 active torsions:
REMARK  status: ('A' for Active; 'I' for Inactive)
REMARK    1  A    between atoms: C_5  and  C_6
REMARK    2  A    between atoms: C_6  and  O_7
REMARK    3  A    between atoms: O_7  and  C_8
REMARK    4  A    between atoms: C_8  and  C_9
REMARK    5  A    between atoms: C_8  and  C_15
REMARK    6  A    between atoms: C_9  and  N_10
REMARK                            x       y       z     vdW  Elec       q    Type
REMARK                         _______ _______ _______ _____ _____    ______ ____
ROOT
ATOM      1  C   UNL     1     -10.832  13.769  68.078  0.00  0.00    +0.161 C 
ENDROOT
BRANCH   1   2
ATOM      2  C   UNL     1     -12.087  14.111  69.055  0.00  0.00    +0.017 A 
ATOM      3  C   UNL     1     -12.111  13.040  69.950  0.00  0.00    +0.057 A 
ATOM      4 CL   UNL     1     -11.854  11.389  69.395  0.00  0.00    -0.082 Cl
ATOM      5  C   UNL     1     -12.558  13.182  71.250  0.00  0.00    +0.023 A 
ATOM      6  C   UNL     1     -12.828  14.458  71.679  0.00  0.00    +0.058 A 
ATOM      7 CL   UNL     1     -12.933  14.853  73.393  0.00  0.00    -0.082 Cl
ATOM      8  C   UNL     1     -12.780  15.516  70.791  0.00  0.00    +0.011 A 
ATOM      9  C   UNL     1     -11.998  15.353  69.671  0.00  0.00    -0.000 A 
ENDBRANCH   1   2
BRANCH   1  10
ATOM     10  O   UNL     1      -9.929  14.826  68.700  0.00  0.00    -0.345 OA
BRANCH  10  11
ATOM     11  C   UNL     1      -9.096  15.219  67.687  0.00  0.00    +0.169 C 
BRANCH  11  16
ATOM     12 CL   UNL     1     -10.224  20.059  66.399  0.00  0.00    -0.082 Cl
ATOM     13  C   UNL     1      -9.507  19.198  66.856  0.00  0.00    +0.058 A 
ATOM     14  C   UNL     1      -8.468  18.505  66.237  0.00  0.00    +0.011 A 
ATOM     15  C   UNL     1      -8.111  17.218  66.631  0.00  0.00    -0.001 A 
ATOM     16  C   UNL     1      -8.674  16.644  67.767  0.00  0.00    +0.007 A 
ATOM     17  C   UNL     1      -9.221  17.570  68.635  0.00  0.00    -0.001 A 
ATOM     18  C   UNL     1      -9.652  18.814  68.186  0.00  0.00    +0.011 A 
ENDBRANCH  11  16
ENDBRANCH  10  11
ENDBRANCH   1  10
BRANCH   1  19
ATOM     19  C   UNL     1     -11.434  14.721  66.883  0.00  0.00    +0.142 C 
BRANCH  19  20
ATOM     20  N   UNL     1     -11.986  13.960  65.849  0.00  0.00    -0.305 N 
ATOM     21  C   UNL     1     -11.998  14.592  64.645  0.00  0.00    +0.179 A 
ATOM     22  N   UNL     1     -12.536  13.776  63.748  0.00  0.00    -0.222 NA
ATOM     23  C   UNL     1     -12.548  12.540  64.246  0.00  0.00    +0.119 A 
ATOM     24  C   UNL     1     -11.953  12.653  65.479  0.00  0.00    +0.098 A 
ENDBRANCH  19  20
ENDBRANCH   1  19
TORSDOF 6
ENDMDL
MODEL 5
REMARK VINA RESULT:      -6.6      2.550      4.691
REMARK  Name = 
REMARK  6 active torsions:
REMARK  status: ('A' for Active; 'I' for Inactive)
REMARK    1  A    between atoms: C_5  and  C_6
REMARK    2  A    between atoms: C_6  and  O_7
REMARK    3  A    between atoms: O_7  and  C_8
REMARK    4  A    between atoms: C_8  and  C_9
REMARK    5  A    between atoms: C_8  and  C_15
REMARK    6  A    between atoms: C_9  and  N_10
REMARK                            x       y       z     vdW  Elec       q    Type
REMARK                         _______ _______ _______ _____ _____    ______ ____
ROOT
ATOM      1  C   UNL     1     -10.245  14.976  67.796  0.00  0.00    +0.161 C 
ENDROOT
BRANCH   1   2
ATOM      2  C   UNL     1     -10.369  14.647  66.207  0.00  0.00    +0.017 A 
ATOM      3  C   UNL     1      -9.968  13.313  66.114  0.00  0.00    +0.057 A 
ATOM      4 CL   UNL     1      -8.588  12.714  67.029  0.00  0.00    -0.082 Cl
ATOM      5  C   UNL     1     -10.470  12.463  65.145  0.00  0.00    +0.023 A 
ATOM      6  C   UNL     1     -11.502  12.939  64.376  0.00  0.00    +0.058 A 
ATOM      7 CL   UNL     1     -12.547  11.854  63.460  0.00  0.00    -0.082 Cl
ATOM      8  C   UNL     1     -11.908  14.255  64.491  0.00  0.00    +0.011 A 
ATOM      9  C   UNL     1     -11.631  14.889  65.679  0.00  0.00    -0.000 A 
ENDBRANCH   1   2
BRANCH   1  10
ATOM     10  O   UNL     1     -11.567  14.304  68.142  0.00  0.00    -0.345 OA
BRANCH  10  11
ATOM     11  C   UNL     1     -11.446  13.945  69.458  0.00  0.00    +0.169 C 
BRANCH  11  16
ATOM     12 CL   UNL     1     -12.351  15.203  74.352  0.00  0.00    -0.082 Cl
ATOM     13  C   UNL     1     -12.602  15.205  73.168  0.00  0.00    +0.058 A 
ATOM     14  C   UNL     1     -13.473  14.381  72.457  0.00  0.00    +0.011 A 
ATOM     15  C   UNL     1     -13.270  14.094  71.109  0.00  0.00    -0.001 A 
ATOM     16  C   UNL     1     -12.282  14.754  70.386  0.00  0.00    +0.007 A 
ATOM     17  C   UNL     1     -11.873  15.937  70.970  0.00  0.00    -0.001 A 
ATOM     18  C   UNL     1     -12.007  16.152  72.338  0.00  0.00    +0.011 A 
ENDBRANCH  11  16
ENDBRANCH  10  11
ENDBRANCH   1  10
BRANCH   1  19
ATOM     19  C   UNL     1     -10.855  16.486  67.585  0.00  0.00    +0.142 C 
BRANCH  19  20
ATOM     20  N   UNL     1      -9.841  17.446  67.522  0.00  0.00    -0.305 N 
ATOM     21  C   UNL     1     -10.004  18.355  66.525  0.00  0.00    +0.179 A 
ATOM     22  N   UNL     1      -8.992  19.212  66.568  0.00  0.00    -0.222 NA
ATOM     23  C   UNL     1      -8.383  19.097  67.748  0.00  0.00    +0.119 A 
ATOM     24  C   UNL     1      -9.110  18.149  68.426  0.00  0.00    +0.098 A 
ENDBRANCH  19  20
ENDBRANCH   1  19
TORSDOF 6
ENDMDL
MODEL 6
REMARK VINA RESULT:      -6.5      3.920      6.067
REMARK  Name = 
REMARK  6 active torsions:
REMARK  status: ('A' for Active; 'I' for Inactive)
REMARK    1  A    between atoms: C_5  and  C_6
REMARK    2  A    between atoms: C_6  and  O_7
REMARK    3  A    between atoms: O_7  and  C_8
REMARK    4  A    between atoms: C_8  and  C_9
REMARK    5  A    between atoms: C_8  and  C_15
REMARK    6  A    between atoms: C_9  and  N_10
REMARK                            x       y       z     vdW  Elec       q    Type
REMARK                         _______ _______ _______ _____ _____    ______ ____
ROOT
ATOM      1  C   UNL     1     -11.001  13.860  69.040  0.00  0.00    +0.161 C 
ENDROOT
BRANCH   1   2
ATOM      2  C   UNL     1     -10.903  14.015  67.423  0.00  0.00    +0.017 A 
ATOM      3  C   UNL     1     -10.169  12.896  67.027  0.00  0.00    +0.057 A 
ATOM      4 CL   UNL     1      -8.765  12.360  67.945  0.00  0.00    -0.082 Cl
ATOM      5  C   UNL     1     -10.354  12.296  65.795  0.00  0.00    +0.023 A 
ATOM      6  C   UNL     1     -11.405  12.748  65.037  0.00  0.00    +0.058 A 
ATOM      7 CL   UNL     1     -12.059  11.796  63.705  0.00  0.00    -0.082 Cl
ATOM      8  C   UNL     1     -12.141  13.843  65.447  0.00  0.00    +0.011 A 
ATOM      9  C   UNL     1     -12.136  14.127  66.793  0.00  0.00    -0.000 A 
ENDBRANCH   1   2
BRANCH   1  10
ATOM     10  O   UNL     1     -12.010  12.721  68.971  0.00  0.00    -0.345 OA
BRANCH  10  11
ATOM     11  C   UNL     1     -12.037  12.197  70.236  0.00  0.00    +0.169 C 
BRANCH  11  16
ATOM     12 CL   UNL     1     -10.302   8.107  72.809  0.00  0.00    -0.082 Cl
ATOM     13  C   UNL     1     -10.821   8.651  71.861  0.00  0.00    +0.058 A 
ATOM     14  C   UNL     1     -10.244   9.050  70.657  0.00  0.00    +0.011 A 
ATOM     15  C   UNL     1     -10.755  10.115  69.919  0.00  0.00    -0.001 A 
ATOM     16  C   UNL     1     -11.960  10.711  70.277  0.00  0.00    +0.007 A 
ATOM     17  C   UNL     1     -12.746   9.913  71.086  0.00  0.00    -0.001 A 
ATOM     18  C   UNL     1     -12.188   8.918  71.882  0.00  0.00    +0.011 A 
ENDBRANCH  11  16
ENDBRANCH  10  11
ENDBRANCH   1  10
BRANCH   1  19
ATOM     19  C   UNL     1     -12.101  15.074  69.143  0.00  0.00    +0.142 C 
BRANCH  19  20
ATOM     20  N   UNL     1     -12.217  15.553  70.451  0.00  0.00    -0.305 N 
ATOM     21  C   UNL     1     -13.454  15.391  70.990  0.00  0.00    +0.179 A 
ATOM     22  N   UNL     1     -13.441  15.874  72.226  0.00  0.00    -0.222 NA
ATOM     23  C   UNL     1     -12.174  16.019  72.615  0.00  0.00    +0.119 A 
ATOM     24  C   UNL     1     -11.428  15.561  71.557  0.00  0.00    +0.098 A 
ENDBRANCH  19  20
ENDBRANCH   1  19
TORSDOF 6
ENDMDL
MODEL 7
REMARK VINA RESULT:      -6.4      2.830      5.894
REMARK  Name = 
REMARK  6 active torsions:
REMARK  status: ('A' for Active; 'I' for Inactive)
REMARK    1  A    between atoms: C_5  and  C_6
REMARK    2  A    between atoms: C_6  and  O_7
REMARK    3  A    between atoms: O_7  and  C_8
REMARK    4  A    between atoms: C_8  and  C_9
REMARK    5  A    between atoms: C_8  and  C_15
REMARK    6  A    between atoms: C_9  and  N_10
REMARK                            x       y       z     vdW  Elec       q    Type
REMARK                         _______ _______ _______ _____ _____    ______ ____
ROOT
ATOM      1  C   UNL     1     -10.704  14.957  69.288  0.00  0.00    +0.161 C 
ENDROOT
BRANCH   1   2
ATOM      2  C   UNL     1      -9.671  16.210  69.176  0.00  0.00    +0.017 A 
ATOM      3  C   UNL     1      -8.719  15.771  68.255  0.00  0.00    +0.057 A 
ATOM      4 CL   UNL     1      -8.100  14.123  68.303  0.00  0.00    -0.082 Cl
ATOM      5  C   UNL     1      -8.050  16.647  67.420  0.00  0.00    +0.023 A 
ATOM      6  C   UNL     1      -8.475  17.952  67.419  0.00  0.00    +0.058 A 
ATOM      7 CL   UNL     1      -8.073  19.053  66.104  0.00  0.00    -0.082 Cl
ATOM      8  C   UNL     1      -9.435  18.373  68.320  0.00  0.00    +0.011 A 
ATOM      9  C   UNL     1     -10.277  17.409  68.827  0.00  0.00    -0.000 A 
ENDBRANCH   1   2
BRANCH   1  10
ATOM     10  O   UNL     1     -11.481  15.357  68.040  0.00  0.00    -0.345 OA
BRANCH  10  11
ATOM     11  C   UNL     1     -11.958  14.179  67.529  0.00  0.00    +0.169 C 
BRANCH  11  16
ATOM     12 CL   UNL     1     -10.772  11.140  63.566  0.00  0.00    -0.082 Cl
ATOM     13  C   UNL     1     -11.065  12.201  64.068  0.00  0.00    +0.058 A 
ATOM     14  C   UNL     1     -10.229  13.245  64.459  0.00  0.00    +0.011 A 
ATOM     15  C   UNL     1     -10.579  14.116  65.487  0.00  0.00    -0.001 A 
ATOM     16  C   UNL     1     -11.851  14.073  66.049  0.00  0.00    +0.007 A 
ATOM     17  C   UNL     1     -12.785  13.450  65.244  0.00  0.00    -0.001 A 
ATOM     18  C   UNL     1     -12.405  12.513  64.288  0.00  0.00    +0.011 A 
ENDBRANCH  11  16
ENDBRANCH  10  11
ENDBRANCH   1  10
BRANCH   1  19
ATOM     19  C   UNL     1     -11.650  15.765  70.360  0.00  0.00    +0.142 C 
BRANCH  19  20
ATOM     20  N   UNL     1     -12.401  14.886  71.146  0.00  0.00    -0.305 N 
ATOM     21  C   UNL     1     -13.667  15.315  71.396  0.00  0.00    +0.179 A 
ATOM     22  N   UNL     1     -14.279  14.403  72.140  0.00  0.00    -0.222 NA
ATOM     23  C   UNL     1     -13.584  13.267  72.086  0.00  0.00    +0.119 A 
ATOM     24  C   UNL     1     -12.539  13.538  71.237  0.00  0.00    +0.098 A 
ENDBRANCH  19  20
ENDBRANCH   1  19
TORSDOF 6
ENDMDL
MODEL 8
REMARK VINA RESULT:      -6.4      3.346      6.312
REMARK  Name = 
REMARK  6 active torsions:
REMARK  status: ('A' for Active; 'I' for Inactive)
REMARK    1  A    between atoms: C_5  and  C_6
REMARK    2  A    between atoms: C_6  and  O_7
REMARK    3  A    between atoms: O_7  and  C_8
REMARK    4  A    between atoms: C_8  and  C_9
REMARK    5  A    between atoms: C_8  and  C_15
REMARK    6  A    between atoms: C_9  and  N_10
REMARK                            x       y       z     vdW  Elec       q    Type
REMARK                         _______ _______ _______ _____ _____    ______ ____
ROOT
ATOM      1  C   UNL     1     -10.992  14.149  68.846  0.00  0.00    +0.161 C 
ENDROOT
BRANCH   1   2
ATOM      2  C   UNL     1     -11.070  14.490  67.257  0.00  0.00    +0.017 A 
ATOM      3  C   UNL     1      -9.982  13.802  66.718  0.00  0.00    +0.057 A 
ATOM      4 CL   UNL     1      -8.423  13.783  67.538  0.00  0.00    -0.082 Cl
ATOM      5  C   UNL     1      -9.996  13.304  65.429  0.00  0.00    +0.023 A 
ATOM      6  C   UNL     1     -11.186  13.372  64.749  0.00  0.00    +0.058 A 
ATOM      7 CL   UNL     1     -11.497  12.376  63.329  0.00  0.00    -0.082 Cl
ATOM      8  C   UNL     1     -12.266  14.036  65.300  0.00  0.00    +0.011 A 
ATOM      9  C   UNL     1     -12.285  14.163  66.670  0.00  0.00    -0.000 A 
ENDBRANCH   1   2
BRANCH   1  10
ATOM     10  O   UNL     1     -12.071  13.076  68.771  0.00  0.00    -0.345 OA
BRANCH  10  11
ATOM     11  C   UNL     1     -11.698  12.136  69.695  0.00  0.00    +0.169 C 
BRANCH  11  16
ATOM     12 CL   UNL     1      -8.161  10.275  66.474  0.00  0.00    -0.082 Cl
ATOM     13  C   UNL     1      -9.113  10.174  67.213  0.00  0.00    +0.058 A 
ATOM     14  C   UNL     1     -10.470  10.151  66.894  0.00  0.00    +0.011 A 
ATOM     15  C   UNL     1     -11.439  10.590  67.793  0.00  0.00    -0.001 A 
ATOM     16  C   UNL     1     -11.097  10.910  69.102  0.00  0.00    +0.007 A 
ATOM     17  C   UNL     1      -9.895  10.360  69.504  0.00  0.00    -0.001 A 
ATOM     18  C   UNL     1      -8.911  10.021  68.582  0.00  0.00    +0.011 A 
ENDBRANCH  11  16
ENDBRANCH  10  11
ENDBRANCH   1  10
BRANCH   1  19
ATOM     19  C   UNL     1     -11.996  15.394  69.216  0.00  0.00    +0.142 C 
BRANCH  19  20
ATOM     20  N   UNL     1     -12.404  15.347  70.553  0.00  0.00    -0.305 N 
ATOM     21  C   UNL     1     -11.715  16.188  71.369  0.00  0.00    +0.179 A 
ATOM     22  N   UNL     1     -12.190  16.060  72.601  0.00  0.00    -0.222 NA
ATOM     23  C   UNL     1     -13.368  15.438  72.544  0.00  0.00    +0.119 A 
ATOM     24  C   UNL     1     -13.590  15.233  71.204  0.00  0.00    +0.098 A 
ENDBRANCH  19  20
ENDBRANCH   1  19
TORSDOF 6
ENDMDL
MODEL 9
REMARK VINA RESULT:      -6.3      3.268      4.871
REMARK  Name = 
REMARK  6 active torsions:
REMARK  status: ('A' for Active; 'I' for Inactive)
REMARK    1  A    between atoms: C_5  and  C_6
REMARK    2  A    between atoms: C_6  and  O_7
REMARK    3  A    between atoms: O_7  and  C_8
REMARK    4  A    between atoms: C_8  and  C_9
REMARK    5  A    between atoms: C_8  and  C_15
REMARK    6  A    between atoms: C_9  and  N_10
REMARK                            x       y       z     vdW  Elec       q    Type
REMARK                         _______ _______ _______ _____ _____    ______ ____
ROOT
ATOM      1  C   UNL     1      -9.823  15.194  66.583  0.00  0.00    +0.161 C 
ENDROOT
BRANCH   1   2
ATOM      2  C   UNL     1     -10.564  16.625  66.813  0.00  0.00    +0.017 A 
ATOM      3  C   UNL     1     -10.162  17.003  68.095  0.00  0.00    +0.057 A 
ATOM      4 CL   UNL     1     -10.090  15.830  69.407  0.00  0.00    -0.082 Cl
ATOM      5  C   UNL     1     -10.026  18.329  68.458  0.00  0.00    +0.023 A 
ATOM      6  C   UNL     1     -10.146  19.263  67.459  0.00  0.00    +0.058 A 
ATOM      7 CL   UNL     1      -9.536  20.905  67.652  0.00  0.00    -0.082 Cl
ATOM      8  C   UNL     1     -10.523  18.877  66.187  0.00  0.00    +0.011 A 
ATOM      9  C   UNL     1     -10.279  17.569  65.836  0.00  0.00    -0.000 A 
ENDBRANCH   1   2
BRANCH   1  10
ATOM     10  O   UNL     1      -8.504  15.830  66.165  0.00  0.00    -0.345 OA
BRANCH  10  11
ATOM     11  C   UNL     1      -7.575  15.315  67.029  0.00  0.00    +0.169 C 
BRANCH  11  16
ATOM     12 CL   UNL     1      -6.812  19.697  69.591  0.00  0.00    -0.082 Cl
ATOM     13  C   UNL     1      -6.458  18.773  68.896  0.00  0.00    +0.058 A 
ATOM     14  C   UNL     1      -6.346  18.714  67.508  0.00  0.00    +0.011 A 
ATOM     15  C   UNL     1      -6.482  17.514  66.814  0.00  0.00    -0.001 A 
ATOM     16  C   UNL     1      -6.569  16.306  67.499  0.00  0.00    +0.007 A 
ATOM     17  C   UNL     1      -6.090  16.374  68.793  0.00  0.00    -0.001 A 
ATOM     18  C   UNL     1      -6.056  17.578  69.489  0.00  0.00    +0.011 A 
ENDBRANCH  11  16
ENDBRANCH  10  11
ENDBRANCH   1  10
BRANCH   1  19
ATOM     19  C   UNL     1     -10.448  15.054  65.071  0.00  0.00    +0.142 C 
BRANCH  19  20
ATOM     20  N   UNL     1     -11.087  13.824  64.891  0.00  0.00    -0.305 N 
ATOM     21  C   UNL     1     -12.434  13.870  65.074  0.00  0.00    +0.179 A 
ATOM     22  N   UNL     1     -12.927  12.656  64.873  0.00  0.00    -0.222 NA
ATOM     23  C   UNL     1     -12.013  11.922  64.238  0.00  0.00    +0.119 A 
ATOM     24  C   UNL     1     -10.957  12.776  64.036  0.00  0.00    +0.098 A 
ENDBRANCH  19  20
ENDBRANCH   1  19
TORSDOF 6
ENDMDL
