MODEL 1
REMARK VINA RESULT:      -7.3      0.000      0.000
REMARK  Name = 
REMARK  1 active torsions:
REMARK  status: ('A' for Active; 'I' for Inactive)
REMARK    1  A    between atoms: N_17  and  C_18
REMARK                            x       y       z     vdW  Elec       q    Type
REMARK                         _______ _______ _______ _____ _____    ______ ____
ROOT
ATOM      1  C   UNL     1     -12.942   9.051  72.252  0.00  0.00    +0.033 C 
ATOM      2  C   UNL     1     -12.047   9.691  71.262  0.00  0.00    +0.000 A 
ATOM      3  C   UNL     1     -12.371  10.943  70.753  0.00  0.00    +0.115 A 
ATOM      4  N   UNL     1     -13.193  11.659  71.672  0.00  0.00    -0.205 NA
ATOM      5  C   UNL     1     -13.295  13.083  71.776  0.00  0.00    +0.282 A 
ATOM      6  C   UNL     1     -12.785  14.131  70.882  0.00  0.00    +0.092 A 
ATOM      7  C   UNL     1     -12.039  13.978  69.723  0.00  0.00    +0.149 A 
ATOM      8  N   UNL     1     -11.694  12.733  69.129  0.00  0.00    -0.299 N 
ATOM      9  N   UNL     1     -11.267  14.994  69.267  0.00  0.00    -0.227 NA
ATOM     10  C   UNL     1     -10.966  16.037  70.078  0.00  0.00    +0.101 A 
ATOM     11  C   UNL     1     -11.713  16.265  71.205  0.00  0.00    +0.021 A 
ATOM     12  C   UNL     1     -12.702  15.356  71.529  0.00  0.00    +0.009 A 
ATOM     13  O   UNL     1     -14.025  13.529  72.712  0.00  0.00    -0.265 OA
ATOM     14  C   UNL     1     -11.746  11.388  69.617  0.00  0.00    +0.162 A 
ATOM     15  N   UNL     1     -10.821  10.580  69.049  0.00  0.00    -0.225 NA
ATOM     16  C   UNL     1     -10.321   9.494  69.674  0.00  0.00    +0.100 A 
ATOM     17  C   UNL     1     -10.952   8.973  70.796  0.00  0.00    +0.018 A 
ENDROOT
BRANCH   8  18
ATOM     18  C   UNL     1     -11.111  12.832  67.819  0.00  0.00    +0.088 C 
ATOM     19  C   UNL     1     -11.857  13.563  66.748  0.00  0.00    +0.025 C 
ATOM     20  C   UNL     1     -11.578  12.037  66.672  0.00  0.00    +0.025 C 
ENDBRANCH   8  18
TORSDOF 1
ENDMDL
MODEL 2
REMARK VINA RESULT:      -7.0      1.915      4.743
REMARK  Name = 
REMARK  1 active torsions:
REMARK  status: ('A' for Active; 'I' for Inactive)
REMARK    1  A    between atoms: N_17  and  C_18
REMARK                            x       y       z     vdW  Elec       q    Type
REMARK                         _______ _______ _______ _____ _____    ______ ____
ROOT
ATOM      1  C   UNL     1     -10.679  15.808  65.008  0.00  0.00    +0.033 C 
ATOM      2  C   UNL     1     -11.370  14.649  65.619  0.00  0.00    +0.000 A 
ATOM      3  C   UNL     1     -11.233  14.409  66.981  0.00  0.00    +0.115 A 
ATOM      4  N   UNL     1     -10.928  15.617  67.674  0.00  0.00    -0.205 NA
ATOM      5  C   UNL     1     -11.221  15.897  69.047  0.00  0.00    +0.282 A 
ATOM      6  C   UNL     1     -11.686  14.998  70.111  0.00  0.00    +0.092 A 
ATOM      7  C   UNL     1     -11.991  13.648  70.018  0.00  0.00    +0.149 A 
ATOM      8  N   UNL     1     -11.820  12.848  68.855  0.00  0.00    -0.299 N 
ATOM      9  N   UNL     1     -12.821  13.070  70.921  0.00  0.00    -0.227 NA
ATOM     10  C   UNL     1     -13.600  13.839  71.719  0.00  0.00    +0.101 A 
ATOM     11  C   UNL     1     -13.304  15.167  71.890  0.00  0.00    +0.021 A 
ATOM     12  C   UNL     1     -12.262  15.704  71.158  0.00  0.00    +0.009 A 
ATOM     13  O   UNL     1     -10.938  17.062  69.458  0.00  0.00    -0.265 OA
ATOM     14  C   UNL     1     -11.581  13.183  67.485  0.00  0.00    +0.162 A 
ATOM     15  N   UNL     1     -12.062  12.260  66.620  0.00  0.00    -0.225 NA
ATOM     16  C   UNL     1     -12.437  12.568  65.361  0.00  0.00    +0.100 A 
ATOM     17  C   UNL     1     -12.060  13.775  64.788  0.00  0.00    +0.018 A 
ENDROOT
BRANCH   8  18
ATOM     18  C   UNL     1     -11.992  11.436  69.066  0.00  0.00    +0.088 C 
ATOM     19  C   UNL     1     -11.270  10.780  70.201  0.00  0.00    +0.025 C 
ATOM     20  C   UNL     1     -10.964  10.443  68.716  0.00  0.00    +0.025 C 
ENDBRANCH   8  18
TORSDOF 1
ENDMDL
MODEL 3
REMARK VINA RESULT:      -6.9      2.343      4.797
REMARK  Name = 
REMARK  1 active torsions:
REMARK  status: ('A' for Active; 'I' for Inactive)
REMARK    1  A    between atoms: N_17  and  C_18
REMARK                            x       y       z     vdW  Elec       q    Type
REMARK                         _______ _______ _______ _____ _____    ______ ____
ROOT
ATOM      1  C   UNL     1     -12.820  11.937  71.748  0.00  0.00    +0.033 C 
ATOM      2  C   UNL     1     -12.802  13.237  71.039  0.00  0.00    +0.000 A 
ATOM      3  C   UNL     1     -12.061  13.372  69.872  0.00  0.00    +0.115 A 
ATOM      4  N   UNL     1     -11.902  12.108  69.232  0.00  0.00    -0.205 NA
ATOM      5  C   UNL     1     -11.690  11.893  67.833  0.00  0.00    +0.282 A 
ATOM      6  C   UNL     1     -11.379  12.858  66.770  0.00  0.00    +0.092 A 
ATOM      7  C   UNL     1     -11.252  14.236  66.875  0.00  0.00    +0.149 A 
ATOM      8  N   UNL     1     -11.320  14.974  68.088  0.00  0.00    -0.299 N 
ATOM      9  N   UNL     1     -11.420  15.024  65.785  0.00  0.00    -0.227 NA
ATOM     10  C   UNL     1     -12.012  14.528  64.672  0.00  0.00    +0.101 A 
ATOM     11  C   UNL     1     -12.107  13.172  64.494  0.00  0.00    +0.021 A 
ATOM     12  C   UNL     1     -11.676  12.347  65.515  0.00  0.00    +0.009 A 
ATOM     13  O   UNL     1     -11.650  10.686  67.446  0.00  0.00    -0.265 OA
ATOM     14  C   UNL     1     -11.772  14.626  69.401  0.00  0.00    +0.162 A 
ATOM     15  N   UNL     1     -12.242  15.686  70.100  0.00  0.00    -0.225 NA
ATOM     16  C   UNL     1     -13.167  15.562  71.074  0.00  0.00    +0.100 A 
ATOM     17  C   UNL     1     -13.454  14.318  71.621  0.00  0.00    +0.018 A 
ENDROOT
BRANCH   8  18
ATOM     18  C   UNL     1     -10.938  16.355  67.974  0.00  0.00    +0.088 C 
ATOM     19  C   UNL     1      -9.633  16.694  67.325  0.00  0.00    +0.025 C 
ATOM     20  C   UNL     1      -9.911  16.975  68.827  0.00  0.00    +0.025 C 
ENDBRANCH   8  18
TORSDOF 1
ENDMDL
MODEL 4
REMARK VINA RESULT:      -6.9      2.082      4.251
REMARK  Name = 
REMARK  1 active torsions:
REMARK  status: ('A' for Active; 'I' for Inactive)
REMARK    1  A    between atoms: N_17  and  C_18
REMARK                            x       y       z     vdW  Elec       q    Type
REMARK                         _______ _______ _______ _____ _____    ______ ____
ROOT
ATOM      1  C   UNL     1     -12.144   9.604  71.596  0.00  0.00    +0.033 C 
ATOM      2  C   UNL     1     -12.535  10.993  71.263  0.00  0.00    +0.000 A 
ATOM      3  C   UNL     1     -11.945  11.631  70.178  0.00  0.00    +0.115 A 
ATOM      4  N   UNL     1     -11.492  10.674  69.222  0.00  0.00    -0.205 NA
ATOM      5  C   UNL     1     -11.330  10.899  67.818  0.00  0.00    +0.282 A 
ATOM      6  C   UNL     1     -11.373  12.153  67.055  0.00  0.00    +0.092 A 
ATOM      7  C   UNL     1     -11.622  13.434  67.528  0.00  0.00    +0.149 A 
ATOM      8  N   UNL     1     -11.802  13.782  68.894  0.00  0.00    -0.299 N 
ATOM      9  N   UNL     1     -12.077  14.396  66.689  0.00  0.00    -0.227 NA
ATOM     10  C   UNL     1     -12.589  14.059  65.480  0.00  0.00    +0.101 A 
ATOM     11  C   UNL     1     -12.321  12.826  64.944  0.00  0.00    +0.021 A 
ATOM     12  C   UNL     1     -11.607  11.922  65.707  0.00  0.00    +0.009 A 
ATOM     13  O   UNL     1     -10.988   9.896  67.122  0.00  0.00    -0.265 OA
ATOM     14  C   UNL     1     -12.046  12.992  70.063  0.00  0.00    +0.162 A 
ATOM     15  N   UNL     1     -12.737  13.656  71.019  0.00  0.00    -0.225 NA
ATOM     16  C   UNL     1     -13.520  13.027  71.919  0.00  0.00    +0.100 A 
ATOM     17  C   UNL     1     -13.415  11.656  72.110  0.00  0.00    +0.018 A 
ENDROOT
BRANCH   8  18
ATOM     18  C   UNL     1     -11.824  15.195  69.157  0.00  0.00    +0.088 C 
ATOM     19  C   UNL     1     -10.699  16.042  68.652  0.00  0.00    +0.025 C 
ATOM     20  C   UNL     1     -10.966  15.834  70.167  0.00  0.00    +0.025 C 
ENDBRANCH   8  18
TORSDOF 1
ENDMDL
MODEL 5
REMARK VINA RESULT:      -6.8      3.756      7.054
REMARK  Name = 
REMARK  1 active torsions:
REMARK  status: ('A' for Active; 'I' for Inactive)
REMARK    1  A    between atoms: N_17  and  C_18
REMARK                            x       y       z     vdW  Elec       q    Type
REMARK                         _______ _______ _______ _____ _____    ______ ____
ROOT
ATOM      1  C   UNL     1      -8.497  19.148  66.163  0.00  0.00    +0.033 C 
ATOM      2  C   UNL     1      -8.550  17.927  66.999  0.00  0.00    +0.000 A 
ATOM      3  C   UNL     1      -9.663  17.098  66.932  0.00  0.00    +0.115 A 
ATOM      4  N   UNL     1     -10.315  17.236  65.672  0.00  0.00    -0.205 NA
ATOM      5  C   UNL     1     -11.120  16.243  65.027  0.00  0.00    +0.282 A 
ATOM      6  C   UNL     1     -11.645  14.975  65.549  0.00  0.00    +0.092 A 
ATOM      7  C   UNL     1     -11.446  14.418  66.804  0.00  0.00    +0.149 A 
ATOM      8  N   UNL     1     -10.743  15.038  67.873  0.00  0.00    -0.299 N 
ATOM      9  N   UNL     1     -11.591  13.083  66.991  0.00  0.00    -0.227 NA
ATOM     10  C   UNL     1     -11.617  12.246  65.926  0.00  0.00    +0.101 A 
ATOM     11  C   UNL     1     -11.870  12.741  64.673  0.00  0.00    +0.021 A 
ATOM     12  C   UNL     1     -11.996  14.109  64.523  0.00  0.00    +0.009 A 
ATOM     13  O   UNL     1     -11.550  16.530  63.869  0.00  0.00    -0.265 OA
ATOM     14  C   UNL     1      -9.870  16.170  67.919  0.00  0.00    +0.162 A 
ATOM     15  N   UNL     1      -8.957  16.097  68.917  0.00  0.00    -0.225 NA
ATOM     16  C   UNL     1      -7.757  16.710  68.851  0.00  0.00    +0.100 A 
ATOM     17  C   UNL     1      -7.520  17.697  67.903  0.00  0.00    +0.018 A 
ENDROOT
BRANCH   8  18
ATOM     18  C   UNL     1     -10.861  14.367  69.138  0.00  0.00    +0.088 C 
ATOM     19  C   UNL     1     -12.225  14.049  69.666  0.00  0.00    +0.025 C 
ATOM     20  C   UNL     1     -11.274  15.053  70.373  0.00  0.00    +0.025 C 
ENDBRANCH   8  18
TORSDOF 1
ENDMDL
MODEL 6
REMARK VINA RESULT:      -6.7      3.778      5.691
REMARK  Name = 
REMARK  1 active torsions:
REMARK  status: ('A' for Active; 'I' for Inactive)
REMARK    1  A    between atoms: N_17  and  C_18
REMARK                            x       y       z     vdW  Elec       q    Type
REMARK                         _______ _______ _______ _____ _____    ______ ____
ROOT
ATOM      1  C   UNL     1     -12.122  12.551  65.240  0.00  0.00    +0.033 C 
ATOM      2  C   UNL     1     -11.570  13.044  66.523  0.00  0.00    +0.000 A 
ATOM      3  C   UNL     1     -10.754  14.169  66.532  0.00  0.00    +0.115 A 
ATOM      4  N   UNL     1     -11.036  15.000  65.409  0.00  0.00    -0.205 NA
ATOM      5  C   UNL     1     -10.825  16.414  65.333  0.00  0.00    +0.282 A 
ATOM      6  C   UNL     1     -10.103  17.307  66.249  0.00  0.00    +0.092 A 
ATOM      7  C   UNL     1      -9.477  16.982  67.444  0.00  0.00    +0.149 A 
ATOM      8  N   UNL     1      -9.347  15.668  67.970  0.00  0.00    -0.299 N 
ATOM      9  N   UNL     1      -9.263  17.934  68.385  0.00  0.00    -0.227 NA
ATOM     10  C   UNL     1      -9.919  19.117  68.318  0.00  0.00    +0.101 A 
ATOM     11  C   UNL     1     -10.503  19.510  67.141  0.00  0.00    +0.021 A 
ATOM     12  C   UNL     1     -10.483  18.630  66.076  0.00  0.00    +0.009 A 
ATOM     13  O   UNL     1     -11.213  16.987  64.271  0.00  0.00    -0.265 OA
ATOM     14  C   UNL     1      -9.984  14.431  67.635  0.00  0.00    +0.162 A 
ATOM     15  N   UNL     1     -10.070  13.576  68.681  0.00  0.00    -0.225 NA
ATOM     16  C   UNL     1     -11.039  12.643  68.780  0.00  0.00    +0.100 A 
ATOM     17  C   UNL     1     -11.808  12.303  67.674  0.00  0.00    +0.018 A 
ENDROOT
BRANCH   8  18
ATOM     18  C   UNL     1      -8.468  15.558  69.102  0.00  0.00    +0.088 C 
ATOM     19  C   UNL     1      -7.097  16.150  69.016  0.00  0.00    +0.025 C 
ATOM     20  C   UNL     1      -7.334  14.621  69.148  0.00  0.00    +0.025 C 
ENDBRANCH   8  18
TORSDOF 1
ENDMDL
MODEL 7
REMARK VINA RESULT:      -6.7      2.321      3.181
REMARK  Name = 
REMARK  1 active torsions:
REMARK  status: ('A' for Active; 'I' for Inactive)
REMARK    1  A    between atoms: N_17  and  C_18
REMARK                            x       y       z     vdW  Elec       q    Type
REMARK                         _______ _______ _______ _____ _____    ______ ____
ROOT
ATOM      1  C   UNL     1     -12.472  11.592  71.012  0.00  0.00    +0.033 C 
ATOM      2  C   UNL     1     -11.870  11.592  69.659  0.00  0.00    +0.000 A 
ATOM      3  C   UNL     1     -11.958  12.731  68.868  0.00  0.00    +0.115 A 
ATOM      4  N   UNL     1     -12.103  13.893  69.681  0.00  0.00    -0.205 NA
ATOM      5  C   UNL     1     -11.712  15.224  69.325  0.00  0.00    +0.282 A 
ATOM      6  C   UNL     1     -11.283  15.762  68.028  0.00  0.00    +0.092 A 
ATOM      7  C   UNL     1     -11.121  15.081  66.830  0.00  0.00    +0.149 A 
ATOM      8  N   UNL     1     -11.432  13.710  66.619  0.00  0.00    -0.299 N 
ATOM      9  N   UNL     1     -10.306  15.576  65.866  0.00  0.00    -0.227 NA
ATOM     10  C   UNL     1      -9.413  16.550  66.164  0.00  0.00    +0.101 A 
ATOM     11  C   UNL     1      -9.565  17.291  67.308  0.00  0.00    +0.021 A 
ATOM     12  C   UNL     1     -10.585  16.952  68.176  0.00  0.00    +0.009 A 
ATOM     13  O   UNL     1     -11.854  16.112  70.219  0.00  0.00    -0.265 OA
ATOM     14  C   UNL     1     -11.708  12.637  67.524  0.00  0.00    +0.162 A 
ATOM     15  N   UNL     1     -11.368  11.423  67.030  0.00  0.00    -0.225 NA
ATOM     16  C   UNL     1     -11.031  10.384  67.821  0.00  0.00    +0.100 A 
ATOM     17  C   UNL     1     -11.316  10.410  69.181  0.00  0.00    +0.018 A 
ENDROOT
BRANCH   8  18
ATOM     18  C   UNL     1     -11.391  13.289  65.245  0.00  0.00    +0.088 C 
ATOM     19  C   UNL     1     -12.227  14.016  64.239  0.00  0.00    +0.025 C 
ATOM     20  C   UNL     1     -12.478  12.528  64.608  0.00  0.00    +0.025 C 
ENDBRANCH   8  18
TORSDOF 1
ENDMDL
MODEL 8
REMARK VINA RESULT:      -6.1      2.507      3.684
REMARK  Name = 
REMARK  1 active torsions:
REMARK  status: ('A' for Active; 'I' for Inactive)
REMARK    1  A    between atoms: N_17  and  C_18
REMARK                            x       y       z     vdW  Elec       q    Type
REMARK                         _______ _______ _______ _____ _____    ______ ____
ROOT
ATOM      1  C   UNL     1     -10.534   8.051  67.645  0.00  0.00    +0.033 C 
ATOM      2  C   UNL     1     -10.204   9.209  66.783  0.00  0.00    +0.000 A 
ATOM      3  C   UNL     1     -10.921  10.392  66.919  0.00  0.00    +0.115 A 
ATOM      4  N   UNL     1     -11.463  10.499  68.233  0.00  0.00    -0.205 NA
ATOM      5  C   UNL     1     -11.784  11.716  68.915  0.00  0.00    +0.282 A 
ATOM      6  C   UNL     1     -11.846  13.092  68.404  0.00  0.00    +0.092 A 
ATOM      7  C   UNL     1     -11.566  13.542  67.121  0.00  0.00    +0.149 A 
ATOM      8  N   UNL     1     -11.239  12.710  66.015  0.00  0.00    -0.299 N 
ATOM      9  N   UNL     1     -11.221  14.835  66.910  0.00  0.00    -0.227 NA
ATOM     10  C   UNL     1     -10.843  15.617  67.949  0.00  0.00    +0.101 A 
ATOM     11  C   UNL     1     -11.150  15.245  69.233  0.00  0.00    +0.021 A 
ATOM     12  C   UNL     1     -11.760  14.021  69.430  0.00  0.00    +0.009 A 
ATOM     13  O   UNL     1     -12.187  11.604  70.112  0.00  0.00    -0.265 OA
ATOM     14  C   UNL     1     -10.855  11.335  65.927  0.00  0.00    +0.162 A 
ATOM     15  N   UNL     1     -10.071  11.068  64.856  0.00  0.00    -0.225 NA
ATOM     16  C   UNL     1      -9.183  10.054  64.838  0.00  0.00    +0.100 A 
ATOM     17  C   UNL     1      -9.245   9.044  65.791  0.00  0.00    +0.018 A 
ENDROOT
BRANCH   8  18
ATOM     18  C   UNL     1     -11.211  13.383  64.745  0.00  0.00    +0.088 C 
ATOM     19  C   UNL     1     -12.355  14.271  64.370  0.00  0.00    +0.025 C 
ATOM     20  C   UNL     1     -12.031  12.963  63.598  0.00  0.00    +0.025 C 
ENDBRANCH   8  18
TORSDOF 1
ENDMDL
MODEL 9
REMARK VINA RESULT:      -5.8      1.993      5.146
REMARK  Name = 
REMARK  1 active torsions:
REMARK  status: ('A' for Active; 'I' for Inactive)
REMARK    1  A    between atoms: N_17  and  C_18
REMARK                            x       y       z     vdW  Elec       q    Type
REMARK                         _______ _______ _______ _____ _____    ______ ____
ROOT
ATOM      1  C   UNL     1     -11.752  14.011  68.008  0.00  0.00    +0.033 C 
ATOM      2  C   UNL     1     -11.463  12.577  67.774  0.00  0.00    +0.000 A 
ATOM      3  C   UNL     1     -11.336  11.717  68.858  0.00  0.00    +0.115 A 
ATOM      4  N   UNL     1     -12.061  12.216  69.980  0.00  0.00    -0.205 NA
ATOM      5  C   UNL     1     -12.605  11.433  71.047  0.00  0.00    +0.282 A 
ATOM      6  C   UNL     1     -12.394  10.017  71.377  0.00  0.00    +0.092 A 
ATOM      7  C   UNL     1     -11.628   9.084  70.692  0.00  0.00    +0.149 A 
ATOM      8  N   UNL     1     -10.818   9.364  69.557  0.00  0.00    -0.299 N 
ATOM      9  N   UNL     1     -11.881   7.759  70.828  0.00  0.00    -0.227 NA
ATOM     10  C   UNL     1     -13.053   7.342  71.366  0.00  0.00    +0.101 A 
ATOM     11  C   UNL     1     -13.815   8.212  72.103  0.00  0.00    +0.021 A 
ATOM     12  C   UNL     1     -13.404   9.527  72.192  0.00  0.00    +0.009 A 
ATOM     13  O   UNL     1     -13.286  12.057  71.916  0.00  0.00    -0.265 OA
ATOM     14  C   UNL     1     -10.752  10.491  68.678  0.00  0.00    +0.162 A 
ATOM     15  N   UNL     1     -10.335  10.169  67.431  0.00  0.00    -0.225 NA
ATOM     16  C   UNL     1     -10.685  10.881  66.340  0.00  0.00    +0.100 A 
ATOM     17  C   UNL     1     -11.229  12.152  66.472  0.00  0.00    +0.018 A 
ENDROOT
BRANCH   8  18
ATOM     18  C   UNL     1      -9.949   8.290  69.160  0.00  0.00    +0.088 C 
ATOM     19  C   UNL     1      -8.946   7.769  70.141  0.00  0.00    +0.025 C 
ATOM     20  C   UNL     1      -8.529   8.489  68.829  0.00  0.00    +0.025 C 
ENDBRANCH   8  18
TORSDOF 1
ENDMDL
