MODEL 1
REMARK VINA RESULT:      -7.7      0.000      0.000
REMARK  Name = 
REMARK  3 active torsions:
REMARK  status: ('A' for Active; 'I' for Inactive)
REMARK    1  A    between atoms: C_5  and  S_6
REMARK    2  A    between atoms: S_6  and  N_9
REMARK    3  A    between atoms: N_12  and  N_13
REMARK                            x       y       z     vdW  Elec       q    Type
REMARK                         _______ _______ _______ _____ _____    ______ ____
ROOT
ATOM      1  N   UNL     1     -10.818  14.903  65.093  0.00  0.00    -0.070 NA
ATOM      2  C   UNL     1     -10.928  16.172  64.885  0.00  0.00    +0.387 C 
ATOM      3  N   UNL     1     -10.032  17.017  65.573  0.00  0.00    -0.105 NA
ATOM      4  O   UNL     1     -11.762  16.572  63.861  0.00  0.00    -0.243 OA
ENDROOT
BRANCH   3   5
ATOM      5  N   UNL     1      -9.833  16.817  66.932  0.00  0.00    -0.183 NA
ATOM      6  C   UNL     1     -10.564  17.737  67.764  0.00  0.00    +0.094 C 
ATOM      7  C   UNL     1     -10.652  19.075  67.040  0.00  0.00    +0.019 C 
ATOM      8  C   UNL     1      -9.398  19.846  67.434  0.00  0.00    +0.002 C 
ATOM      9  C   UNL     1      -8.231  19.076  66.828  0.00  0.00    +0.002 C 
ATOM     10  C   UNL     1      -7.840  17.967  67.794  0.00  0.00    +0.019 C 
ATOM     11  C   UNL     1      -8.447  16.682  67.298  0.00  0.00    +0.094 C 
ENDBRANCH   3   5
BRANCH   1  12
ATOM     12  S   UNL     1     -12.059  13.774  64.657  0.00  0.00    +0.104 S 
ATOM     13  O   UNL     1     -12.423  13.865  63.213  0.00  0.00    -0.146 OA
ATOM     14  O   UNL     1     -13.249  14.091  65.522  0.00  0.00    -0.146 OA
BRANCH  12  19
ATOM     15  C   UNL     1      -8.911   9.125  66.481  0.00  0.00    +0.031 C 
ATOM     16  C   UNL     1      -9.790  10.191  65.938  0.00  0.00    -0.022 A 
ATOM     17  C   UNL     1     -10.673  10.785  66.826  0.00  0.00    -0.003 A 
ATOM     18  C   UNL     1     -11.442  11.837  66.406  0.00  0.00    +0.020 A 
ATOM     19  C   UNL     1     -11.462  12.183  65.081  0.00  0.00    +0.129 A 
ATOM     20  C   UNL     1     -10.952  11.303  64.165  0.00  0.00    +0.020 A 
ATOM     21  C   UNL     1     -10.071  10.327  64.603  0.00  0.00    -0.003 A 
ENDBRANCH  12  19
ENDBRANCH   1  12
TORSDOF 3
ENDMDL
MODEL 2
REMARK VINA RESULT:      -6.9      1.502      2.260
REMARK  Name = 
REMARK  3 active torsions:
REMARK  status: ('A' for Active; 'I' for Inactive)
REMARK    1  A    between atoms: C_5  and  S_6
REMARK    2  A    between atoms: S_6  and  N_9
REMARK    3  A    between atoms: N_12  and  N_13
REMARK                            x       y       z     vdW  Elec       q    Type
REMARK                         _______ _______ _______ _____ _____    ______ ____
ROOT
ATOM      1  N   UNL     1     -10.608  15.331  65.675  0.00  0.00    -0.070 NA
ATOM      2  C   UNL     1     -10.936  16.446  65.113  0.00  0.00    +0.387 C 
ATOM      3  N   UNL     1     -10.380  17.625  65.651  0.00  0.00    -0.105 NA
ATOM      4  O   UNL     1     -11.626  16.370  63.920  0.00  0.00    -0.243 OA
ENDROOT
BRANCH   3   5
ATOM      5  N   UNL     1     -10.404  17.810  67.026  0.00  0.00    -0.183 NA
ATOM      6  C   UNL     1     -10.612  19.179  67.422  0.00  0.00    +0.094 C 
ATOM      7  C   UNL     1      -9.952  20.084  66.389  0.00  0.00    +0.019 C 
ATOM      8  C   UNL     1      -8.510  20.259  66.848  0.00  0.00    +0.002 C 
ATOM      9  C   UNL     1      -7.866  18.883  66.727  0.00  0.00    +0.002 C 
ATOM     10  C   UNL     1      -8.166  18.103  67.999  0.00  0.00    +0.019 C 
ATOM     11  C   UNL     1      -9.312  17.170  67.713  0.00  0.00    +0.094 C 
ENDBRANCH   3   5
BRANCH   1  12
ATOM     12  S   UNL     1     -11.484  13.859  65.411  0.00  0.00    +0.104 S 
ATOM     13  O   UNL     1     -11.027  13.141  64.186  0.00  0.00    -0.146 OA
ATOM     14  O   UNL     1     -12.935  14.240  65.288  0.00  0.00    -0.146 OA
BRANCH  12  19
ATOM     15  C   UNL     1     -12.146  10.298  70.074  0.00  0.00    +0.031 C 
ATOM     16  C   UNL     1     -11.850  11.251  68.974  0.00  0.00    -0.022 A 
ATOM     17  C   UNL     1     -11.394  10.708  67.783  0.00  0.00    -0.003 A 
ATOM     18  C   UNL     1     -11.194  11.527  66.704  0.00  0.00    +0.020 A 
ATOM     19  C   UNL     1     -11.278  12.886  66.853  0.00  0.00    +0.129 A 
ATOM     20  C   UNL     1     -11.270  13.410  68.118  0.00  0.00    +0.020 A 
ATOM     21  C   UNL     1     -11.606  12.584  69.180  0.00  0.00    -0.003 A 
ENDBRANCH  12  19
ENDBRANCH   1  12
TORSDOF 3
ENDMDL
MODEL 3
REMARK VINA RESULT:      -6.4      2.728      7.418
REMARK  Name = 
REMARK  3 active torsions:
REMARK  status: ('A' for Active; 'I' for Inactive)
REMARK    1  A    between atoms: C_5  and  S_6
REMARK    2  A    between atoms: S_6  and  N_9
REMARK    3  A    between atoms: N_12  and  N_13
REMARK                            x       y       z     vdW  Elec       q    Type
REMARK                         _______ _______ _______ _____ _____    ______ ____
ROOT
ATOM      1  N   UNL     1     -10.275  16.696  66.416  0.00  0.00    -0.070 NA
ATOM      2  C   UNL     1      -9.582  15.609  66.360  0.00  0.00    +0.387 C 
ATOM      3  N   UNL     1     -10.066  14.580  65.523  0.00  0.00    -0.105 NA
ATOM      4  O   UNL     1      -8.335  15.626  66.950  0.00  0.00    -0.243 OA
ENDROOT
BRANCH   3   5
ATOM      5  N   UNL     1     -11.409  14.236  65.595  0.00  0.00    -0.183 NA
ATOM      6  C   UNL     1     -11.652  13.008  66.307  0.00  0.00    +0.094 C 
ATOM      7  C   UNL     1     -10.479  12.068  66.063  0.00  0.00    +0.019 C 
ATOM      8  C   UNL     1     -10.818  11.299  64.793  0.00  0.00    +0.002 C 
ATOM      9  C   UNL     1     -10.817  12.330  63.671  0.00  0.00    +0.002 C 
ATOM     10  C   UNL     1     -12.190  12.987  63.628  0.00  0.00    +0.019 C 
ATOM     11  C   UNL     1     -12.093  14.315  64.330  0.00  0.00    +0.094 C 
ENDBRANCH   3   5
BRANCH   1  12
ATOM     12  S   UNL     1     -10.056  17.880  67.662  0.00  0.00    +0.104 S 
ATOM     13  O   UNL     1     -10.138  17.285  69.027  0.00  0.00    -0.146 OA
ATOM     14  O   UNL     1     -11.135  18.911  67.470  0.00  0.00    -0.146 OA
BRANCH  12  19
ATOM     15  C   UNL     1      -5.461  21.557  67.179  0.00  0.00    +0.031 C 
ATOM     16  C   UNL     1      -6.543  20.540  67.194  0.00  0.00    -0.022 A 
ATOM     17  C   UNL     1      -6.659  19.769  68.341  0.00  0.00    -0.003 A 
ATOM     18  C   UNL     1      -7.695  18.881  68.451  0.00  0.00    +0.020 A 
ATOM     19  C   UNL     1      -8.501  18.633  67.371  0.00  0.00    +0.129 A 
ATOM     20  C   UNL     1      -8.087  19.049  66.134  0.00  0.00    +0.020 A 
ATOM     21  C   UNL     1      -7.128  20.047  66.056  0.00  0.00    -0.003 A 
ENDBRANCH  12  19
ENDBRANCH   1  12
TORSDOF 3
ENDMDL
MODEL 4
REMARK VINA RESULT:      -6.4      3.522      6.493
REMARK  Name = 
REMARK  3 active torsions:
REMARK  status: ('A' for Active; 'I' for Inactive)
REMARK    1  A    between atoms: C_5  and  S_6
REMARK    2  A    between atoms: S_6  and  N_9
REMARK    3  A    between atoms: N_12  and  N_13
REMARK                            x       y       z     vdW  Elec       q    Type
REMARK                         _______ _______ _______ _____ _____    ______ ____
ROOT
ATOM      1  N   UNL     1     -10.630  15.683  66.847  0.00  0.00    -0.070 NA
ATOM      2  C   UNL     1      -9.751  14.856  66.389  0.00  0.00    +0.387 C 
ATOM      3  N   UNL     1     -10.192  13.912  65.437  0.00  0.00    -0.105 NA
ATOM      4  O   UNL     1      -8.431  15.100  66.707  0.00  0.00    -0.243 OA
ENDROOT
BRANCH   3   5
ATOM      5  N   UNL     1     -11.361  13.208  65.685  0.00  0.00    -0.183 NA
ATOM      6  C   UNL     1     -11.139  11.880  66.196  0.00  0.00    +0.094 C 
ATOM      7  C   UNL     1      -9.856  11.335  65.580  0.00  0.00    +0.019 C 
ATOM      8  C   UNL     1     -10.271  10.670  64.273  0.00  0.00    +0.002 C 
ATOM      9  C   UNL     1     -10.767  11.797  63.374  0.00  0.00    +0.002 C 
ATOM     10  C   UNL     1     -12.232  12.054  63.698  0.00  0.00    +0.019 C 
ATOM     11  C   UNL     1     -12.306  13.257  64.599  0.00  0.00    +0.094 C 
ENDBRANCH   3   5
BRANCH   1  12
ATOM     12  S   UNL     1     -10.368  16.624  68.279  0.00  0.00    +0.104 S 
ATOM     13  O   UNL     1     -10.965  17.987  68.177  0.00  0.00    -0.146 OA
ATOM     14  O   UNL     1      -8.877  16.714  68.466  0.00  0.00    -0.146 OA
BRANCH  12  19
ATOM     15  C   UNL     1     -13.847  13.695  72.044  0.00  0.00    +0.031 C 
ATOM     16  C   UNL     1     -12.871  14.450  71.219  0.00  0.00    -0.022 A 
ATOM     17  C   UNL     1     -12.178  13.730  70.257  0.00  0.00    -0.003 A 
ATOM     18  C   UNL     1     -11.335  14.389  69.403  0.00  0.00    +0.020 A 
ATOM     19  C   UNL     1     -11.048  15.712  69.611  0.00  0.00    +0.129 A 
ATOM     20  C   UNL     1     -11.371  16.272  70.818  0.00  0.00    +0.020 A 
ATOM     21  C   UNL     1     -12.328  15.648  71.604  0.00  0.00    -0.003 A 
ENDBRANCH  12  19
ENDBRANCH   1  12
TORSDOF 3
ENDMDL
MODEL 5
REMARK VINA RESULT:      -6.3      3.735      5.209
REMARK  Name = 
REMARK  3 active torsions:
REMARK  status: ('A' for Active; 'I' for Inactive)
REMARK    1  A    between atoms: C_5  and  S_6
REMARK    2  A    between atoms: S_6  and  N_9
REMARK    3  A    between atoms: N_12  and  N_13
REMARK                            x       y       z     vdW  Elec       q    Type
REMARK                         _______ _______ _______ _____ _____    ______ ____
ROOT
ATOM      1  N   UNL     1      -9.974  15.049  68.433  0.00  0.00    -0.070 NA
ATOM      2  C   UNL     1      -9.993  15.808  67.389  0.00  0.00    +0.387 C 
ATOM      3  N   UNL     1      -9.080  16.883  67.360  0.00  0.00    -0.105 NA
ATOM      4  O   UNL     1     -10.748  15.383  66.315  0.00  0.00    -0.243 OA
ENDROOT
BRANCH   3   5
ATOM      5  N   UNL     1      -8.962  17.691  68.482  0.00  0.00    -0.183 NA
ATOM      6  C   UNL     1     -10.052  18.619  68.643  0.00  0.00    +0.094 C 
ATOM      7  C   UNL     1     -10.535  19.039  67.261  0.00  0.00    +0.019 C 
ATOM      8  C   UNL     1      -9.683  20.239  66.867  0.00  0.00    +0.002 C 
ATOM      9  C   UNL     1      -8.263  19.707  66.713  0.00  0.00    +0.002 C 
ATOM     10  C   UNL     1      -7.605  19.701  68.085  0.00  0.00    +0.019 C 
ATOM     11  C   UNL     1      -7.663  18.296  68.624  0.00  0.00    +0.094 C 
ENDBRANCH   3   5
BRANCH   1  12
ATOM     12  S   UNL     1     -11.261  13.951  68.811  0.00  0.00    +0.104 S 
ATOM     13  O   UNL     1     -10.783  12.545  68.950  0.00  0.00    -0.146 OA
ATOM     14  O   UNL     1     -12.261  14.060  67.692  0.00  0.00    -0.146 OA
BRANCH  12  19
ATOM     15  C   UNL     1     -12.515  15.610  74.337  0.00  0.00    +0.031 C 
ATOM     16  C   UNL     1     -12.357  15.183  72.924  0.00  0.00    -0.022 A 
ATOM     17  C   UNL     1     -11.904  16.141  72.029  0.00  0.00    -0.003 A 
ATOM     18  C   UNL     1     -11.649  15.782  70.733  0.00  0.00    +0.020 A 
ATOM     19  C   UNL     1     -12.003  14.536  70.286  0.00  0.00    +0.129 A 
ATOM     20  C   UNL     1     -12.858  13.784  71.047  0.00  0.00    +0.020 A 
ATOM     21  C   UNL     1     -12.995  14.093  72.392  0.00  0.00    -0.003 A 
ENDBRANCH  12  19
ENDBRANCH   1  12
TORSDOF 3
ENDMDL
MODEL 6
REMARK VINA RESULT:      -6.2      2.710      3.380
REMARK  Name = 
REMARK  3 active torsions:
REMARK  status: ('A' for Active; 'I' for Inactive)
REMARK    1  A    between atoms: C_5  and  S_6
REMARK    2  A    between atoms: S_6  and  N_9
REMARK    3  A    between atoms: N_12  and  N_13
REMARK                            x       y       z     vdW  Elec       q    Type
REMARK                         _______ _______ _______ _____ _____    ______ ____
ROOT
ATOM      1  N   UNL     1     -11.424  15.524  68.011  0.00  0.00    -0.070 NA
ATOM      2  C   UNL     1     -10.971  16.482  68.748  0.00  0.00    +0.387 C 
ATOM      3  N   UNL     1     -10.752  17.727  68.121  0.00  0.00    -0.105 NA
ATOM      4  O   UNL     1     -10.939  16.268  70.111  0.00  0.00    -0.243 OA
ENDROOT
BRANCH   3   5
ATOM      5  N   UNL     1     -10.078  17.757  66.908  0.00  0.00    -0.183 NA
ATOM      6  C   UNL     1      -8.645  17.821  67.045  0.00  0.00    +0.094 C 
ATOM      7  C   UNL     1      -8.317  18.630  68.294  0.00  0.00    +0.019 C 
ATOM      8  C   UNL     1      -8.255  20.085  67.845  0.00  0.00    +0.002 C 
ATOM      9  C   UNL     1      -9.674  20.450  67.424  0.00  0.00    +0.002 C 
ATOM     10  C   UNL     1      -9.866  20.021  65.977  0.00  0.00    +0.019 C 
ATOM     11  C   UNL     1     -10.612  18.713  65.974  0.00  0.00    +0.094 C 
ENDBRANCH   3   5
BRANCH   1  12
ATOM     12  S   UNL     1     -11.374  13.864  68.505  0.00  0.00    +0.104 S 
ATOM     13  O   UNL     1     -12.423  13.543  69.515  0.00  0.00    -0.146 OA
ATOM     14  O   UNL     1     -10.001  13.627  69.076  0.00  0.00    -0.146 OA
BRANCH  12  19
ATOM     15  C   UNL     1     -10.735  11.189  63.280  0.00  0.00    +0.031 C 
ATOM     16  C   UNL     1     -11.052  11.830  64.581  0.00  0.00    -0.022 A 
ATOM     17  C   UNL     1     -10.632  11.166  65.723  0.00  0.00    -0.003 A 
ATOM     18  C   UNL     1     -10.812  11.754  66.947  0.00  0.00    +0.020 A 
ATOM     19  C   UNL     1     -11.551  12.902  67.052  0.00  0.00    +0.129 A 
ATOM     20  C   UNL     1     -12.334  13.277  65.992  0.00  0.00    +0.020 A 
ATOM     21  C   UNL     1     -12.043  12.764  64.738  0.00  0.00    -0.003 A 
ENDBRANCH  12  19
ENDBRANCH   1  12
TORSDOF 3
ENDMDL
MODEL 7
REMARK VINA RESULT:      -6.2      4.296      8.029
REMARK  Name = 
REMARK  3 active torsions:
REMARK  status: ('A' for Active; 'I' for Inactive)
REMARK    1  A    between atoms: C_5  and  S_6
REMARK    2  A    between atoms: S_6  and  N_9
REMARK    3  A    between atoms: N_12  and  N_13
REMARK                            x       y       z     vdW  Elec       q    Type
REMARK                         _______ _______ _______ _____ _____    ______ ____
ROOT
ATOM      1  N   UNL     1     -11.570  12.357  68.787  0.00  0.00    -0.070 NA
ATOM      2  C   UNL     1     -11.623  11.680  67.689  0.00  0.00    +0.387 C 
ATOM      3  N   UNL     1     -11.395  10.291  67.780  0.00  0.00    -0.105 NA
ATOM      4  O   UNL     1     -12.100  12.332  66.570  0.00  0.00    -0.243 OA
ENDROOT
BRANCH   3   5
ATOM      5  N   UNL     1     -10.310   9.837  68.516  0.00  0.00    -0.183 NA
ATOM      6  C   UNL     1      -9.104   9.699  67.742  0.00  0.00    +0.094 C 
ATOM      7  C   UNL     1      -9.485   9.285  66.326  0.00  0.00    +0.019 C 
ATOM      8  C   UNL     1      -9.550   7.762  66.340  0.00  0.00    +0.002 C 
ATOM      9  C   UNL     1     -10.720   7.406  67.250  0.00  0.00    +0.002 C 
ATOM     10  C   UNL     1     -10.216   7.387  68.686  0.00  0.00    +0.019 C 
ATOM     11  C   UNL     1     -10.607   8.689  69.333  0.00  0.00    +0.094 C 
ENDBRANCH   3   5
BRANCH   1  12
ATOM     12  S   UNL     1     -11.430  14.085  68.812  0.00  0.00    +0.104 S 
ATOM     13  O   UNL     1     -12.098  14.723  67.641  0.00  0.00    -0.146 OA
ATOM     14  O   UNL     1      -9.958  14.396  68.813  0.00  0.00    -0.146 OA
BRANCH  12  19
ATOM     15  C   UNL     1     -12.489  15.573  74.426  0.00  0.00    +0.031 C 
ATOM     16  C   UNL     1     -12.381  15.189  72.996  0.00  0.00    -0.022 A 
ATOM     17  C   UNL     1     -11.964  16.175  72.115  0.00  0.00    -0.003 A 
ATOM     18  C   UNL     1     -11.754  15.856  70.800  0.00  0.00    +0.020 A 
ATOM     19  C   UNL     1     -12.120  14.623  70.329  0.00  0.00    +0.129 A 
ATOM     20  C   UNL     1     -12.945  13.845  71.098  0.00  0.00    +0.020 A 
ATOM     21  C   UNL     1     -13.034  14.113  72.455  0.00  0.00    -0.003 A 
ENDBRANCH  12  19
ENDBRANCH   1  12
TORSDOF 3
ENDMDL
MODEL 8
REMARK VINA RESULT:      -6.2      2.712      7.398
REMARK  Name = 
REMARK  3 active torsions:
REMARK  status: ('A' for Active; 'I' for Inactive)
REMARK    1  A    between atoms: C_5  and  S_6
REMARK    2  A    between atoms: S_6  and  N_9
REMARK    3  A    between atoms: N_12  and  N_13
REMARK                            x       y       z     vdW  Elec       q    Type
REMARK                         _______ _______ _______ _____ _____    ______ ____
ROOT
ATOM      1  N   UNL     1      -9.951  16.965  65.927  0.00  0.00    -0.070 NA
ATOM      2  C   UNL     1      -9.726  15.973  66.721  0.00  0.00    +0.387 C 
ATOM      3  N   UNL     1     -10.015  14.681  66.232  0.00  0.00    -0.105 NA
ATOM      4  O   UNL     1      -9.034  16.241  67.884  0.00  0.00    -0.243 OA
ENDROOT
BRANCH   3   5
ATOM      5  N   UNL     1     -11.229  14.462  65.598  0.00  0.00    -0.183 NA
ATOM      6  C   UNL     1     -12.285  14.064  66.493  0.00  0.00    +0.094 C 
ATOM      7  C   UNL     1     -11.677  13.234  67.616  0.00  0.00    +0.019 C 
ATOM      8  C   UNL     1     -11.674  11.794  67.117  0.00  0.00    +0.002 C 
ATOM      9  C   UNL     1     -10.698  11.764  65.946  0.00  0.00    +0.002 C 
ATOM     10  C   UNL     1     -11.447  12.188  64.691  0.00  0.00    +0.019 C 
ATOM     11  C   UNL     1     -11.126  13.634  64.424  0.00  0.00    +0.094 C 
ENDBRANCH   3   5
BRANCH   1  12
ATOM     12  S   UNL     1     -10.032  18.605  66.483  0.00  0.00    +0.104 S 
ATOM     13  O   UNL     1     -10.824  18.737  67.740  0.00  0.00    -0.146 OA
ATOM     14  O   UNL     1     -10.665  19.403  65.374  0.00  0.00    -0.146 OA
BRANCH  12  19
ATOM     15  C   UNL     1      -4.920  21.559  66.499  0.00  0.00    +0.031 C 
ATOM     16  C   UNL     1      -6.120  20.685  66.522  0.00  0.00    -0.022 A 
ATOM     17  C   UNL     1      -6.961  20.807  67.617  0.00  0.00    -0.003 A 
ATOM     18  C   UNL     1      -8.131  20.096  67.648  0.00  0.00    +0.020 A 
ATOM     19  C   UNL     1      -8.380  19.147  66.692  0.00  0.00    +0.129 A 
ATOM     20  C   UNL     1      -7.344  18.723  65.903  0.00  0.00    +0.020 A 
ATOM     21  C   UNL     1      -6.224  19.531  65.788  0.00  0.00    -0.003 A 
ENDBRANCH  12  19
ENDBRANCH   1  12
TORSDOF 3
ENDMDL
MODEL 9
REMARK VINA RESULT:      -6.1      3.130      4.187
REMARK  Name = 
REMARK  3 active torsions:
REMARK  status: ('A' for Active; 'I' for Inactive)
REMARK    1  A    between atoms: C_5  and  S_6
REMARK    2  A    between atoms: S_6  and  N_9
REMARK    3  A    between atoms: N_12  and  N_13
REMARK                            x       y       z     vdW  Elec       q    Type
REMARK                         _______ _______ _______ _____ _____    ______ ____
ROOT
ATOM      1  N   UNL     1      -9.756  17.217  67.452  0.00  0.00    -0.070 NA
ATOM      2  C   UNL     1      -9.468  18.324  68.051  0.00  0.00    +0.387 C 
ATOM      3  N   UNL     1      -8.484  19.140  67.453  0.00  0.00    -0.105 NA
ATOM      4  O   UNL     1     -10.285  18.707  69.095  0.00  0.00    -0.243 OA
ENDROOT
BRANCH   3   5
ATOM      5  N   UNL     1      -7.300  18.557  67.026  0.00  0.00    -0.183 NA
ATOM      6  C   UNL     1      -6.256  18.575  68.019  0.00  0.00    +0.094 C 
ATOM      7  C   UNL     1      -6.404  19.843  68.850  0.00  0.00    +0.019 C 
ATOM      8  C   UNL     1      -5.608  20.917  68.117  0.00  0.00    +0.002 C 
ATOM      9  C   UNL     1      -6.338  21.147  66.800  0.00  0.00    +0.002 C 
ATOM     10  C   UNL     1      -5.848  20.113  65.797  0.00  0.00    +0.019 C 
ATOM     11  C   UNL     1      -6.870  19.009  65.728  0.00  0.00    +0.094 C 
ENDBRANCH   3   5
BRANCH   1  12
ATOM     12  S   UNL     1     -10.626  15.935  68.229  0.00  0.00    +0.104 S 
ATOM     13  O   UNL     1     -11.926  16.395  68.795  0.00  0.00    -0.146 OA
ATOM     14  O   UNL     1      -9.731  15.410  69.320  0.00  0.00    -0.146 OA
BRANCH  12  19
ATOM     15  C   UNL     1     -12.025  12.713  63.483  0.00  0.00    +0.031 C 
ATOM     16  C   UNL     1     -11.656  13.385  64.754  0.00  0.00    -0.022 A 
ATOM     17  C   UNL     1     -10.413  13.997  64.799  0.00  0.00    -0.003 A 
ATOM     18  C   UNL     1     -10.055  14.713  65.910  0.00  0.00    +0.020 A 
ATOM     19  C   UNL     1     -10.845  14.678  67.029  0.00  0.00    +0.129 A 
ATOM     20  C   UNL     1     -11.811  13.711  67.121  0.00  0.00    +0.020 A 
ATOM     21  C   UNL     1     -12.246  13.095  65.958  0.00  0.00    -0.003 A 
ENDBRANCH  12  19
ENDBRANCH   1  12
TORSDOF 3
ENDMDL
