MODEL 1
REMARK VINA RESULT:      -6.6      0.000      0.000
REMARK  Name = 
REMARK  5 active torsions:
REMARK  status: ('A' for Active; 'I' for Inactive)
REMARK    1  A    between atoms: C_6  and  O_7
REMARK    2  A    between atoms: O_7  and  C_8
REMARK    3  A    between atoms: C_8  and  C_10
REMARK    4  A    between atoms: C_10  and  C_12
REMARK    5  A    between atoms: C_10  and  C_18
REMARK                            x       y       z     vdW  Elec       q    Type
REMARK                         _______ _______ _______ _____ _____    ______ ____
ROOT
ATOM      1  C   UNL     1     -10.492  16.510  68.158  0.00  0.00    +0.233 C 
ATOM      2  O   UNL     1     -11.892  16.572  68.046  0.00  0.00    -0.210 OA
ENDROOT
BRANCH   1   3
ATOM      3  C   UNL     1      -9.923  17.854  68.039  0.00  0.00    +0.015 A 
ATOM      4  C   UNL     1     -10.563  18.982  67.600  0.00  0.00    -0.001 A 
ATOM      5  C   UNL     1      -9.843  19.970  66.949  0.00  0.00    -0.000 A 
ATOM      6  C   UNL     1      -8.475  20.023  67.140  0.00  0.00    -0.000 A 
ATOM      7  C   UNL     1      -7.881  19.103  67.986  0.00  0.00    -0.000 A 
ATOM      8  C   UNL     1      -8.651  18.093  68.554  0.00  0.00    -0.001 A 
ENDBRANCH   1   3
BRANCH   1   9
ATOM      9  C   UNL     1      -9.984  15.491  67.208  0.00  0.00    +0.043 C 
ATOM     10  C   UNL     1      -9.504  15.981  65.891  0.00  0.00    +0.003 C 
ATOM     11  C   UNL     1     -10.772  16.060  65.067  0.00  0.00    +0.000 C 
ATOM     12  C   UNL     1     -11.384  14.700  65.386  0.00  0.00    +0.000 C 
ATOM     13  C   UNL     1     -11.076  14.510  66.841  0.00  0.00    +0.003 C 
ENDBRANCH   1   9
BRANCH   1  14
ATOM     14  C   UNL     1     -10.231  15.969  69.530  0.00  0.00    +0.349 C 
ATOM     15  O   UNL     1      -9.142  15.352  69.737  0.00  0.00    -0.247 OA
BRANCH  14  16
ATOM     16  O   UNL     1     -11.060  16.154  70.613  0.00  0.00    -0.444 OA
BRANCH  16  20
ATOM     17  C   UNL     1     -15.159  14.969  71.578  0.00  0.00    +0.171 C 
ATOM     18  N   UNL     1     -13.890  14.780  71.774  0.00  0.00    +0.309 N 
ATOM     19  C   UNL     1     -13.135  15.110  70.590  0.00  0.00    +0.153 C 
ATOM     20  C   UNL     1     -11.599  14.791  71.173  0.00  0.00    +0.229 C 
ATOM     21  C   UNL     1     -11.915  15.484  72.662  0.00  0.00    +0.111 C 
ATOM     22  C   UNL     1     -13.325  15.848  72.574  0.00  0.00    +0.113 C 
ATOM     23  C   UNL     1     -13.501  13.540  72.385  0.00  0.00    +0.171 C 
ENDBRANCH  16  20
ENDBRANCH  14  16
ENDBRANCH   1  14
TORSDOF 5
ENDMDL
MODEL 2
REMARK VINA RESULT:      -6.5      3.584      5.697
REMARK  Name = 
REMARK  5 active torsions:
REMARK  status: ('A' for Active; 'I' for Inactive)
REMARK    1  A    between atoms: C_6  and  O_7
REMARK    2  A    between atoms: O_7  and  C_8
REMARK    3  A    between atoms: C_8  and  C_10
REMARK    4  A    between atoms: C_10  and  C_12
REMARK    5  A    between atoms: C_10  and  C_18
REMARK                            x       y       z     vdW  Elec       q    Type
REMARK                         _______ _______ _______ _____ _____    ______ ____
ROOT
ATOM      1  C   UNL     1     -10.118  17.290  66.822  0.00  0.00    +0.233 C 
ATOM      2  O   UNL     1     -11.118  17.530  67.781  0.00  0.00    -0.210 OA
ENDROOT
BRANCH   1   3
ATOM      3  C   UNL     1      -9.034  16.506  67.419  0.00  0.00    +0.015 A 
ATOM      4  C   UNL     1      -7.938  15.996  66.777  0.00  0.00    -0.001 A 
ATOM      5  C   UNL     1      -7.363  14.820  67.231  0.00  0.00    -0.000 A 
ATOM      6  C   UNL     1      -7.601  14.431  68.535  0.00  0.00    -0.000 A 
ATOM      7  C   UNL     1      -8.386  15.236  69.341  0.00  0.00    -0.000 A 
ATOM      8  C   UNL     1      -8.991  16.367  68.804  0.00  0.00    -0.001 A 
ENDBRANCH   1   3
BRANCH   1   9
ATOM      9  C   UNL     1      -9.735  18.581  66.201  0.00  0.00    +0.043 C 
ATOM     10  C   UNL     1      -8.355  19.065  66.457  0.00  0.00    +0.003 C 
ATOM     11  C   UNL     1      -8.479  19.786  67.783  0.00  0.00    +0.000 C 
ATOM     12  C   UNL     1      -9.725  20.625  67.517  0.00  0.00    +0.000 C 
ATOM     13  C   UNL     1     -10.604  19.704  66.725  0.00  0.00    +0.003 C 
ENDBRANCH   1   9
BRANCH   1  14
ATOM     14  C   UNL     1     -10.788  16.491  65.747  0.00  0.00    +0.349 C 
ATOM     15  O   UNL     1     -10.963  17.035  64.614  0.00  0.00    -0.247 OA
BRANCH  14  16
ATOM     16  O   UNL     1     -11.168  15.175  65.873  0.00  0.00    -0.444 OA
BRANCH  16  20
ATOM     17  C   UNL     1     -12.702  11.816  63.528  0.00  0.00    +0.171 C 
ATOM     18  N   UNL     1     -11.672  12.401  64.058  0.00  0.00    +0.309 N 
ATOM     19  C   UNL     1     -11.867  13.829  64.114  0.00  0.00    +0.153 C 
ATOM     20  C   UNL     1     -10.423  14.252  64.847  0.00  0.00    +0.229 C 
ATOM     21  C   UNL     1     -10.473  12.963  65.911  0.00  0.00    +0.111 C 
ATOM     22  C   UNL     1     -11.664  12.228  65.498  0.00  0.00    +0.113 C 
ATOM     23  C   UNL     1     -10.378  12.008  63.577  0.00  0.00    +0.171 C 
ENDBRANCH  16  20
ENDBRANCH  14  16
ENDBRANCH   1  14
TORSDOF 5
ENDMDL
MODEL 3
REMARK VINA RESULT:      -6.4      3.102      6.381
REMARK  Name = 
REMARK  5 active torsions:
REMARK  status: ('A' for Active; 'I' for Inactive)
REMARK    1  A    between atoms: C_6  and  O_7
REMARK    2  A    between atoms: O_7  and  C_8
REMARK    3  A    between atoms: C_8  and  C_10
REMARK    4  A    between atoms: C_10  and  C_12
REMARK    5  A    between atoms: C_10  and  C_18
REMARK                            x       y       z     vdW  Elec       q    Type
REMARK                         _______ _______ _______ _____ _____    ______ ____
ROOT
ATOM      1  C   UNL     1     -11.396  14.621  65.749  0.00  0.00    +0.233 C 
ATOM      2  O   UNL     1     -12.750  14.885  66.021  0.00  0.00    -0.210 OA
ENDROOT
BRANCH   1   3
ATOM      3  C   UNL     1     -11.289  13.614  64.691  0.00  0.00    +0.015 A 
ATOM      4  C   UNL     1     -12.301  13.142  63.898  0.00  0.00    -0.001 A 
ATOM      5  C   UNL     1     -12.252  11.841  63.426  0.00  0.00    -0.000 A 
ATOM      6  C   UNL     1     -11.027  11.203  63.377  0.00  0.00    -0.000 A 
ATOM      7  C   UNL     1      -9.897  11.891  63.782  0.00  0.00    -0.000 A 
ATOM      8  C   UNL     1     -10.024  13.172  64.312  0.00  0.00    -0.001 A 
ENDBRANCH   1   3
BRANCH   1   9
ATOM      9  C   UNL     1     -10.707  14.315  67.026  0.00  0.00    +0.043 C 
ATOM     10  C   UNL     1     -10.314  12.901  67.254  0.00  0.00    +0.003 C 
ATOM     11  C   UNL     1     -11.570  12.281  67.830  0.00  0.00    +0.000 C 
ATOM     12  C   UNL     1     -11.929  13.328  68.880  0.00  0.00    +0.000 C 
ATOM     13  C   UNL     1     -11.602  14.627  68.205  0.00  0.00    +0.003 C 
ENDBRANCH   1   9
BRANCH   1  14
ATOM     14  C   UNL     1     -10.831  15.922  65.270  0.00  0.00    +0.349 C 
ATOM     15  O   UNL     1     -11.359  16.471  64.255  0.00  0.00    -0.247 OA
BRANCH  14  16
ATOM     16  O   UNL     1      -9.817  16.611  65.894  0.00  0.00    -0.444 OA
BRANCH  16  20
ATOM     17  C   UNL     1      -7.615  19.749  68.003  0.00  0.00    +0.171 C 
ATOM     18  N   UNL     1      -8.754  19.333  67.539  0.00  0.00    +0.309 N 
ATOM     19  C   UNL     1      -8.560  18.505  66.374  0.00  0.00    +0.153 C 
ATOM     20  C   UNL     1     -10.161  18.132  66.060  0.00  0.00    +0.229 C 
ATOM     21  C   UNL     1     -10.528  17.913  67.677  0.00  0.00    +0.111 C 
ATOM     22  C   UNL     1      -9.285  18.261  68.357  0.00  0.00    +0.113 C 
ATOM     23  C   UNL     1      -9.795  20.311  67.391  0.00  0.00    +0.171 C 
ENDBRANCH  16  20
ENDBRANCH  14  16
ENDBRANCH   1  14
TORSDOF 5
ENDMDL
MODEL 4
REMARK VINA RESULT:      -6.3      2.227      6.258
REMARK  Name = 
REMARK  5 active torsions:
REMARK  status: ('A' for Active; 'I' for Inactive)
REMARK    1  A    between atoms: C_6  and  O_7
REMARK    2  A    between atoms: O_7  and  C_8
REMARK    3  A    between atoms: C_8  and  C_10
REMARK    4  A    between atoms: C_10  and  C_12
REMARK    5  A    between atoms: C_10  and  C_18
REMARK                            x       y       z     vdW  Elec       q    Type
REMARK                         _______ _______ _______ _____ _____    ______ ____
ROOT
ATOM      1  C   UNL     1     -11.781  14.990  69.920  0.00  0.00    +0.233 C 
ATOM      2  O   UNL     1     -12.804  15.913  69.638  0.00  0.00    -0.210 OA
ENDROOT
BRANCH   1   3
ATOM      3  C   UNL     1     -11.836  13.880  68.966  0.00  0.00    +0.015 A 
ATOM      4  C   UNL     1     -11.766  12.543  69.254  0.00  0.00    -0.001 A 
ATOM      5  C   UNL     1     -11.208  11.671  68.334  0.00  0.00    -0.000 A 
ATOM      6  C   UNL     1     -11.145  12.062  67.010  0.00  0.00    -0.000 A 
ATOM      7  C   UNL     1     -11.656  13.297  66.651  0.00  0.00    -0.000 A 
ATOM      8  C   UNL     1     -12.140  14.154  67.635  0.00  0.00    -0.001 A 
ENDBRANCH   1   3
BRANCH   1   9
ATOM      9  C   UNL     1     -11.851  14.629  71.357  0.00  0.00    +0.043 C 
ATOM     10  C   UNL     1     -13.000  13.792  71.785  0.00  0.00    +0.003 C 
ATOM     11  C   UNL     1     -14.097  14.807  72.028  0.00  0.00    +0.000 C 
ATOM     12  C   UNL     1     -13.335  15.833  72.859  0.00  0.00    +0.000 C 
ATOM     13  C   UNL     1     -11.981  15.870  72.214  0.00  0.00    +0.003 C 
ENDBRANCH   1   9
BRANCH   1  14
ATOM     14  C   UNL     1     -10.504  15.751  69.740  0.00  0.00    +0.349 C 
ATOM     15  O   UNL     1      -9.409  15.115  69.818  0.00  0.00    -0.247 OA
BRANCH  14  16
ATOM     16  O   UNL     1     -10.429  17.088  69.424  0.00  0.00    -0.444 OA
BRANCH  16  20
ATOM     17  C   UNL     1      -9.552  20.725  67.157  0.00  0.00    +0.171 C 
ATOM     18  N   UNL     1      -9.405  19.440  67.265  0.00  0.00    +0.309 N 
ATOM     19  C   UNL     1      -9.430  19.037  68.649  0.00  0.00    +0.153 C 
ATOM     20  C   UNL     1      -9.249  17.386  68.434  0.00  0.00    +0.229 C 
ATOM     21  C   UNL     1     -10.287  17.345  67.123  0.00  0.00    +0.111 C 
ATOM     22  C   UNL     1     -10.631  18.748  66.920  0.00  0.00    +0.113 C 
ATOM     23  C   UNL     1      -8.349  18.837  66.502  0.00  0.00    +0.171 C 
ENDBRANCH  16  20
ENDBRANCH  14  16
ENDBRANCH   1  14
TORSDOF 5
ENDMDL
MODEL 5
REMARK VINA RESULT:      -6.3      2.617      5.789
REMARK  Name = 
REMARK  5 active torsions:
REMARK  status: ('A' for Active; 'I' for Inactive)
REMARK    1  A    between atoms: C_6  and  O_7
REMARK    2  A    between atoms: O_7  and  C_8
REMARK    3  A    between atoms: C_8  and  C_10
REMARK    4  A    between atoms: C_10  and  C_12
REMARK    5  A    between atoms: C_10  and  C_18
REMARK                            x       y       z     vdW  Elec       q    Type
REMARK                         _______ _______ _______ _____ _____    ______ ____
ROOT
ATOM      1  C   UNL     1     -10.411  13.422  67.004  0.00  0.00    +0.233 C 
ATOM      2  O   UNL     1      -9.775  12.252  66.554  0.00  0.00    -0.210 OA
ENDROOT
BRANCH   1   3
ATOM      3  C   UNL     1     -11.300  13.105  68.125  0.00  0.00    +0.015 A 
ATOM      4  C   UNL     1     -11.961  13.996  68.928  0.00  0.00    -0.001 A 
ATOM      5  C   UNL     1     -12.222  13.667  70.248  0.00  0.00    -0.000 A 
ATOM      6  C   UNL     1     -12.226  12.332  70.605  0.00  0.00    -0.000 A 
ATOM      7  C   UNL     1     -11.987  11.378  69.632  0.00  0.00    -0.000 A 
ATOM      8  C   UNL     1     -11.661  11.778  68.340  0.00  0.00    -0.001 A 
ENDBRANCH   1   3
BRANCH   1   9
ATOM      9  C   UNL     1     -11.031  14.102  65.841  0.00  0.00    +0.043 C 
ATOM     10  C   UNL     1     -12.497  13.940  65.672  0.00  0.00    +0.003 C 
ATOM     11  C   UNL     1     -12.616  12.632  64.918  0.00  0.00    +0.000 C 
ATOM     12  C   UNL     1     -11.573  12.853  63.828  0.00  0.00    +0.000 C 
ATOM     13  C   UNL     1     -10.465  13.566  64.544  0.00  0.00    +0.003 C 
ENDBRANCH   1   9
BRANCH   1  14
ATOM     14  C   UNL     1      -9.305  14.316  67.472  0.00  0.00    +0.349 C 
ATOM     15  O   UNL     1      -8.476  13.858  68.316  0.00  0.00    -0.247 OA
BRANCH  14  16
ATOM     16  O   UNL     1      -9.074  15.587  66.998  0.00  0.00    -0.444 OA
BRANCH  16  20
ATOM     17  C   UNL     1     -10.518  19.691  66.537  0.00  0.00    +0.171 C 
ATOM     18  N   UNL     1      -9.869  18.834  67.264  0.00  0.00    +0.309 N 
ATOM     19  C   UNL     1     -10.387  17.502  67.070  0.00  0.00    +0.153 C 
ATOM     20  C   UNL     1      -9.349  16.676  68.092  0.00  0.00    +0.229 C 
ATOM     21  C   UNL     1      -8.014  17.558  67.607  0.00  0.00    +0.111 C 
ATOM     22  C   UNL     1      -8.573  18.540  66.684  0.00  0.00    +0.113 C 
ATOM     23  C   UNL     1      -9.649  19.178  68.641  0.00  0.00    +0.171 C 
ENDBRANCH  16  20
ENDBRANCH  14  16
ENDBRANCH   1  14
TORSDOF 5
ENDMDL
MODEL 6
REMARK VINA RESULT:      -6.0      2.088      2.889
REMARK  Name = 
REMARK  5 active torsions:
REMARK  status: ('A' for Active; 'I' for Inactive)
REMARK    1  A    between atoms: C_6  and  O_7
REMARK    2  A    between atoms: O_7  and  C_8
REMARK    3  A    between atoms: C_8  and  C_10
REMARK    4  A    between atoms: C_10  and  C_12
REMARK    5  A    between atoms: C_10  and  C_18
REMARK                            x       y       z     vdW  Elec       q    Type
REMARK                         _______ _______ _______ _____ _____    ______ ____
ROOT
ATOM      1  C   UNL     1     -10.337  15.198  67.395  0.00  0.00    +0.233 C 
ATOM      2  O   UNL     1     -10.780  15.984  66.318  0.00  0.00    -0.210 OA
ENDROOT
BRANCH   1   3
ATOM      3  C   UNL     1      -8.877  15.264  67.493  0.00  0.00    +0.015 A 
ATOM      4  C   UNL     1      -8.083  14.621  68.404  0.00  0.00    -0.001 A 
ATOM      5  C   UNL     1      -6.893  15.203  68.809  0.00  0.00    -0.000 A 
ATOM      6  C   UNL     1      -6.316  16.159  67.995  0.00  0.00    -0.000 A 
ATOM      7  C   UNL     1      -6.937  16.484  66.801  0.00  0.00    -0.000 A 
ATOM      8  C   UNL     1      -8.166  15.914  66.486  0.00  0.00    -0.001 A 
ENDBRANCH   1   3
BRANCH   1   9
ATOM      9  C   UNL     1     -10.929  13.844  67.270  0.00  0.00    +0.043 C 
ATOM     10  C   UNL     1     -10.135  12.829  66.531  0.00  0.00    +0.003 C 
ATOM     11  C   UNL     1     -10.508  13.082  65.086  0.00  0.00    +0.000 C 
ATOM     12  C   UNL     1     -12.026  13.165  65.210  0.00  0.00    +0.000 C 
ATOM     13  C   UNL     1     -12.232  13.899  66.501  0.00  0.00    +0.003 C 
ENDBRANCH   1   9
BRANCH   1  14
ATOM     14  C   UNL     1     -10.954  15.814  68.612  0.00  0.00    +0.349 C 
ATOM     15  O   UNL     1     -11.284  17.038  68.566  0.00  0.00    -0.247 OA
BRANCH  14  16
ATOM     16  O   UNL     1     -11.260  15.128  69.766  0.00  0.00    -0.444 OA
BRANCH  16  20
ATOM     17  C   UNL     1     -12.428  15.435  73.971  0.00  0.00    +0.171 C 
ATOM     18  N   UNL     1     -12.808  15.322  72.734  0.00  0.00    +0.309 N 
ATOM     19  C   UNL     1     -11.864  15.959  71.849  0.00  0.00    +0.153 C 
ATOM     20  C   UNL     1     -12.613  15.616  70.392  0.00  0.00    +0.229 C 
ATOM     21  C   UNL     1     -13.008  14.057  70.851  0.00  0.00    +0.111 C 
ATOM     22  C   UNL     1     -12.551  13.985  72.235  0.00  0.00    +0.113 C 
ATOM     23  C   UNL     1     -14.179  15.628  72.441  0.00  0.00    +0.171 C 
ENDBRANCH  16  20
ENDBRANCH  14  16
ENDBRANCH   1  14
TORSDOF 5
ENDMDL
MODEL 7
REMARK VINA RESULT:      -5.9      2.905      6.103
REMARK  Name = 
REMARK  5 active torsions:
REMARK  status: ('A' for Active; 'I' for Inactive)
REMARK    1  A    between atoms: C_6  and  O_7
REMARK    2  A    between atoms: O_7  and  C_8
REMARK    3  A    between atoms: C_8  and  C_10
REMARK    4  A    between atoms: C_10  and  C_12
REMARK    5  A    between atoms: C_10  and  C_18
REMARK                            x       y       z     vdW  Elec       q    Type
REMARK                         _______ _______ _______ _____ _____    ______ ____
ROOT
ATOM      1  C   UNL     1     -10.172  14.891  66.494  0.00  0.00    +0.233 C 
ATOM      2  O   UNL     1      -9.070  14.033  66.335  0.00  0.00    -0.210 OA
ENDROOT
BRANCH   1   3
ATOM      3  C   UNL     1     -10.670  14.810  67.870  0.00  0.00    +0.015 A 
ATOM      4  C   UNL     1     -10.529  13.758  68.735  0.00  0.00    -0.001 A 
ATOM      5  C   UNL     1     -11.506  13.518  69.688  0.00  0.00    -0.000 A 
ATOM      6  C   UNL     1     -12.347  14.554  70.046  0.00  0.00    -0.000 A 
ATOM      7  C   UNL     1     -12.171  15.793  69.454  0.00  0.00    -0.000 A 
ATOM      8  C   UNL     1     -11.217  15.950  68.454  0.00  0.00    -0.001 A 
ENDBRANCH   1   3
BRANCH   1   9
ATOM      9  C   UNL     1     -11.154  14.608  65.419  0.00  0.00    +0.043 C 
ATOM     10  C   UNL     1     -12.437  13.983  65.829  0.00  0.00    +0.003 C 
ATOM     11  C   UNL     1     -12.108  12.506  65.862  0.00  0.00    +0.000 C 
ATOM     12  C   UNL     1     -11.388  12.360  64.526  0.00  0.00    +0.000 C 
ATOM     13  C   UNL     1     -10.585  13.622  64.422  0.00  0.00    +0.003 C 
ENDBRANCH   1   9
BRANCH   1  14
ATOM     14  C   UNL     1      -9.643  16.266  66.227  0.00  0.00    +0.349 C 
ATOM     15  O   UNL     1     -10.314  17.033  65.471  0.00  0.00    -0.247 OA
BRANCH  14  16
ATOM     16  O   UNL     1      -8.509  16.792  66.802  0.00  0.00    -0.444 OA
BRANCH  16  20
ATOM     17  C   UNL     1      -5.314  19.565  67.918  0.00  0.00    +0.171 C 
ATOM     18  N   UNL     1      -6.572  19.396  67.644  0.00  0.00    +0.309 N 
ATOM     19  C   UNL     1      -6.752  18.308  66.714  0.00  0.00    +0.153 C 
ATOM     20  C   UNL     1      -8.421  18.345  66.603  0.00  0.00    +0.229 C 
ATOM     21  C   UNL     1      -8.622  18.606  68.242  0.00  0.00    +0.111 C 
ATOM     22  C   UNL     1      -7.254  18.730  68.735  0.00  0.00    +0.113 C 
ATOM     23  C   UNL     1      -7.333  20.570  67.321  0.00  0.00    +0.171 C 
ENDBRANCH  16  20
ENDBRANCH  14  16
ENDBRANCH   1  14
TORSDOF 5
ENDMDL
MODEL 8
REMARK VINA RESULT:      -5.8      3.131      6.091
REMARK  Name = 
REMARK  5 active torsions:
REMARK  status: ('A' for Active; 'I' for Inactive)
REMARK    1  A    between atoms: C_6  and  O_7
REMARK    2  A    between atoms: O_7  and  C_8
REMARK    3  A    between atoms: C_8  and  C_10
REMARK    4  A    between atoms: C_10  and  C_12
REMARK    5  A    between atoms: C_10  and  C_18
REMARK                            x       y       z     vdW  Elec       q    Type
REMARK                         _______ _______ _______ _____ _____    ______ ____
ROOT
ATOM      1  C   UNL     1     -10.984  13.604  67.219  0.00  0.00    +0.233 C 
ATOM      2  O   UNL     1     -12.162  13.976  67.891  0.00  0.00    -0.210 OA
ENDROOT
BRANCH   1   3
ATOM      3  C   UNL     1     -11.293  13.262  65.828  0.00  0.00    +0.015 A 
ATOM      4  C   UNL     1     -12.536  13.094  65.279  0.00  0.00    -0.001 A 
ATOM      5  C   UNL     1     -12.708  12.206  64.229  0.00  0.00    -0.000 A 
ATOM      6  C   UNL     1     -11.604  11.854  63.476  0.00  0.00    -0.000 A 
ATOM      7  C   UNL     1     -10.376  12.414  63.786  0.00  0.00    -0.000 A 
ATOM      8  C   UNL     1     -10.258  13.244  64.896  0.00  0.00    -0.001 A 
ENDBRANCH   1   3
BRANCH   1   9
ATOM      9  C   UNL     1     -10.290  12.564  68.016  0.00  0.00    +0.043 C 
ATOM     10  C   UNL     1      -9.972  11.288  67.325  0.00  0.00    +0.003 C 
ATOM     11  C   UNL     1     -11.250  10.489  67.467  0.00  0.00    +0.000 C 
ATOM     12  C   UNL     1     -11.533  10.696  68.951  0.00  0.00    +0.000 C 
ATOM     13  C   UNL     1     -11.147  12.126  69.184  0.00  0.00    +0.003 C 
ENDBRANCH   1   9
BRANCH   1  14
ATOM     14  C   UNL     1     -10.108  14.817  67.259  0.00  0.00    +0.349 C 
ATOM     15  O   UNL     1      -8.875  14.660  67.514  0.00  0.00    -0.247 OA
BRANCH  14  16
ATOM     16  O   UNL     1     -10.528  16.095  66.969  0.00  0.00    -0.444 OA
BRANCH  16  20
ATOM     17  C   UNL     1      -9.763  19.878  69.027  0.00  0.00    +0.171 C 
ATOM     18  N   UNL     1      -9.543  19.134  67.987  0.00  0.00    +0.309 N 
ATOM     19  C   UNL     1      -9.613  17.736  68.334  0.00  0.00    +0.153 C 
ATOM     20  C   UNL     1      -9.320  17.085  66.820  0.00  0.00    +0.229 C 
ATOM     21  C   UNL     1     -10.287  18.208  66.044  0.00  0.00    +0.111 C 
ATOM     22  C   UNL     1     -10.706  19.097  67.122  0.00  0.00    +0.113 C 
ATOM     23  C   UNL     1      -8.415  19.475  67.167  0.00  0.00    +0.171 C 
ENDBRANCH  16  20
ENDBRANCH  14  16
ENDBRANCH   1  14
TORSDOF 5
ENDMDL
MODEL 9
REMARK VINA RESULT:      -5.8      3.331      5.519
REMARK  Name = 
REMARK  5 active torsions:
REMARK  status: ('A' for Active; 'I' for Inactive)
REMARK    1  A    between atoms: C_6  and  O_7
REMARK    2  A    between atoms: O_7  and  C_8
REMARK    3  A    between atoms: C_8  and  C_10
REMARK    4  A    between atoms: C_10  and  C_12
REMARK    5  A    between atoms: C_10  and  C_18
REMARK                            x       y       z     vdW  Elec       q    Type
REMARK                         _______ _______ _______ _____ _____    ______ ____
ROOT
ATOM      1  C   UNL     1     -10.488  15.037  66.014  0.00  0.00    +0.233 C 
ATOM      2  O   UNL     1      -9.834  14.565  64.863  0.00  0.00    -0.210 OA
ENDROOT
BRANCH   1   3
ATOM      3  C   UNL     1      -9.659  14.786  67.196  0.00  0.00    +0.015 A 
ATOM      4  C   UNL     1     -10.017  14.966  68.505  0.00  0.00    -0.001 A 
ATOM      5  C   UNL     1      -9.053  15.309  69.439  0.00  0.00    -0.000 A 
ATOM      6  C   UNL     1      -7.730  15.033  69.152  0.00  0.00    -0.000 A 
ATOM      7  C   UNL     1      -7.421  14.411  67.955  0.00  0.00    -0.000 A 
ATOM      8  C   UNL     1      -8.428  14.156  67.030  0.00  0.00    -0.001 A 
ENDBRANCH   1   3
BRANCH   1   9
ATOM      9  C   UNL     1     -11.863  14.481  66.041  0.00  0.00    +0.043 C 
ATOM     10  C   UNL     1     -12.096  13.308  66.922  0.00  0.00    +0.003 C 
ATOM     11  C   UNL     1     -11.682  12.137  66.055  0.00  0.00    +0.000 C 
ATOM     12  C   UNL     1     -12.410  12.488  64.762  0.00  0.00    +0.000 C 
ATOM     13  C   UNL     1     -12.262  13.978  64.671  0.00  0.00    +0.003 C 
ENDBRANCH   1   9
BRANCH   1  14
ATOM     14  C   UNL     1     -10.637  16.512  65.804  0.00  0.00    +0.349 C 
ATOM     15  O   UNL     1     -10.888  16.932  64.634  0.00  0.00    -0.247 OA
BRANCH  14  16
ATOM     16  O   UNL     1     -10.592  17.453  66.808  0.00  0.00    -0.444 OA
BRANCH  16  20
ATOM     17  C   UNL     1      -7.050  19.117  68.764  0.00  0.00    +0.171 C 
ATOM     18  N   UNL     1      -8.063  19.319  67.978  0.00  0.00    +0.309 N 
ATOM     19  C   UNL     1      -8.413  18.110  67.273  0.00  0.00    +0.153 C 
ATOM     20  C   UNL     1      -9.720  18.693  66.405  0.00  0.00    +0.229 C 
ATOM     21  C   UNL     1     -10.309  19.575  67.698  0.00  0.00    +0.111 C 
ATOM     22  C   UNL     1      -9.300  19.375  68.733  0.00  0.00    +0.113 C 
ATOM     23  C   UNL     1      -8.021  20.487  67.145  0.00  0.00    +0.171 C 
ENDBRANCH  16  20
ENDBRANCH  14  16
ENDBRANCH   1  14
TORSDOF 5
ENDMDL
