MODEL 1
REMARK VINA RESULT:      -5.9      0.000      0.000
REMARK  Name = 
REMARK  5 active torsions:
REMARK  status: ('A' for Active; 'I' for Inactive)
REMARK    1  A    between atoms: C_2  and  C_3
REMARK    2  A    between atoms: C_4  and  C_5
REMARK    3  A    between atoms: C_6  and  C_8
REMARK    4  A    between atoms: C_9  and  C_10
REMARK    5  A    between atoms: C_19  and  C_20
REMARK                            x       y       z     vdW  Elec       q    Type
REMARK                         _______ _______ _______ _____ _____    ______ ____
ROOT
ATOM      1  C   UNL     1     -10.782  16.696  69.151  0.00  0.00    -0.004 C 
ATOM      2  C   UNL     1     -11.021  15.414  68.901  0.00  0.00    -0.022 C 
ATOM      3  C   UNL     1     -12.000  14.738  69.799  0.00  0.00    +0.031 C 
ENDROOT
BRANCH   1   5
ATOM      4  C   UNL     1      -9.565  18.749  68.576  0.00  0.00    -0.004 C 
ATOM      5  C   UNL     1      -9.684  17.446  68.585  0.00  0.00    -0.001 C 
BRANCH   4   7
ATOM      6  C   UNL     1     -10.526  19.689  66.455  0.00  0.00    +0.031 C 
ATOM      7  C   UNL     1      -9.355  19.554  67.370  0.00  0.00    -0.015 C 
ATOM      8  C   UNL     1      -8.166  19.853  66.897  0.00  0.00    +0.082 C 
BRANCH   8   9
ATOM      9  C   UNL     1      -7.035  19.791  67.794  0.00  0.00    +0.388 C 
ATOM     10  O   UNL     1      -6.219  18.658  67.712  0.00  0.00    -0.241 OA
ATOM     11  O   UNL     1      -6.466  20.830  68.245  0.00  0.00    -0.241 OA
ENDBRANCH   8   9
ENDBRANCH   4   7
ENDBRANCH   1   5
BRANCH   2  12
ATOM     12  C   UNL     1      -9.866  14.610  68.487  0.00  0.00    -0.005 C 
ATOM     13  C   UNL     1      -9.706  14.453  67.190  0.00  0.00    -0.005 C 
BRANCH  13  14
ATOM     14  C   UNL     1     -10.880  14.006  66.430  0.00  0.00    -0.031 C 
ATOM     15  C   UNL     1     -11.003  12.521  66.293  0.00  0.00    +0.018 C 
ATOM     16  C   UNL     1      -9.606  11.991  65.995  0.00  0.00    +0.004 C 
ATOM     17  C   UNL     1     -11.455  11.876  67.575  0.00  0.00    +0.004 C 
ATOM     18  C   UNL     1     -11.928  12.116  65.185  0.00  0.00    +0.004 C 
ATOM     19  C   UNL     1     -11.744  13.009  63.967  0.00  0.00    +0.005 C 
ATOM     20  C   UNL     1     -12.224  14.389  64.387  0.00  0.00    +0.022 C 
ATOM     21  C   UNL     1     -11.334  14.843  65.503  0.00  0.00    -0.048 C 
ATOM     22  C   UNL     1     -10.644  16.151  65.264  0.00  0.00    +0.026 C 
ENDBRANCH  13  14
ENDBRANCH   2  12
TORSDOF 5
ENDMDL
MODEL 2
REMARK VINA RESULT:      -5.9      1.666      2.008
REMARK  Name = 
REMARK  5 active torsions:
REMARK  status: ('A' for Active; 'I' for Inactive)
REMARK    1  A    between atoms: C_2  and  C_3
REMARK    2  A    between atoms: C_4  and  C_5
REMARK    3  A    between atoms: C_6  and  C_8
REMARK    4  A    between atoms: C_9  and  C_10
REMARK    5  A    between atoms: C_19  and  C_20
REMARK                            x       y       z     vdW  Elec       q    Type
REMARK                         _______ _______ _______ _____ _____    ______ ____
ROOT
ATOM      1  C   UNL     1     -10.052  15.616  69.296  0.00  0.00    -0.004 C 
ATOM      2  C   UNL     1     -10.467  14.504  68.702  0.00  0.00    -0.022 C 
ATOM      3  C   UNL     1     -11.485  13.701  69.440  0.00  0.00    +0.031 C 
ENDROOT
BRANCH   1   5
ATOM      4  C   UNL     1      -8.905  17.547  68.306  0.00  0.00    -0.004 C 
ATOM      5  C   UNL     1      -8.893  16.375  68.887  0.00  0.00    -0.001 C 
BRANCH   4   7
ATOM      6  C   UNL     1      -7.004  17.072  66.734  0.00  0.00    +0.031 C 
ATOM      7  C   UNL     1      -8.243  17.849  67.034  0.00  0.00    -0.015 C 
ATOM      8  C   UNL     1      -8.463  18.946  66.346  0.00  0.00    +0.082 C 
BRANCH   8   9
ATOM      9  C   UNL     1      -9.692  19.668  66.580  0.00  0.00    +0.388 C 
ATOM     10  O   UNL     1      -9.620  20.798  67.401  0.00  0.00    -0.241 OA
ATOM     11  O   UNL     1     -10.651  19.669  65.750  0.00  0.00    -0.241 OA
ENDBRANCH   8   9
ENDBRANCH   4   7
ENDBRANCH   1   5
BRANCH   2  12
ATOM     12  C   UNL     1      -9.445  13.738  67.979  0.00  0.00    -0.005 C 
ATOM     13  C   UNL     1      -9.482  13.822  66.666  0.00  0.00    -0.005 C 
BRANCH  13  14
ATOM     14  C   UNL     1     -10.781  13.583  66.025  0.00  0.00    -0.031 C 
ATOM     15  C   UNL     1     -11.017  12.167  65.606  0.00  0.00    +0.018 C 
ATOM     16  C   UNL     1      -9.716  11.671  64.986  0.00  0.00    +0.004 C 
ATOM     17  C   UNL     1     -11.313  11.276  66.780  0.00  0.00    +0.004 C 
ATOM     18  C   UNL     1     -12.120  12.037  64.598  0.00  0.00    +0.004 C 
ATOM     19  C   UNL     1     -12.063  13.165  63.578  0.00  0.00    +0.005 C 
ATOM     20  C   UNL     1     -12.387  14.437  64.345  0.00  0.00    +0.022 C 
ATOM     21  C   UNL     1     -11.315  14.614  65.376  0.00  0.00    -0.048 C 
ATOM     22  C   UNL     1     -10.586  15.921  65.307  0.00  0.00    +0.026 C 
ENDBRANCH  13  14
ENDBRANCH   2  12
TORSDOF 5
ENDMDL
MODEL 3
REMARK VINA RESULT:      -5.8      5.020      7.503
REMARK  Name = 
REMARK  5 active torsions:
REMARK  status: ('A' for Active; 'I' for Inactive)
REMARK    1  A    between atoms: C_2  and  C_3
REMARK    2  A    between atoms: C_4  and  C_5
REMARK    3  A    between atoms: C_6  and  C_8
REMARK    4  A    between atoms: C_9  and  C_10
REMARK    5  A    between atoms: C_19  and  C_20
REMARK                            x       y       z     vdW  Elec       q    Type
REMARK                         _______ _______ _______ _____ _____    ______ ____
ROOT
ATOM      1  C   UNL     1     -11.998  11.199  69.582  0.00  0.00    -0.004 C 
ATOM      2  C   UNL     1     -11.662  10.036  70.128  0.00  0.00    -0.022 C 
ATOM      3  C   UNL     1     -12.562   9.526  71.202  0.00  0.00    +0.031 C 
ENDROOT
BRANCH   1   5
ATOM      4  C   UNL     1     -11.439  12.501  67.577  0.00  0.00    -0.004 C 
ATOM      5  C   UNL     1     -11.126  11.985  68.738  0.00  0.00    -0.001 C 
BRANCH   4   7
ATOM      6  C   UNL     1      -9.251  11.899  66.499  0.00  0.00    +0.031 C 
ATOM      7  C   UNL     1     -10.688  12.271  66.339  0.00  0.00    -0.015 C 
ATOM      8  C   UNL     1     -11.087  12.694  65.162  0.00  0.00    +0.082 C 
BRANCH   8   9
ATOM      9  C   UNL     1     -12.489  12.991  64.979  0.00  0.00    +0.388 C 
ATOM     10  O   UNL     1     -12.844  14.339  64.856  0.00  0.00    -0.241 OA
ATOM     11  O   UNL     1     -13.294  12.175  64.438  0.00  0.00    -0.241 OA
ENDBRANCH   8   9
ENDBRANCH   4   7
ENDBRANCH   1   5
BRANCH   2  12
ATOM     12  C   UNL     1     -10.226   9.809  70.332  0.00  0.00    -0.005 C 
ATOM     13  C   UNL     1      -9.637   9.019  69.458  0.00  0.00    -0.005 C 
BRANCH  13  14
ATOM     14  C   UNL     1     -10.280   7.725  69.200  0.00  0.00    -0.031 C 
ATOM     15  C   UNL     1      -9.830   6.617  70.097  0.00  0.00    +0.018 C 
ATOM     16  C   UNL     1      -8.318   6.747  70.230  0.00  0.00    +0.004 C 
ATOM     17  C   UNL     1     -10.406   6.746  71.480  0.00  0.00    +0.004 C 
ATOM     18  C   UNL     1     -10.159   5.259  69.551  0.00  0.00    +0.004 C 
ATOM     19  C   UNL     1      -9.925   5.204  68.048  0.00  0.00    +0.005 C 
ATOM     20  C   UNL     1     -10.961   6.131  67.432  0.00  0.00    +0.022 C 
ATOM     21  C   UNL     1     -10.683   7.508  67.951  0.00  0.00    -0.048 C 
ATOM     22  C   UNL     1     -10.453   8.544  66.893  0.00  0.00    +0.026 C 
ENDBRANCH  13  14
ENDBRANCH   2  12
TORSDOF 5
ENDMDL
MODEL 4
REMARK VINA RESULT:      -5.8      3.785      5.559
REMARK  Name = 
REMARK  5 active torsions:
REMARK  status: ('A' for Active; 'I' for Inactive)
REMARK    1  A    between atoms: C_2  and  C_3
REMARK    2  A    between atoms: C_4  and  C_5
REMARK    3  A    between atoms: C_6  and  C_8
REMARK    4  A    between atoms: C_9  and  C_10
REMARK    5  A    between atoms: C_19  and  C_20
REMARK                            x       y       z     vdW  Elec       q    Type
REMARK                         _______ _______ _______ _____ _____    ______ ____
ROOT
ATOM      1  C   UNL     1     -10.789  15.779  68.628  0.00  0.00    -0.004 C 
ATOM      2  C   UNL     1     -10.735  15.040  67.526  0.00  0.00    -0.022 C 
ATOM      3  C   UNL     1      -9.827  15.528  66.448  0.00  0.00    +0.031 C 
ENDROOT
BRANCH   1   5
ATOM      4  C   UNL     1     -11.597  15.174  70.865  0.00  0.00    -0.004 C 
ATOM      5  C   UNL     1     -11.793  15.636  69.657  0.00  0.00    -0.001 C 
BRANCH   4   7
ATOM      6  C   UNL     1     -12.416  12.809  70.644  0.00  0.00    +0.031 C 
ATOM      7  C   UNL     1     -12.341  14.059  71.458  0.00  0.00    -0.015 C 
ATOM      8  C   UNL     1     -13.195  14.202  72.446  0.00  0.00    +0.082 C 
BRANCH   8   9
ATOM      9  C   UNL     1     -13.086  15.375  73.282  0.00  0.00    +0.388 C 
ATOM     10  O   UNL     1     -14.094  16.337  73.163  0.00  0.00    -0.241 OA
ATOM     11  O   UNL     1     -12.486  15.363  74.399  0.00  0.00    -0.241 OA
ENDBRANCH   8   9
ENDBRANCH   4   7
ENDBRANCH   1   5
BRANCH   2  12
ATOM     12  C   UNL     1     -12.002  14.451  67.081  0.00  0.00    -0.005 C 
ATOM     13  C   UNL     1     -11.992  13.151  66.871  0.00  0.00    -0.005 C 
BRANCH  13  14
ATOM     14  C   UNL     1     -10.913  12.627  66.025  0.00  0.00    -0.031 C 
ATOM     15  C   UNL     1     -11.247  12.552  64.569  0.00  0.00    +0.018 C 
ATOM     16  C   UNL     1     -12.671  12.019  64.472  0.00  0.00    +0.004 C 
ATOM     17  C   UNL     1     -11.239  13.909  63.921  0.00  0.00    +0.004 C 
ATOM     18  C   UNL     1     -10.329  11.639  63.811  0.00  0.00    +0.004 C 
ATOM     19  C   UNL     1     -10.018  10.386  64.617  0.00  0.00    +0.005 C 
ATOM     20  C   UNL     1      -9.201  10.852  65.811  0.00  0.00    +0.022 C 
ATOM     21  C   UNL     1     -10.071  11.777  66.605  0.00  0.00    -0.048 C 
ATOM     22  C   UNL     1     -10.262  11.385  68.038  0.00  0.00    +0.026 C 
ENDBRANCH  13  14
ENDBRANCH   2  12
TORSDOF 5
ENDMDL
MODEL 5
REMARK VINA RESULT:      -5.8      5.565      7.666
REMARK  Name = 
REMARK  5 active torsions:
REMARK  status: ('A' for Active; 'I' for Inactive)
REMARK    1  A    between atoms: C_2  and  C_3
REMARK    2  A    between atoms: C_4  and  C_5
REMARK    3  A    between atoms: C_6  and  C_8
REMARK    4  A    between atoms: C_9  and  C_10
REMARK    5  A    between atoms: C_19  and  C_20
REMARK                            x       y       z     vdW  Elec       q    Type
REMARK                         _______ _______ _______ _____ _____    ______ ____
ROOT
ATOM      1  C   UNL     1     -13.458  10.264  71.527  0.00  0.00    -0.004 C 
ATOM      2  C   UNL     1     -12.943   9.043  71.439  0.00  0.00    -0.022 C 
ATOM      3  C   UNL     1     -13.908   7.911  71.538  0.00  0.00    +0.031 C 
ENDROOT
BRANCH   1   5
ATOM      4  C   UNL     1     -13.150  12.682  71.818  0.00  0.00    -0.004 C 
ATOM      5  C   UNL     1     -12.679  11.464  71.730  0.00  0.00    -0.001 C 
BRANCH   4   7
ATOM      6  C   UNL     1     -11.942  13.448  69.754  0.00  0.00    +0.031 C 
ATOM      7  C   UNL     1     -12.712  13.803  70.982  0.00  0.00    -0.015 C 
ATOM      8  C   UNL     1     -12.654  15.044  71.407  0.00  0.00    +0.082 C 
BRANCH   8   9
ATOM      9  C   UNL     1     -13.450  15.414  72.555  0.00  0.00    +0.388 C 
ATOM     10  O   UNL     1     -12.768  15.661  73.751  0.00  0.00    -0.241 OA
ATOM     11  O   UNL     1     -14.571  15.996  72.448  0.00  0.00    -0.241 OA
ENDBRANCH   8   9
ENDBRANCH   4   7
ENDBRANCH   1   5
BRANCH   2  12
ATOM     12  C   UNL     1     -11.645   8.841  72.093  0.00  0.00    -0.005 C 
ATOM     13  C   UNL     1     -10.590   8.878  71.306  0.00  0.00    -0.005 C 
BRANCH  13  14
ATOM     14  C   UNL     1     -10.638   8.044  70.099  0.00  0.00    -0.031 C 
ATOM     15  C   UNL     1     -10.040   6.683  70.260  0.00  0.00    +0.018 C 
ATOM     16  C   UNL     1      -8.756   6.859  71.061  0.00  0.00    +0.004 C 
ATOM     17  C   UNL     1     -10.932   5.769  71.054  0.00  0.00    +0.004 C 
ATOM     18  C   UNL     1      -9.713   6.034  68.948  0.00  0.00    +0.004 C 
ATOM     19  C   UNL     1      -9.128   7.044  67.971  0.00  0.00    +0.005 C 
ATOM     20  C   UNL     1     -10.254   8.015  67.654  0.00  0.00    +0.022 C 
ATOM     21  C   UNL     1     -10.627   8.690  68.937  0.00  0.00    -0.048 C 
ATOM     22  C   UNL     1     -10.547  10.186  68.907  0.00  0.00    +0.026 C 
ENDBRANCH  13  14
ENDBRANCH   2  12
TORSDOF 5
ENDMDL
MODEL 6
REMARK VINA RESULT:      -5.8      5.291      7.573
REMARK  Name = 
REMARK  5 active torsions:
REMARK  status: ('A' for Active; 'I' for Inactive)
REMARK    1  A    between atoms: C_2  and  C_3
REMARK    2  A    between atoms: C_4  and  C_5
REMARK    3  A    between atoms: C_6  and  C_8
REMARK    4  A    between atoms: C_9  and  C_10
REMARK    5  A    between atoms: C_19  and  C_20
REMARK                            x       y       z     vdW  Elec       q    Type
REMARK                         _______ _______ _______ _____ _____    ______ ____
ROOT
ATOM      1  C   UNL     1     -12.960  10.525  70.773  0.00  0.00    -0.004 C 
ATOM      2  C   UNL     1     -12.592   9.320  71.193  0.00  0.00    -0.022 C 
ATOM      3  C   UNL     1     -13.621   8.537  71.936  0.00  0.00    +0.031 C 
ENDROOT
BRANCH   1   5
ATOM      4  C   UNL     1     -12.101  12.814  70.553  0.00  0.00    -0.004 C 
ATOM      5  C   UNL     1     -12.046  11.534  70.288  0.00  0.00    -0.001 C 
BRANCH   4   7
ATOM      6  C   UNL     1     -11.701  13.485  68.166  0.00  0.00    +0.031 C 
ATOM      7  C   UNL     1     -12.145  13.870  69.538  0.00  0.00    -0.015 C 
ATOM      8  C   UNL     1     -12.213  15.150  69.827  0.00  0.00    +0.082 C 
BRANCH   8   9
ATOM      9  C   UNL     1     -12.708  15.534  71.129  0.00  0.00    +0.388 C 
ATOM     10  O   UNL     1     -11.853  16.290  71.938  0.00  0.00    -0.241 OA
ATOM     11  O   UNL     1     -13.943  15.679  71.373  0.00  0.00    -0.241 OA
ENDBRANCH   8   9
ENDBRANCH   4   7
ENDBRANCH   1   5
BRANCH   2  12
ATOM     12  C   UNL     1     -11.215   9.202  71.685  0.00  0.00    -0.005 C 
ATOM     13  C   UNL     1     -10.339   8.705  70.836  0.00  0.00    -0.005 C 
BRANCH  13  14
ATOM     14  C   UNL     1     -10.705   7.449  70.170  0.00  0.00    -0.031 C 
ATOM     15  C   UNL     1     -10.273   6.214  70.893  0.00  0.00    +0.018 C 
ATOM     16  C   UNL     1      -8.857   6.471  71.394  0.00  0.00    +0.004 C 
ATOM     17  C   UNL     1     -11.126   5.944  72.102  0.00  0.00    +0.004 C 
ATOM     18  C   UNL     1     -10.267   4.999  70.013  0.00  0.00    +0.004 C 
ATOM     19  C   UNL     1      -9.734   5.332  68.627  0.00  0.00    +0.005 C 
ATOM     20  C   UNL     1     -10.759   6.262  67.999  0.00  0.00    +0.022 C 
ATOM     21  C   UNL     1     -10.811   7.496  68.845  0.00  0.00    -0.048 C 
ATOM     22  C   UNL     1     -10.542   8.774  68.111  0.00  0.00    +0.026 C 
ENDBRANCH  13  14
ENDBRANCH   2  12
TORSDOF 5
ENDMDL
MODEL 7
REMARK VINA RESULT:      -5.8      3.252      6.815
REMARK  Name = 
REMARK  5 active torsions:
REMARK  status: ('A' for Active; 'I' for Inactive)
REMARK    1  A    between atoms: C_2  and  C_3
REMARK    2  A    between atoms: C_4  and  C_5
REMARK    3  A    between atoms: C_6  and  C_8
REMARK    4  A    between atoms: C_9  and  C_10
REMARK    5  A    between atoms: C_19  and  C_20
REMARK                            x       y       z     vdW  Elec       q    Type
REMARK                         _______ _______ _______ _____ _____    ______ ____
ROOT
ATOM      1  C   UNL     1     -11.674  14.503  68.311  0.00  0.00    -0.004 C 
ATOM      2  C   UNL     1     -11.042  15.643  68.565  0.00  0.00    -0.022 C 
ATOM      3  C   UNL     1     -11.248  16.224  69.923  0.00  0.00    +0.031 C 
ENDROOT
BRANCH   1   5
ATOM      4  C   UNL     1     -11.644  12.677  66.671  0.00  0.00    -0.004 C 
ATOM      5  C   UNL     1     -11.828  13.932  66.992  0.00  0.00    -0.001 C 
BRANCH   4   7
ATOM      6  C   UNL     1      -9.364  11.827  66.048  0.00  0.00    +0.031 C 
ATOM      7  C   UNL     1     -10.739  12.216  65.615  0.00  0.00    -0.015 C 
ATOM      8  C   UNL     1     -10.939  12.446  64.337  0.00  0.00    +0.082 C 
BRANCH   8   9
ATOM      9  C   UNL     1     -12.280  12.756  63.898  0.00  0.00    +0.388 C 
ATOM     10  O   UNL     1     -12.544  14.084  63.546  0.00  0.00    -0.241 OA
ATOM     11  O   UNL     1     -13.033  11.896  63.350  0.00  0.00    -0.241 OA
ENDBRANCH   8   9
ENDBRANCH   4   7
ENDBRANCH   1   5
BRANCH   2  12
ATOM     12  C   UNL     1     -10.975  16.605  67.458  0.00  0.00    -0.005 C 
ATOM     13  C   UNL     1      -9.776  16.837  66.968  0.00  0.00    -0.005 C 
BRANCH  13  14
ATOM     14  C   UNL     1      -8.720  17.165  67.933  0.00  0.00    -0.031 C 
ATOM     15  C   UNL     1      -8.465  18.629  68.101  0.00  0.00    +0.018 C 
ATOM     16  C   UNL     1      -8.493  19.243  66.707  0.00  0.00    +0.004 C 
ATOM     17  C   UNL     1      -9.549  19.299  68.899  0.00  0.00    +0.004 C 
ATOM     18  C   UNL     1      -7.137  18.917  68.736  0.00  0.00    +0.004 C 
ATOM     19  C   UNL     1      -6.062  17.984  68.199  0.00  0.00    +0.005 C 
ATOM     20  C   UNL     1      -6.434  16.594  68.691  0.00  0.00    +0.022 C 
ATOM     21  C   UNL     1      -7.763  16.256  68.090  0.00  0.00    -0.048 C 
ATOM     22  C   UNL     1      -7.786  14.990  67.288  0.00  0.00    +0.026 C 
ENDBRANCH  13  14
ENDBRANCH   2  12
TORSDOF 5
ENDMDL
MODEL 8
REMARK VINA RESULT:      -5.7      3.979      5.792
REMARK  Name = 
REMARK  5 active torsions:
REMARK  status: ('A' for Active; 'I' for Inactive)
REMARK    1  A    between atoms: C_2  and  C_3
REMARK    2  A    between atoms: C_4  and  C_5
REMARK    3  A    between atoms: C_6  and  C_8
REMARK    4  A    between atoms: C_9  and  C_10
REMARK    5  A    between atoms: C_19  and  C_20
REMARK                            x       y       z     vdW  Elec       q    Type
REMARK                         _______ _______ _______ _____ _____    ______ ____
ROOT
ATOM      1  C   UNL     1     -10.443  15.453  69.669  0.00  0.00    -0.004 C 
ATOM      2  C   UNL     1     -10.321  15.190  68.373  0.00  0.00    -0.022 C 
ATOM      3  C   UNL     1      -9.272  15.955  67.640  0.00  0.00    +0.031 C 
ENDROOT
BRANCH   1   5
ATOM      4  C   UNL     1     -12.356  15.819  71.162  0.00  0.00    -0.004 C 
ATOM      5  C   UNL     1     -11.559  15.033  70.485  0.00  0.00    -0.001 C 
BRANCH   4   7
ATOM      6  C   UNL     1     -11.923  16.676  73.484  0.00  0.00    +0.031 C 
ATOM      7  C   UNL     1     -12.619  15.695  72.599  0.00  0.00    -0.015 C 
ATOM      8  C   UNL     1     -13.121  14.615  73.152  0.00  0.00    +0.082 C 
BRANCH   8   9
ATOM      9  C   UNL     1     -13.855  13.693  72.316  0.00  0.00    +0.388 C 
ATOM     10  O   UNL     1     -13.358  12.390  72.216  0.00  0.00    -0.241 OA
ATOM     11  O   UNL     1     -15.099  13.811  72.102  0.00  0.00    -0.241 OA
ENDBRANCH   8   9
ENDBRANCH   4   7
ENDBRANCH   1   5
BRANCH   2  12
ATOM     12  C   UNL     1     -11.572  14.953  67.643  0.00  0.00    -0.005 C 
ATOM     13  C   UNL     1     -11.901  13.692  67.457  0.00  0.00    -0.005 C 
BRANCH  13  14
ATOM     14  C   UNL     1     -10.865  12.813  66.903  0.00  0.00    -0.031 C 
ATOM     15  C   UNL     1     -10.880  12.698  65.412  0.00  0.00    +0.018 C 
ATOM     16  C   UNL     1     -12.341  12.574  64.996  0.00  0.00    +0.004 C 
ATOM     17  C   UNL     1     -10.337  13.934  64.748  0.00  0.00    +0.004 C 
ATOM     18  C   UNL     1     -10.126  11.500  64.914  0.00  0.00    +0.004 C 
ATOM     19  C   UNL     1     -10.377  10.291  65.803  0.00  0.00    +0.005 C 
ATOM     20  C   UNL     1      -9.740  10.621  67.144  0.00  0.00    +0.022 C 
ATOM     21  C   UNL     1     -10.453  11.820  67.686  0.00  0.00    -0.048 C 
ATOM     22  C   UNL     1     -11.058  11.632  69.044  0.00  0.00    +0.026 C 
ENDBRANCH  13  14
ENDBRANCH   2  12
TORSDOF 5
ENDMDL
MODEL 9
REMARK VINA RESULT:      -5.4      3.221      7.337
REMARK  Name = 
REMARK  5 active torsions:
REMARK  status: ('A' for Active; 'I' for Inactive)
REMARK    1  A    between atoms: C_2  and  C_3
REMARK    2  A    between atoms: C_4  and  C_5
REMARK    3  A    between atoms: C_6  and  C_8
REMARK    4  A    between atoms: C_9  and  C_10
REMARK    5  A    between atoms: C_19  and  C_20
REMARK                            x       y       z     vdW  Elec       q    Type
REMARK                         _______ _______ _______ _____ _____    ______ ____
ROOT
ATOM      1  C   UNL     1     -10.615  17.304  67.946  0.00  0.00    -0.004 C 
ATOM      2  C   UNL     1      -9.762  18.289  67.688  0.00  0.00    -0.022 C 
ATOM      3  C   UNL     1     -10.293  19.676  67.822  0.00  0.00    +0.031 C 
ENDROOT
BRANCH   1   5
ATOM      4  C   UNL     1     -11.222  15.126  66.991  0.00  0.00    -0.004 C 
ATOM      5  C   UNL     1     -10.385  15.917  67.612  0.00  0.00    -0.001 C 
BRANCH   4   7
ATOM      6  C   UNL     1     -11.592  13.645  68.985  0.00  0.00    +0.031 C 
ATOM      7  C   UNL     1     -11.678  13.833  67.507  0.00  0.00    -0.015 C 
ATOM      8  C   UNL     1     -11.819  12.763  66.758  0.00  0.00    +0.082 C 
BRANCH   8   9
ATOM      9  C   UNL     1     -11.972  12.940  65.332  0.00  0.00    +0.388 C 
ATOM     10  O   UNL     1     -10.908  12.531  64.521  0.00  0.00    -0.241 OA
ATOM     11  O   UNL     1     -13.106  12.947  64.764  0.00  0.00    -0.241 OA
ENDBRANCH   8   9
ENDBRANCH   4   7
ENDBRANCH   1   5
BRANCH   2  12
ATOM     12  C   UNL     1      -8.831  18.061  66.576  0.00  0.00    -0.005 C 
ATOM     13  C   UNL     1      -7.625  17.652  66.908  0.00  0.00    -0.005 C 
BRANCH  13  14
ATOM     14  C   UNL     1      -6.929  18.420  67.947  0.00  0.00    -0.031 C 
ATOM     15  C   UNL     1      -6.071  19.530  67.429  0.00  0.00    +0.018 C 
ATOM     16  C   UNL     1      -5.337  18.985  66.210  0.00  0.00    +0.004 C 
ATOM     17  C   UNL     1      -6.890  20.701  66.962  0.00  0.00    +0.004 C 
ATOM     18  C   UNL     1      -5.064  20.003  68.435  0.00  0.00    +0.004 C 
ATOM     19  C   UNL     1      -4.466  18.831  69.200  0.00  0.00    +0.005 C 
ATOM     20  C   UNL     1      -5.601  18.252  70.029  0.00  0.00    +0.022 C 
ATOM     21  C   UNL     1      -6.643  17.768  69.070  0.00  0.00    -0.048 C 
ATOM     22  C   UNL     1      -7.009  16.322  69.216  0.00  0.00    +0.026 C 
ENDBRANCH  13  14
ENDBRANCH   2  12
TORSDOF 5
ENDMDL
