MODEL 1
REMARK VINA RESULT:      -7.4      0.000      0.000
REMARK  Name = 
REMARK  3 active torsions:
REMARK  status: ('A' for Active; 'I' for Inactive)
REMARK    1  A    between atoms: O_2  and  C_3
REMARK    2  A    between atoms: C_12  and  C_14
REMARK    3  A    between atoms: C_31  and  O_32
REMARK                            x       y       z     vdW  Elec       q    Type
REMARK                         _______ _______ _______ _____ _____    ______ ____
ROOT
ATOM      1  C   UNL     1      -3.562  20.139  67.041  0.00  0.00    +0.174 A 
ATOM      2  C   UNL     1      -2.976  19.856  68.247  0.00  0.00    +0.173 A 
ATOM      3  C   UNL     1      -3.638  19.059  69.172  0.00  0.00    +0.044 A 
ATOM      4  C   UNL     1      -4.887  18.569  68.874  0.00  0.00    +0.056 A 
ATOM      5  C   UNL     1      -5.337  18.674  67.576  0.00  0.00    +0.090 A 
ATOM      6  N   UNL     1      -6.419  17.971  67.244  0.00  0.00    -0.213 NA
ATOM      7  C   UNL     1      -7.180  17.288  68.135  0.00  0.00    +0.221 A 
ATOM      8  N   UNL     1      -6.931  17.506  69.442  0.00  0.00    -0.195 NA
ATOM      9  N   UNL     1      -8.493  16.967  67.647  0.00  0.00    -0.275 N 
ATOM     10  C   UNL     1      -8.478  16.269  66.363  0.00  0.00    +0.115 C 
ATOM     11  C   UNL     1      -9.855  16.263  65.712  0.00  0.00    +0.115 C 
ATOM     12  N   UNL     1     -10.780  16.364  66.843  0.00  0.00    -0.273 N 
ATOM     13  C   UNL     1     -10.617  15.350  67.762  0.00  0.00    +0.270 C 
ATOM     14  O   UNL     1      -9.932  14.303  67.643  0.00  0.00    -0.271 OA
ATOM     15  C   UNL     1     -10.815  17.743  67.340  0.00  0.00    +0.115 C 
ATOM     16  C   UNL     1      -9.486  17.963  67.997  0.00  0.00    +0.115 C 
ATOM     17  C   UNL     1      -5.736  18.026  69.817  0.00  0.00    +0.174 A 
ATOM     18  N   UNL     1      -5.524  18.440  71.172  0.00  0.00    -0.107 NA
ATOM     19  C   UNL     1      -4.699  19.487  66.652  0.00  0.00    +0.059 A 
ENDROOT
BRANCH  13  20
ATOM     20  C   UNL     1     -11.801  15.009  68.835  0.00  0.00    +0.284 C 
ATOM     21  O   UNL     1     -10.942  15.539  70.036  0.00  0.00    -0.463 OA
ATOM     22  C   UNL     1     -11.566  15.184  71.240  0.00  0.00    +0.173 A 
ATOM     23  C   UNL     1     -12.388  14.063  71.235  0.00  0.00    +0.172 A 
ATOM     24  C   UNL     1     -13.385  13.941  72.192  0.00  0.00    +0.040 A 
ATOM     25  C   UNL     1     -13.757  15.095  72.873  0.00  0.00    +0.003 A 
ATOM     26  C   UNL     1     -12.733  15.967  73.229  0.00  0.00    +0.003 A 
ATOM     27  O   UNL     1     -12.182  13.155  70.220  0.00  0.00    -0.468 OA
ATOM     28  C   UNL     1     -11.688  16.031  72.311  0.00  0.00    +0.040 A 
ATOM     29  C   UNL     1     -11.309  13.433  69.127  0.00  0.00    +0.258 C 
ENDBRANCH  13  20
BRANCH   1  31
ATOM     30  C   UNL     1      -3.447  21.826  66.059  0.00  0.00    +0.253 C 
ATOM     31  O   UNL     1      -3.236  21.329  66.384  0.00  0.00    -0.468 OA
ENDBRANCH   1  31
BRANCH   2  32
ATOM     32  O   UNL     1      -1.948  20.642  68.765  0.00  0.00    -0.468 OA
ATOM     33  C   UNL     1      -1.995  21.169  70.074  0.00  0.00    +0.253 C 
ENDBRANCH   2  32
TORSDOF 3
ENDMDL
MODEL 2
REMARK VINA RESULT:      -7.4      4.200      5.789
REMARK  Name = 
REMARK  3 active torsions:
REMARK  status: ('A' for Active; 'I' for Inactive)
REMARK    1  A    between atoms: O_2  and  C_3
REMARK    2  A    between atoms: C_12  and  C_14
REMARK    3  A    between atoms: C_31  and  O_32
REMARK                            x       y       z     vdW  Elec       q    Type
REMARK                         _______ _______ _______ _____ _____    ______ ____
ROOT
ATOM      1  C   UNL     1      -7.393  17.958  66.608  0.00  0.00    +0.174 A 
ATOM      2  C   UNL     1      -8.174  18.628  67.512  0.00  0.00    +0.173 A 
ATOM      3  C   UNL     1      -9.016  17.923  68.362  0.00  0.00    +0.044 A 
ATOM      4  C   UNL     1      -9.070  16.553  68.279  0.00  0.00    +0.056 A 
ATOM      5  C   UNL     1      -8.108  15.905  67.534  0.00  0.00    +0.090 A 
ATOM      6  N   UNL     1      -8.012  14.583  67.674  0.00  0.00    -0.213 NA
ATOM      7  C   UNL     1      -8.891  13.832  68.381  0.00  0.00    +0.221 A 
ATOM      8  N   UNL     1     -10.023  14.440  68.789  0.00  0.00    -0.195 NA
ATOM      9  N   UNL     1      -8.846  12.432  68.057  0.00  0.00    -0.275 N 
ATOM     10  C   UNL     1      -7.506  11.859  68.156  0.00  0.00    +0.115 C 
ATOM     11  C   UNL     1      -7.426  10.498  67.475  0.00  0.00    +0.115 C 
ATOM     12  N   UNL     1      -8.796   9.987  67.550  0.00  0.00    -0.273 N 
ATOM     13  C   UNL     1      -9.273   9.914  68.840  0.00  0.00    +0.270 C 
ATOM     14  O   UNL     1      -8.628  10.048  69.911  0.00  0.00    -0.271 OA
ATOM     15  C   UNL     1      -9.633  10.649  66.545  0.00  0.00    +0.115 C 
ATOM     16  C   UNL     1      -9.795  12.059  67.027  0.00  0.00    +0.115 C 
ATOM     17  C   UNL     1     -10.067  15.794  68.858  0.00  0.00    +0.174 A 
ATOM     18  N   UNL     1     -11.309  16.463  69.104  0.00  0.00    -0.107 NA
ATOM     19  C   UNL     1      -7.280  16.596  66.664  0.00  0.00    +0.059 A 
ENDROOT
BRANCH  13  20
ATOM     20  C   UNL     1     -10.563   8.975  69.193  0.00  0.00    +0.284 C 
ATOM     21  O   UNL     1     -10.805   9.721  70.551  0.00  0.00    -0.463 OA
ATOM     22  C   UNL     1     -11.750   9.011  71.304  0.00  0.00    +0.173 A 
ATOM     23  C   UNL     1     -11.868   7.645  71.072  0.00  0.00    +0.172 A 
ATOM     24  C   UNL     1     -13.054   6.997  71.385  0.00  0.00    +0.040 A 
ATOM     25  C   UNL     1     -14.182   7.788  71.566  0.00  0.00    +0.003 A 
ATOM     26  C   UNL     1     -13.999   8.991  72.240  0.00  0.00    +0.003 A 
ATOM     27  O   UNL     1     -10.787   7.029  70.481  0.00  0.00    -0.468 OA
ATOM     28  C   UNL     1     -12.774   9.607  71.995  0.00  0.00    +0.040 A 
ATOM     29  C   UNL     1      -9.686   7.773  69.963  0.00  0.00    +0.258 C 
ENDBRANCH  13  20
BRANCH   1  31
ATOM     30  C   UNL     1      -6.545  18.779  65.049  0.00  0.00    +0.253 C 
ATOM     31  O   UNL     1      -7.020  18.594  65.420  0.00  0.00    -0.468 OA
ENDBRANCH   1  31
BRANCH   2  32
ATOM     32  O   UNL     1      -8.478  19.980  67.358  0.00  0.00    -0.468 OA
ATOM     33  C   UNL     1      -9.810  20.444  67.282  0.00  0.00    +0.253 C 
ENDBRANCH   2  32
TORSDOF 3
ENDMDL
MODEL 3
REMARK VINA RESULT:      -7.2      6.278     10.373
REMARK  Name = 
REMARK  3 active torsions:
REMARK  status: ('A' for Active; 'I' for Inactive)
REMARK    1  A    between atoms: O_2  and  C_3
REMARK    2  A    between atoms: C_12  and  C_14
REMARK    3  A    between atoms: C_31  and  O_32
REMARK                            x       y       z     vdW  Elec       q    Type
REMARK                         _______ _______ _______ _____ _____    ______ ____
ROOT
ATOM      1  C   UNL     1      -9.031   4.950  65.826  0.00  0.00    +0.174 A 
ATOM      2  C   UNL     1      -9.665   4.325  66.866  0.00  0.00    +0.173 A 
ATOM      3  C   UNL     1     -10.255   5.077  67.874  0.00  0.00    +0.044 A 
ATOM      4  C   UNL     1     -10.184   6.447  67.828  0.00  0.00    +0.056 A 
ATOM      5  C   UNL     1      -9.753   7.040  66.661  0.00  0.00    +0.090 A 
ATOM      6  N   UNL     1      -9.937   8.353  66.536  0.00  0.00    -0.213 NA
ATOM      7  C   UNL     1     -10.380   9.154  67.537  0.00  0.00    +0.221 A 
ATOM      8  N   UNL     1     -10.440   8.610  68.770  0.00  0.00    -0.195 NA
ATOM      9  N   UNL     1     -10.107  10.549  67.325  0.00  0.00    -0.275 N 
ATOM     10  C   UNL     1     -10.590  11.044  66.039  0.00  0.00    +0.115 C 
ATOM     11  C   UNL     1      -9.983  12.398  65.695  0.00  0.00    +0.115 C 
ATOM     12  N   UNL     1      -9.676  12.988  67.001  0.00  0.00    -0.273 N 
ATOM     13  C   UNL     1     -10.781  13.086  67.818  0.00  0.00    +0.270 C 
ATOM     14  O   UNL     1     -11.987  12.914  67.511  0.00  0.00    -0.271 OA
ATOM     15  C   UNL     1      -8.464  12.375  67.554  0.00  0.00    +0.115 C 
ATOM     16  C   UNL     1      -8.857  10.977  67.922  0.00  0.00    +0.115 C 
ATOM     17  C   UNL     1     -10.472   7.262  68.905  0.00  0.00    +0.174 A 
ATOM     18  N   UNL     1     -10.345   6.664  70.200  0.00  0.00    -0.107 NA
ATOM     19  C   UNL     1      -9.140   6.304  65.659  0.00  0.00    +0.059 A 
ENDROOT
BRANCH  13  20
ATOM     20  C   UNL     1     -10.770  14.097  69.102  0.00  0.00    +0.284 C 
ATOM     21  O   UNL     1     -12.100  13.485  69.665  0.00  0.00    -0.463 OA
ATOM     22  C   UNL     1     -12.573  14.292  70.709  0.00  0.00    +0.173 A 
ATOM     23  C   UNL     1     -12.212  15.635  70.702  0.00  0.00    +0.172 A 
ATOM     24  C   UNL     1     -12.209  16.350  71.891  0.00  0.00    +0.040 A 
ATOM     25  C   UNL     1     -12.206  15.618  73.073  0.00  0.00    +0.003 A 
ATOM     26  C   UNL     1     -12.998  14.474  73.101  0.00  0.00    +0.003 A 
ATOM     27  O   UNL     1     -11.820  16.158  69.489  0.00  0.00    -0.468 OA
ATOM     28  C   UNL     1     -13.073  13.797  71.886  0.00  0.00    +0.040 A 
ATOM     29  C   UNL     1     -11.612  15.333  68.345  0.00  0.00    +0.258 C 
ENDBRANCH  13  20
BRANCH   1  31
ATOM     30  C   UNL     1      -7.540   4.329  64.724  0.00  0.00    +0.253 C 
ATOM     31  O   UNL     1      -7.986   4.295  65.168  0.00  0.00    -0.468 OA
ENDBRANCH   1  31
BRANCH   2  32
ATOM     32  O   UNL     1      -9.408   2.993  67.188  0.00  0.00    -0.468 OA
ATOM     33  C   UNL     1      -9.402   2.533  68.523  0.00  0.00    +0.253 C 
ENDBRANCH   2  32
TORSDOF 3
ENDMDL
MODEL 4
REMARK VINA RESULT:      -7.2      4.260     10.454
REMARK  Name = 
REMARK  3 active torsions:
REMARK  status: ('A' for Active; 'I' for Inactive)
REMARK    1  A    between atoms: O_2  and  C_3
REMARK    2  A    between atoms: C_12  and  C_14
REMARK    3  A    between atoms: C_31  and  O_32
REMARK                            x       y       z     vdW  Elec       q    Type
REMARK                         _______ _______ _______ _____ _____    ______ ____
ROOT
ATOM      1  C   UNL     1     -13.399   8.308  71.652  0.00  0.00    +0.174 A 
ATOM      2  C   UNL     1     -12.243   7.574  71.701  0.00  0.00    +0.173 A 
ATOM      3  C   UNL     1     -11.063   8.101  71.194  0.00  0.00    +0.044 A 
ATOM      4  C   UNL     1     -11.065   9.354  70.632  0.00  0.00    +0.056 A 
ATOM      5  C   UNL     1     -12.177  10.149  70.813  0.00  0.00    +0.090 A 
ATOM      6  N   UNL     1     -12.066  11.438  70.497  0.00  0.00    -0.213 NA
ATOM      7  C   UNL     1     -10.987  11.974  69.874  0.00  0.00    +0.221 A 
ATOM      8  N   UNL     1     -10.078  11.111  69.379  0.00  0.00    -0.195 NA
ATOM      9  N   UNL     1     -11.247  13.250  69.264  0.00  0.00    -0.275 N 
ATOM     10  C   UNL     1     -11.828  14.224  70.185  0.00  0.00    +0.115 C 
ATOM     11  C   UNL     1     -12.414  15.418  69.442  0.00  0.00    +0.115 C 
ATOM     12  N   UNL     1     -11.636  15.477  68.202  0.00  0.00    -0.273 N 
ATOM     13  C   UNL     1     -10.281  15.594  68.423  0.00  0.00    +0.270 C 
ATOM     14  O   UNL     1      -9.694  15.837  69.507  0.00  0.00    -0.271 OA
ATOM     15  C   UNL     1     -12.094  14.438  67.275  0.00  0.00    +0.115 C 
ATOM     16  C   UNL     1     -11.638  13.141  67.872  0.00  0.00    +0.115 C 
ATOM     17  C   UNL     1     -10.036   9.840  69.851  0.00  0.00    +0.174 A 
ATOM     18  N   UNL     1      -9.212   8.860  69.210  0.00  0.00    -0.107 NA
ATOM     19  C   UNL     1     -13.368   9.628  71.294  0.00  0.00    +0.059 A 
ENDROOT
BRANCH  13  20
ATOM     20  C   UNL     1      -9.293  16.121  67.234  0.00  0.00    +0.284 C 
ATOM     21  O   UNL     1      -8.310  16.776  68.265  0.00  0.00    -0.463 OA
ATOM     22  C   UNL     1      -7.389  17.578  67.578  0.00  0.00    +0.173 A 
ATOM     23  C   UNL     1      -7.778  18.102  66.350  0.00  0.00    +0.172 A 
ATOM     24  C   UNL     1      -6.812  18.462  65.421  0.00  0.00    +0.040 A 
ATOM     25  C   UNL     1      -5.533  17.949  65.603  0.00  0.00    +0.003 A 
ATOM     26  C   UNL     1      -5.066  17.887  66.912  0.00  0.00    +0.003 A 
ATOM     27  O   UNL     1      -9.134  18.177  66.117  0.00  0.00    -0.468 OA
ATOM     28  C   UNL     1      -6.047  17.608  67.861  0.00  0.00    +0.040 A 
ATOM     29  C   UNL     1     -10.083  17.581  66.999  0.00  0.00    +0.258 C 
ENDBRANCH  13  20
BRANCH   1  31
ATOM     30  C   UNL     1     -15.240   7.657  71.750  0.00  0.00    +0.253 C 
ATOM     31  O   UNL     1     -14.629   7.647  71.595  0.00  0.00    -0.468 OA
ENDBRANCH   1  31
BRANCH   2  32
ATOM     32  O   UNL     1     -12.261   6.189  71.855  0.00  0.00    -0.468 OA
ATOM     33  C   UNL     1     -11.312   5.512  72.651  0.00  0.00    +0.253 C 
ENDBRANCH   2  32
TORSDOF 3
ENDMDL
MODEL 5
REMARK VINA RESULT:      -7.1      6.964     10.649
REMARK  Name = 
REMARK  3 active torsions:
REMARK  status: ('A' for Active; 'I' for Inactive)
REMARK    1  A    between atoms: O_2  and  C_3
REMARK    2  A    between atoms: C_12  and  C_14
REMARK    3  A    between atoms: C_31  and  O_32
REMARK                            x       y       z     vdW  Elec       q    Type
REMARK                         _______ _______ _______ _____ _____    ______ ____
ROOT
ATOM      1  C   UNL     1     -12.459  14.793  70.569  0.00  0.00    +0.174 A 
ATOM      2  C   UNL     1     -12.104  15.102  69.283  0.00  0.00    +0.173 A 
ATOM      3  C   UNL     1     -11.528  14.135  68.469  0.00  0.00    +0.044 A 
ATOM      4  C   UNL     1     -11.305  12.875  68.966  0.00  0.00    +0.056 A 
ATOM      5  C   UNL     1     -11.885  12.536  70.170  0.00  0.00    +0.090 A 
ATOM      6  N   UNL     1     -11.882  11.248  70.510  0.00  0.00    -0.213 NA
ATOM      7  C   UNL     1     -11.217  10.285  69.823  0.00  0.00    +0.221 A 
ATOM      8  N   UNL     1     -10.360  10.700  68.868  0.00  0.00    -0.195 NA
ATOM      9  N   UNL     1     -11.002   9.081  70.578  0.00  0.00    -0.275 N 
ATOM     10  C   UNL     1     -12.228   8.530  71.150  0.00  0.00    +0.115 C 
ATOM     11  C   UNL     1     -11.929   7.486  72.218  0.00  0.00    +0.115 C 
ATOM     12  N   UNL     1     -10.618   6.957  71.834  0.00  0.00    -0.273 N 
ATOM     13  C   UNL     1     -10.599   6.440  70.557  0.00  0.00    +0.270 C 
ATOM     14  O   UNL     1     -11.578   6.212  69.802  0.00  0.00    -0.271 OA
ATOM     15  C   UNL     1      -9.566   7.909  72.205  0.00  0.00    +0.115 C 
ATOM     16  C   UNL     1      -9.727   9.067  71.267  0.00  0.00    +0.115 C 
ATOM     17  C   UNL     1     -10.487  11.948  68.352  0.00  0.00    +0.174 A 
ATOM     18  N   UNL     1      -9.479  12.473  67.481  0.00  0.00    -0.107 NA
ATOM     19  C   UNL     1     -12.439  13.495  71.002  0.00  0.00    +0.059 A 
ENDROOT
BRANCH  13  20
ATOM     20  C   UNL     1      -9.412   5.417  70.097  0.00  0.00    +0.284 C 
ATOM     21  O   UNL     1     -10.202   4.989  68.812  0.00  0.00    -0.463 OA
ATOM     22  C   UNL     1      -9.572   3.880  68.232  0.00  0.00    +0.173 A 
ATOM     23  C   UNL     1      -8.824   3.053  69.063  0.00  0.00    +0.172 A 
ATOM     24  C   UNL     1      -7.811   2.273  68.523  0.00  0.00    +0.040 A 
ATOM     25  C   UNL     1      -7.348   2.619  67.259  0.00  0.00    +0.003 A 
ATOM     26  C   UNL     1      -8.304   3.028  66.334  0.00  0.00    +0.003 A 
ATOM     27  O   UNL     1      -9.114   3.112  70.408  0.00  0.00    -0.468 OA
ATOM     28  C   UNL     1      -9.367   3.741  66.883  0.00  0.00    +0.040 A 
ATOM     29  C   UNL     1      -9.996   4.095  70.946  0.00  0.00    +0.258 C 
ENDBRANCH  13  20
BRANCH   1  31
ATOM     30  C   UNL     1     -12.401  15.950  72.145  0.00  0.00    +0.253 C 
ATOM     31  O   UNL     1     -12.475  15.802  71.536  0.00  0.00    -0.468 OA
ENDBRANCH   1  31
BRANCH   2  32
ATOM     32  O   UNL     1     -11.911  16.420  68.872  0.00  0.00    -0.468 OA
ATOM     33  C   UNL     1     -10.639  16.912  68.508  0.00  0.00    +0.253 C 
ENDBRANCH   2  32
TORSDOF 3
ENDMDL
MODEL 6
REMARK VINA RESULT:      -7.0      7.250     11.745
REMARK  Name = 
REMARK  3 active torsions:
REMARK  status: ('A' for Active; 'I' for Inactive)
REMARK    1  A    between atoms: O_2  and  C_3
REMARK    2  A    between atoms: C_12  and  C_14
REMARK    3  A    between atoms: C_31  and  O_32
REMARK                            x       y       z     vdW  Elec       q    Type
REMARK                         _______ _______ _______ _____ _____    ______ ____
ROOT
ATOM      1  C   UNL     1      -9.665   3.296  71.275  0.00  0.00    +0.174 A 
ATOM      2  C   UNL     1     -10.386   3.499  72.422  0.00  0.00    +0.173 A 
ATOM      3  C   UNL     1     -10.918   4.753  72.696  0.00  0.00    +0.044 A 
ATOM      4  C   UNL     1     -10.704   5.787  71.818  0.00  0.00    +0.056 A 
ATOM      5  C   UNL     1     -10.185   5.492  70.575  0.00  0.00    +0.090 A 
ATOM      6  N   UNL     1     -10.229   6.450  69.650  0.00  0.00    -0.213 NA
ATOM      7  C   UNL     1     -10.610   7.727  69.901  0.00  0.00    +0.221 A 
ATOM      8  N   UNL     1     -10.756   8.076  71.195  0.00  0.00    -0.195 NA
ATOM      9  N   UNL     1     -10.188   8.664  68.896  0.00  0.00    -0.275 N 
ATOM     10  C   UNL     1     -10.586   8.280  67.544  0.00  0.00    +0.115 C 
ATOM     11  C   UNL     1      -9.833   9.080  66.489  0.00  0.00    +0.115 C 
ATOM     12  N   UNL     1      -9.498  10.333  67.170  0.00  0.00    -0.273 N 
ATOM     13  C   UNL     1     -10.606  10.993  67.657  0.00  0.00    +0.270 C 
ATOM     14  O   UNL     1     -11.816  10.748  67.422  0.00  0.00    -0.271 OA
ATOM     15  C   UNL     1      -8.370  10.120  68.082  0.00  0.00    +0.115 C 
ATOM     16  C   UNL     1      -8.915   9.286  69.203  0.00  0.00    +0.115 C 
ATOM     17  C   UNL     1     -10.930   7.112  72.133  0.00  0.00    +0.174 A 
ATOM     18  N   UNL     1     -10.897   7.446  73.525  0.00  0.00    -0.107 NA
ATOM     19  C   UNL     1      -9.629   4.253  70.299  0.00  0.00    +0.059 A 
ENDROOT
BRANCH  13  20
ATOM     20  C   UNL     1     -10.521  12.580  68.036  0.00  0.00    +0.284 C 
ATOM     21  O   UNL     1     -11.590  12.422  69.173  0.00  0.00    -0.463 OA
ATOM     22  C   UNL     1     -11.982  13.693  69.615  0.00  0.00    +0.173 A 
ATOM     23  C   UNL     1     -11.867  14.752  68.721  0.00  0.00    +0.172 A 
ATOM     24  C   UNL     1     -11.757  16.048  69.205  0.00  0.00    +0.040 A 
ATOM     25  C   UNL     1     -11.398  16.200  70.540  0.00  0.00    +0.003 A 
ATOM     26  C   UNL     1     -11.960  15.303  71.443  0.00  0.00    +0.003 A 
ATOM     27  O   UNL     1     -11.814  14.424  67.384  0.00  0.00    -0.468 OA
ATOM     28  C   UNL     1     -12.151  14.020  70.936  0.00  0.00    +0.040 A 
ATOM     29  C   UNL     1     -11.694  13.072  66.945  0.00  0.00    +0.258 C 
ENDBRANCH  13  20
BRANCH   1  31
ATOM     30  C   UNL     1      -8.269   1.978  70.903  0.00  0.00    +0.253 C 
ATOM     31  O   UNL     1      -8.679   2.305  71.253  0.00  0.00    -0.468 OA
ENDBRANCH   1  31
BRANCH   2  32
ATOM     32  O   UNL     1     -10.277   2.645  73.518  0.00  0.00    -0.468 OA
ATOM     33  C   UNL     1     -11.137   1.540  73.695  0.00  0.00    +0.253 C 
ENDBRANCH   2  32
TORSDOF 3
ENDMDL
MODEL 7
REMARK VINA RESULT:      -6.9      5.794      8.910
REMARK  Name = 
REMARK  3 active torsions:
REMARK  status: ('A' for Active; 'I' for Inactive)
REMARK    1  A    between atoms: O_2  and  C_3
REMARK    2  A    between atoms: C_12  and  C_14
REMARK    3  A    between atoms: C_31  and  O_32
REMARK                            x       y       z     vdW  Elec       q    Type
REMARK                         _______ _______ _______ _____ _____    ______ ____
ROOT
ATOM      1  C   UNL     1      -7.657   8.063  62.518  0.00  0.00    +0.174 A 
ATOM      2  C   UNL     1      -7.838   6.969  63.323  0.00  0.00    +0.173 A 
ATOM      3  C   UNL     1      -8.338   7.127  64.609  0.00  0.00    +0.044 A 
ATOM      4  C   UNL     1      -8.635   8.385  65.071  0.00  0.00    +0.056 A 
ATOM      5  C   UNL     1      -8.667   9.424  64.165  0.00  0.00    +0.090 A 
ATOM      6  N   UNL     1      -9.207  10.573  64.569  0.00  0.00    -0.213 NA
ATOM      7  C   UNL     1      -9.584  10.823  65.848  0.00  0.00    +0.221 A 
ATOM      8  N   UNL     1      -9.202   9.929  66.782  0.00  0.00    -0.195 NA
ATOM      9  N   UNL     1      -9.738  12.222  66.141  0.00  0.00    -0.275 N 
ATOM     10  C   UNL     1     -10.630  12.913  65.212  0.00  0.00    +0.115 C 
ATOM     11  C   UNL     1     -10.493  14.426  65.324  0.00  0.00    +0.115 C 
ATOM     12  N   UNL     1     -10.041  14.637  66.701  0.00  0.00    -0.273 N 
ATOM     13  C   UNL     1     -10.901  14.105  67.637  0.00  0.00    +0.270 C 
ATOM     14  O   UNL     1     -12.060  13.655  67.453  0.00  0.00    -0.271 OA
ATOM     15  C   UNL     1      -8.616  14.313  66.815  0.00  0.00    +0.115 C 
ATOM     16  C   UNL     1      -8.534  12.822  66.681  0.00  0.00    +0.115 C 
ATOM     17  C   UNL     1      -8.852   8.675  66.404  0.00  0.00    +0.174 A 
ATOM     18  N   UNL     1      -8.266   7.774  67.350  0.00  0.00    -0.107 NA
ATOM     19  C   UNL     1      -8.148   9.286  62.888  0.00  0.00    +0.059 A 
ENDROOT
BRANCH  13  20
ATOM     20  C   UNL     1     -10.840  14.602  69.192  0.00  0.00    +0.284 C 
ATOM     21  O   UNL     1     -12.369  14.325  69.399  0.00  0.00    -0.463 OA
ATOM     22  C   UNL     1     -12.776  14.876  70.622  0.00  0.00    +0.173 A 
ATOM     23  C   UNL     1     -12.050  15.953  71.118  0.00  0.00    +0.172 A 
ATOM     24  C   UNL     1     -12.063  16.219  72.480  0.00  0.00    +0.040 A 
ATOM     25  C   UNL     1     -12.489  15.199  73.323  0.00  0.00    +0.003 A 
ATOM     26  C   UNL     1     -13.567  14.436  72.883  0.00  0.00    +0.003 A 
ATOM     27  O   UNL     1     -11.306  16.665  70.203  0.00  0.00    -0.468 OA
ATOM     28  C   UNL     1     -13.606  14.236  71.506  0.00  0.00    +0.040 A 
ATOM     29  C   UNL     1     -11.136  16.218  68.860  0.00  0.00    +0.258 C 
ENDBRANCH  13  20
BRANCH   1  31
ATOM     30  C   UNL     1      -6.457   8.278  60.989  0.00  0.00    +0.253 C 
ATOM     31  O   UNL     1      -6.672   8.030  61.528  0.00  0.00    -0.468 OA
ENDBRANCH   1  31
BRANCH   2  32
ATOM     32  O   UNL     1      -7.177   5.766  63.083  0.00  0.00    -0.468 OA
ATOM     33  C   UNL     1      -7.808   4.681  62.435  0.00  0.00    +0.253 C 
ENDBRANCH   2  32
TORSDOF 3
ENDMDL
MODEL 8
REMARK VINA RESULT:      -6.9      7.206     10.771
REMARK  Name = 
REMARK  3 active torsions:
REMARK  status: ('A' for Active; 'I' for Inactive)
REMARK    1  A    between atoms: O_2  and  C_3
REMARK    2  A    between atoms: C_12  and  C_14
REMARK    3  A    between atoms: C_31  and  O_32
REMARK                            x       y       z     vdW  Elec       q    Type
REMARK                         _______ _______ _______ _____ _____    ______ ____
ROOT
ATOM      1  C   UNL     1     -11.969  14.253  67.891  0.00  0.00    +0.174 A 
ATOM      2  C   UNL     1     -11.929  13.929  66.561  0.00  0.00    +0.173 A 
ATOM      3  C   UNL     1     -11.590  12.640  66.169  0.00  0.00    +0.044 A 
ATOM      4  C   UNL     1     -11.283  11.701  67.123  0.00  0.00    +0.056 A 
ATOM      5  C   UNL     1     -11.562  11.992  68.441  0.00  0.00    +0.090 A 
ATOM      6  N   UNL     1     -11.508  10.987  69.315  0.00  0.00    -0.213 NA
ATOM      7  C   UNL     1     -11.053   9.746  69.014  0.00  0.00    +0.221 A 
ATOM      8  N   UNL     1     -10.442   9.594  67.821  0.00  0.00    -0.195 NA
ATOM      9  N   UNL     1     -10.690   8.968  70.167  0.00  0.00    -0.275 N 
ATOM     10  C   UNL     1     -11.754   8.882  71.164  0.00  0.00    +0.115 C 
ATOM     11  C   UNL     1     -11.231   8.371  72.500  0.00  0.00    +0.115 C 
ATOM     12  N   UNL     1     -10.064   7.563  72.135  0.00  0.00    -0.273 N 
ATOM     13  C   UNL     1     -10.367   6.549  71.253  0.00  0.00    +0.270 C 
ATOM     14  O   UNL     1     -11.504   6.146  70.901  0.00  0.00    -0.271 OA
ATOM     15  C   UNL     1      -8.932   8.438  71.813  0.00  0.00    +0.115 C 
ATOM     16  C   UNL     1      -9.287   9.088  70.510  0.00  0.00    +0.115 C 
ATOM     17  C   UNL     1     -10.660  10.502  66.838  0.00  0.00    +0.174 A 
ATOM     18  N   UNL     1      -9.880  10.465  65.637  0.00  0.00    -0.107 NA
ATOM     19  C   UNL     1     -11.876  13.279  68.847  0.00  0.00    +0.059 A 
ENDROOT
BRANCH  13  20
ATOM     20  C   UNL     1      -9.351   5.283  71.069  0.00  0.00    +0.284 C 
ATOM     21  O   UNL     1     -10.140   4.760  69.819  0.00  0.00    -0.463 OA
ATOM     22  C   UNL     1      -9.680   3.478  69.488  0.00  0.00    +0.173 A 
ATOM     23  C   UNL     1      -9.125   2.708  70.504  0.00  0.00    +0.172 A 
ATOM     24  C   UNL     1      -8.236   1.692  70.186  0.00  0.00    +0.040 A 
ATOM     25  C   UNL     1      -7.660   1.724  68.921  0.00  0.00    +0.003 A 
ATOM     26  C   UNL     1      -8.486   2.105  67.869  0.00  0.00    +0.003 A 
ATOM     27  O   UNL     1      -9.466   3.056  71.793  0.00  0.00    -0.468 OA
ATOM     28  C   UNL     1      -9.437   3.065  68.203  0.00  0.00    +0.040 A 
ATOM     29  C   UNL     1     -10.192   4.248  72.084  0.00  0.00    +0.258 C 
ENDBRANCH  13  20
BRANCH   1  31
ATOM     30  C   UNL     1     -11.564  15.963  68.750  0.00  0.00    +0.253 C 
ATOM     31  O   UNL     1     -11.727  15.574  68.281  0.00  0.00    -0.468 OA
ENDBRANCH   1  31
BRANCH   2  32
ATOM     32  O   UNL     1     -11.809  14.903  65.571  0.00  0.00    -0.468 OA
ATOM     33  C   UNL     1     -10.563  15.242  65.000  0.00  0.00    +0.253 C 
ENDBRANCH   2  32
TORSDOF 3
ENDMDL
MODEL 9
REMARK VINA RESULT:      -6.8      5.126      9.908
REMARK  Name = 
REMARK  3 active torsions:
REMARK  status: ('A' for Active; 'I' for Inactive)
REMARK    1  A    between atoms: O_2  and  C_3
REMARK    2  A    between atoms: C_12  and  C_14
REMARK    3  A    between atoms: C_31  and  O_32
REMARK                            x       y       z     vdW  Elec       q    Type
REMARK                         _______ _______ _______ _____ _____    ______ ____
ROOT
ATOM      1  C   UNL     1     -10.145   6.184  68.261  0.00  0.00    +0.174 A 
ATOM      2  C   UNL     1      -9.476   6.337  69.446  0.00  0.00    +0.173 A 
ATOM      3  C   UNL     1      -9.086   7.602  69.866  0.00  0.00    +0.044 A 
ATOM      4  C   UNL     1      -9.362   8.692  69.079  0.00  0.00    +0.056 A 
ATOM      5  C   UNL     1     -10.234   8.533  68.024  0.00  0.00    +0.090 A 
ATOM      6  N   UNL     1     -10.695   9.637  67.438  0.00  0.00    -0.213 NA
ATOM      7  C   UNL     1     -10.245  10.886  67.716  0.00  0.00    +0.221 A 
ATOM      8  N   UNL     1      -9.137  10.978  68.479  0.00  0.00    -0.195 NA
ATOM      9  N   UNL     1     -10.560  11.853  66.700  0.00  0.00    -0.275 N 
ATOM     10  C   UNL     1     -11.982  11.897  66.365  0.00  0.00    +0.115 C 
ATOM     11  C   UNL     1     -12.228  12.653  65.065  0.00  0.00    +0.115 C 
ATOM     12  N   UNL     1     -11.098  13.581  64.978  0.00  0.00    -0.273 N 
ATOM     13  C   UNL     1     -11.000  14.412  66.073  0.00  0.00    +0.270 C 
ATOM     14  O   UNL     1     -11.840  14.581  66.992  0.00  0.00    -0.271 OA
ATOM     15  C   UNL     1      -9.893  12.863  64.551  0.00  0.00    +0.115 C 
ATOM     16  C   UNL     1      -9.507  12.002  65.716  0.00  0.00    +0.115 C 
ATOM     17  C   UNL     1      -8.771   9.928  69.256  0.00  0.00    +0.174 A 
ATOM     18  N   UNL     1      -7.505   9.933  69.924  0.00  0.00    -0.107 NA
ATOM     19  C   UNL     1     -10.611   7.275  67.580  0.00  0.00    +0.059 A 
ENDROOT
BRANCH  13  20
ATOM     20  C   UNL     1     -10.123  15.788  65.988  0.00  0.00    +0.284 C 
ATOM     21  O   UNL     1     -10.749  16.334  67.319  0.00  0.00    -0.463 OA
ATOM     22  C   UNL     1     -10.395  17.681  67.475  0.00  0.00    +0.173 A 
ATOM     23  C   UNL     1     -10.113  18.413  66.327  0.00  0.00    +0.172 A 
ATOM     24  C   UNL     1      -9.309  19.540  66.413  0.00  0.00    +0.040 A 
ATOM     25  C   UNL     1      -8.530  19.680  67.556  0.00  0.00    +0.003 A 
ATOM     26  C   UNL     1      -9.118  19.309  68.761  0.00  0.00    +0.003 A 
ATOM     27  O   UNL     1     -10.620  17.919  65.145  0.00  0.00    -0.468 OA
ATOM     28  C   UNL     1      -9.992  18.228  68.666  0.00  0.00    +0.040 A 
ATOM     29  C   UNL     1     -11.239  16.637  65.068  0.00  0.00    +0.258 C 
ENDBRANCH  13  20
BRANCH   1  31
ATOM     30  C   UNL     1     -10.245   4.623  67.086  0.00  0.00    +0.253 C 
ATOM     31  O   UNL     1     -10.030   4.980  67.560  0.00  0.00    -0.468 OA
ENDBRANCH   1  31
BRANCH   2  32
ATOM     32  O   UNL     1      -8.810   5.274  70.055  0.00  0.00    -0.468 OA
ATOM     33  C   UNL     1      -9.431   4.458  71.025  0.00  0.00    +0.253 C 
ENDBRANCH   2  32
TORSDOF 3
ENDMDL
