MODEL 1
REMARK VINA RESULT:      -6.9      0.000      0.000
REMARK  Name = 
REMARK  2 active torsions:
REMARK  status: ('A' for Active; 'I' for Inactive)
REMARK    1  A    between atoms: C_2  and  C_3
REMARK    2  A    between atoms: C_22  and  C_23
REMARK                            x       y       z     vdW  Elec       q    Type
REMARK                         _______ _______ _______ _____ _____    ______ ____
ROOT
ATOM      1  C   UNL     1      -7.992  18.680  67.933  0.00  0.00    +0.180 C 
ATOM      2  C   UNL     1      -8.972  17.607  67.485  0.00  0.00    +0.037 C 
ATOM      3  C   UNL     1      -8.975  16.873  68.915  0.00  0.00    +0.003 C 
ATOM      4  C   UNL     1      -9.387  15.273  68.513  0.00  0.00    +0.001 C 
ATOM      5  C   UNL     1     -10.541  15.711  67.365  0.00  0.00    +0.004 C 
ATOM      6  C   UNL     1      -9.642  15.784  66.036  0.00  0.00    +0.000 C 
ATOM      7  C   UNL     1     -11.056  14.095  67.268  0.00  0.00    +0.019 C 
ATOM      8  C   UNL     1      -9.836  13.501  66.427  0.00  0.00    -0.043 C 
ATOM      9  C   UNL     1     -10.126  12.523  65.586  0.00  0.00    +0.010 C 
ATOM     10  C   UNL     1     -11.448  12.262  65.046  0.00  0.00    +0.101 C 
ATOM     11  C   UNL     1     -12.559  13.054  65.664  0.00  0.00    +0.050 C 
ATOM     12  N   UNL     1     -11.625  11.918  63.808  0.00  0.00    -0.034 NA
ATOM     13  O   UNL     1     -12.836  12.082  63.161  0.00  0.00    -0.143 OA
ATOM     14  C   UNL     1      -8.556  13.487  67.155  0.00  0.00    +0.022 C 
ATOM     15  C   UNL     1     -11.950  14.420  65.951  0.00  0.00    +0.010 C 
ATOM     16  C   UNL     1      -8.141  14.878  67.574  0.00  0.00    +0.004 C 
ATOM     17  C   UNL     1      -7.361  16.647  68.925  0.00  0.00    +0.004 C 
ATOM     18  C   UNL     1      -8.725  16.934  66.313  0.00  0.00    +0.003 C 
ATOM     19  C   UNL     1      -6.836  17.976  68.572  0.00  0.00    +0.043 C 
ATOM     20  O   UNL     1      -8.657  19.370  68.956  0.00  0.00    -0.212 OA
ENDROOT
BRANCH   1  22
ATOM     21  C   UNL     1      -7.214  20.134  66.318  0.00  0.00    -0.012 C 
ATOM     22  C   UNL     1      -7.566  19.586  66.847  0.00  0.00    -0.049 C 
ENDBRANCH   1  22
BRANCH   2  23
ATOM     23  C   UNL     1     -10.305  18.360  67.409  0.00  0.00    +0.003 C 
ATOM     24  C   UNL     1     -10.463  18.891  66.017  0.00  0.00    +0.000 C 
ENDBRANCH   2  23
TORSDOF 2
ENDMDL
MODEL 2
REMARK VINA RESULT:      -6.6      4.236      6.420
REMARK  Name = 
REMARK  2 active torsions:
REMARK  status: ('A' for Active; 'I' for Inactive)
REMARK    1  A    between atoms: C_2  and  C_3
REMARK    2  A    between atoms: C_22  and  C_23
REMARK                            x       y       z     vdW  Elec       q    Type
REMARK                         _______ _______ _______ _____ _____    ______ ____
ROOT
ATOM      1  C   UNL     1     -10.672  11.919  64.363  0.00  0.00    +0.180 C 
ATOM      2  C   UNL     1     -10.953  12.722  65.624  0.00  0.00    +0.037 C 
ATOM      3  C   UNL     1      -9.512  12.408  66.265  0.00  0.00    +0.003 C 
ATOM      4  C   UNL     1      -9.807  12.550  67.932  0.00  0.00    +0.001 C 
ATOM      5  C   UNL     1     -10.805  13.899  67.784  0.00  0.00    +0.004 C 
ATOM      6  C   UNL     1     -12.243  13.202  67.619  0.00  0.00    +0.000 C 
ATOM      7  C   UNL     1     -10.783  14.101  69.470  0.00  0.00    +0.019 C 
ATOM      8  C   UNL     1     -11.758  12.903  69.872  0.00  0.00    -0.043 C 
ATOM      9  C   UNL     1     -12.522  13.100  70.933  0.00  0.00    +0.010 C 
ATOM     10  C   UNL     1     -12.875  14.404  71.466  0.00  0.00    +0.101 C 
ATOM     11  C   UNL     1     -12.142  15.561  70.861  0.00  0.00    +0.050 C 
ATOM     12  N   UNL     1     -14.067  14.661  71.906  0.00  0.00    -0.034 NA
ATOM     13  O   UNL     1     -14.554  15.951  72.008  0.00  0.00    -0.143 OA
ATOM     14  C   UNL     1     -11.204  11.565  69.606  0.00  0.00    +0.022 C 
ATOM     15  C   UNL     1     -11.981  15.196  69.393  0.00  0.00    +0.010 C 
ATOM     16  C   UNL     1     -10.888  11.377  68.140  0.00  0.00    +0.004 C 
ATOM     17  C   UNL     1      -9.707  10.792  66.184  0.00  0.00    +0.004 C 
ATOM     18  C   UNL     1     -12.125  12.496  66.303  0.00  0.00    +0.003 C 
ATOM     19  C   UNL     1     -10.169  10.580  64.801  0.00  0.00    +0.043 C 
ATOM     20  O   UNL     1      -9.593  12.574  63.754  0.00  0.00    -0.212 OA
ENDROOT
BRANCH   1  22
ATOM     21  C   UNL     1     -12.532  11.879  62.998  0.00  0.00    -0.012 C 
ATOM     22  C   UNL     1     -11.833  11.813  63.456  0.00  0.00    -0.049 C 
ENDBRANCH   1  22
BRANCH   2  23
ATOM     23  C   UNL     1     -10.877  14.174  65.139  0.00  0.00    +0.003 C 
ATOM     24  C   UNL     1     -12.262  14.620  64.780  0.00  0.00    +0.000 C 
ENDBRANCH   2  23
TORSDOF 2
ENDMDL
MODEL 3
REMARK VINA RESULT:      -6.4      1.064      1.190
REMARK  Name = 
REMARK  2 active torsions:
REMARK  status: ('A' for Active; 'I' for Inactive)
REMARK    1  A    between atoms: C_2  and  C_3
REMARK    2  A    between atoms: C_22  and  C_23
REMARK                            x       y       z     vdW  Elec       q    Type
REMARK                         _______ _______ _______ _____ _____    ______ ____
ROOT
ATOM      1  C   UNL     1      -6.976  19.170  67.381  0.00  0.00    +0.180 C 
ATOM      2  C   UNL     1      -8.066  18.112  67.320  0.00  0.00    +0.037 C 
ATOM      3  C   UNL     1      -7.689  17.497  68.756  0.00  0.00    +0.003 C 
ATOM      4  C   UNL     1      -8.232  15.892  68.630  0.00  0.00    +0.001 C 
ATOM      5  C   UNL     1      -9.649  16.288  67.809  0.00  0.00    +0.004 C 
ATOM      6  C   UNL     1      -9.154  16.210  66.283  0.00  0.00    +0.000 C 
ATOM      7  C   UNL     1     -10.207  14.695  68.005  0.00  0.00    +0.019 C 
ATOM      8  C   UNL     1      -9.282  13.978  66.919  0.00  0.00    -0.043 C 
ATOM      9  C   UNL     1      -9.816  12.950  66.283  0.00  0.00    +0.010 C 
ATOM     10  C   UNL     1     -11.242  12.707  66.153  0.00  0.00    +0.101 C 
ATOM     11  C   UNL     1     -12.119  13.599  66.977  0.00  0.00    +0.050 C 
ATOM     12  N   UNL     1     -11.763  12.272  65.048  0.00  0.00    -0.034 NA
ATOM     13  O   UNL     1     -13.102  12.440  64.746  0.00  0.00    -0.143 OA
ATOM     14  C   UNL     1      -7.852  13.963  67.266  0.00  0.00    +0.022 C 
ATOM     15  C   UNL     1     -11.424  14.953  66.959  0.00  0.00    +0.010 C 
ATOM     16  C   UNL     1      -7.305  15.363  67.426  0.00  0.00    +0.004 C 
ATOM     17  C   UNL     1      -6.141  17.198  68.344  0.00  0.00    +0.004 C 
ATOM     18  C   UNL     1      -8.170  17.335  66.192  0.00  0.00    +0.003 C 
ATOM     19  C   UNL     1      -5.704  18.468  67.739  0.00  0.00    +0.043 C 
ATOM     20  O   UNL     1      -7.316  19.972  68.480  0.00  0.00    -0.212 OA
ENDROOT
BRANCH   1  22
ATOM     21  C   UNL     1      -6.639  20.435  65.480  0.00  0.00    -0.012 C 
ATOM     22  C   UNL     1      -6.848  19.964  66.142  0.00  0.00    -0.049 C 
ENDBRANCH   1  22
BRANCH   2  23
ATOM     23  C   UNL     1      -9.351  18.918  67.544  0.00  0.00    +0.003 C 
ATOM     24  C   UNL     1      -9.927  19.262  66.204  0.00  0.00    +0.000 C 
ENDBRANCH   2  23
TORSDOF 2
ENDMDL
MODEL 4
REMARK VINA RESULT:      -6.3      2.529      6.624
REMARK  Name = 
REMARK  2 active torsions:
REMARK  status: ('A' for Active; 'I' for Inactive)
REMARK    1  A    between atoms: C_2  and  C_3
REMARK    2  A    between atoms: C_22  and  C_23
REMARK                            x       y       z     vdW  Elec       q    Type
REMARK                         _______ _______ _______ _____ _____    ______ ____
ROOT
ATOM      1  C   UNL     1     -11.327  12.003  66.275  0.00  0.00    +0.180 C 
ATOM      2  C   UNL     1     -10.511  13.141  66.866  0.00  0.00    +0.037 C 
ATOM      3  C   UNL     1     -11.811  13.988  67.287  0.00  0.00    +0.003 C 
ATOM      4  C   UNL     1     -11.229  15.585  67.297  0.00  0.00    +0.001 C 
ATOM      5  C   UNL     1      -9.751  15.190  68.004  0.00  0.00    +0.004 C 
ATOM      6  C   UNL     1      -8.853  14.902  66.703  0.00  0.00    +0.000 C 
ATOM      7  C   UNL     1      -9.413  16.841  68.218  0.00  0.00    +0.019 C 
ATOM      8  C   UNL     1      -9.065  17.217  66.706  0.00  0.00    -0.043 C 
ATOM      9  C   UNL     1      -8.144  18.148  66.532  0.00  0.00    +0.010 C 
ATOM     10  C   UNL     1      -7.142  18.516  67.517  0.00  0.00    +0.101 C 
ATOM     11  C   UNL     1      -7.331  17.912  68.875  0.00  0.00    +0.050 C 
ATOM     12  N   UNL     1      -5.916  18.773  67.182  0.00  0.00    -0.034 NA
ATOM     13  O   UNL     1      -4.872  18.697  68.085  0.00  0.00    -0.143 OA
ATOM     14  C   UNL     1     -10.216  17.143  65.790  0.00  0.00    +0.022 C 
ATOM     15  C   UNL     1      -7.870  16.514  68.608  0.00  0.00    +0.010 C 
ATOM     16  C   UNL     1     -10.807  15.753  65.753  0.00  0.00    +0.004 C 
ATOM     17  C   UNL     1     -12.412  14.024  65.773  0.00  0.00    +0.004 C 
ATOM     18  C   UNL     1      -9.492  13.680  66.119  0.00  0.00    +0.003 C 
ATOM     19  C   UNL     1     -12.325  12.618  65.345  0.00  0.00    +0.043 C 
ATOM     20  O   UNL     1     -12.054  11.483  67.356  0.00  0.00    -0.212 OA
ENDROOT
BRANCH   1  22
ATOM     21  C   UNL     1     -10.159  10.359  65.152  0.00  0.00    -0.012 C 
ATOM     22  C   UNL     1     -10.509  10.966  65.614  0.00  0.00    -0.049 C 
ENDBRANCH   1  22
BRANCH   2  23
ATOM     23  C   UNL     1      -9.971  12.544  68.171  0.00  0.00    +0.003 C 
ATOM     24  C   UNL     1      -8.598  12.006  67.906  0.00  0.00    +0.000 C 
ENDBRANCH   2  23
TORSDOF 2
ENDMDL
MODEL 5
REMARK VINA RESULT:      -6.3      1.939      3.135
REMARK  Name = 
REMARK  2 active torsions:
REMARK  status: ('A' for Active; 'I' for Inactive)
REMARK    1  A    between atoms: C_2  and  C_3
REMARK    2  A    between atoms: C_22  and  C_23
REMARK                            x       y       z     vdW  Elec       q    Type
REMARK                         _______ _______ _______ _____ _____    ______ ____
ROOT
ATOM      1  C   UNL     1      -7.101  18.548  68.358  0.00  0.00    +0.180 C 
ATOM      2  C   UNL     1      -7.806  17.292  67.872  0.00  0.00    +0.037 C 
ATOM      3  C   UNL     1      -8.858  18.110  66.972  0.00  0.00    +0.003 C 
ATOM      4  C   UNL     1     -10.188  17.055  66.900  0.00  0.00    +0.001 C 
ATOM      5  C   UNL     1      -9.254  15.664  66.719  0.00  0.00    +0.004 C 
ATOM      6  C   UNL     1      -9.035  15.237  68.252  0.00  0.00    +0.000 C 
ATOM      7  C   UNL     1     -10.655  14.768  66.375  0.00  0.00    +0.019 C 
ATOM      8  C   UNL     1     -11.255  14.678  67.851  0.00  0.00    -0.043 C 
ATOM      9  C   UNL     1     -11.912  13.570  68.149  0.00  0.00    +0.010 C 
ATOM     10  C   UNL     1     -11.757  12.304  67.455  0.00  0.00    +0.101 C 
ATOM     11  C   UNL     1     -10.935  12.358  66.204  0.00  0.00    +0.050 C 
ATOM     12  N   UNL     1     -11.738  11.174  68.092  0.00  0.00    -0.034 NA
ATOM     13  O   UNL     1     -11.175  10.032  67.553  0.00  0.00    -0.143 OA
ATOM     14  C   UNL     1     -11.710  15.969  68.393  0.00  0.00    +0.022 C 
ATOM     15  C   UNL     1      -9.837  13.369  66.503  0.00  0.00    +0.010 C 
ATOM     16  C   UNL     1     -10.581  16.972  68.458  0.00  0.00    +0.004 C 
ATOM     17  C   UNL     1      -9.401  19.001  68.223  0.00  0.00    +0.004 C 
ATOM     18  C   UNL     1      -8.201  16.355  68.796  0.00  0.00    +0.003 C 
ATOM     19  C   UNL     1      -8.161  19.478  68.858  0.00  0.00    +0.043 C 
ATOM     20  O   UNL     1      -6.568  19.132  67.200  0.00  0.00    -0.212 OA
ENDROOT
BRANCH   1  22
ATOM     21  C   UNL     1      -5.468  18.285  69.968  0.00  0.00    -0.012 C 
ATOM     22  C   UNL     1      -6.059  18.289  69.371  0.00  0.00    -0.049 C 
ENDBRANCH   1  22
BRANCH   2  23
ATOM     23  C   UNL     1      -6.804  16.688  66.881  0.00  0.00    +0.003 C 
ATOM     24  C   UNL     1      -5.960  15.693  67.618  0.00  0.00    +0.000 C 
ENDBRANCH   2  23
TORSDOF 2
ENDMDL
MODEL 6
REMARK VINA RESULT:      -6.1      3.802      7.366
REMARK  Name = 
REMARK  2 active torsions:
REMARK  status: ('A' for Active; 'I' for Inactive)
REMARK    1  A    between atoms: C_2  and  C_3
REMARK    2  A    between atoms: C_22  and  C_23
REMARK                            x       y       z     vdW  Elec       q    Type
REMARK                         _______ _______ _______ _____ _____    ______ ____
ROOT
ATOM      1  C   UNL     1      -9.596  16.358  66.904  0.00  0.00    +0.180 C 
ATOM      2  C   UNL     1      -8.625  17.395  67.448  0.00  0.00    +0.037 C 
ATOM      3  C   UNL     1      -7.474  17.017  66.390  0.00  0.00    +0.003 C 
ATOM      4  C   UNL     1      -6.055  17.480  67.202  0.00  0.00    +0.001 C 
ATOM      5  C   UNL     1      -6.711  18.898  67.834  0.00  0.00    +0.004 C 
ATOM      6  C   UNL     1      -7.303  18.369  69.231  0.00  0.00    +0.000 C 
ATOM      7  C   UNL     1      -5.166  19.383  68.349  0.00  0.00    +0.019 C 
ATOM      8  C   UNL     1      -5.008  18.403  69.600  0.00  0.00    -0.043 C 
ATOM      9  C   UNL     1      -4.327  18.875  70.629  0.00  0.00    +0.010 C 
ATOM     10  C   UNL     1      -4.113  20.284  70.904  0.00  0.00    +0.101 C 
ATOM     11  C   UNL     1      -4.541  21.219  69.815  0.00  0.00    +0.050 C 
ATOM     12  N   UNL     1      -4.168  20.762  72.109  0.00  0.00    -0.034 NA
ATOM     13  O   UNL     1      -4.400  22.100  72.363  0.00  0.00    -0.143 OA
ATOM     14  C   UNL     1      -4.898  16.981  69.236  0.00  0.00    +0.022 C 
ATOM     15  C   UNL     1      -5.799  20.590  69.234  0.00  0.00    +0.010 C 
ATOM     16  C   UNL     1      -6.117  16.505  68.481  0.00  0.00    +0.004 C 
ATOM     17  C   UNL     1      -7.432  15.449  66.831  0.00  0.00    +0.004 C 
ATOM     18  C   UNL     1      -8.395  17.439  68.801  0.00  0.00    +0.003 C 
ATOM     19  C   UNL     1      -8.852  15.062  66.827  0.00  0.00    +0.043 C 
ATOM     20  O   UNL     1      -9.845  16.758  65.584  0.00  0.00    -0.212 OA
ENDROOT
BRANCH   1  22
ATOM     21  C   UNL     1     -11.505  16.044  68.162  0.00  0.00    -0.012 C 
ATOM     22  C   UNL     1     -10.842  16.244  67.688  0.00  0.00    -0.049 C 
ENDBRANCH   1  22
BRANCH   2  23
ATOM     23  C   UNL     1      -9.215  18.720  66.955  0.00  0.00    +0.003 C 
ATOM     24  C   UNL     1     -10.061  19.293  68.051  0.00  0.00    +0.000 C 
ENDBRANCH   2  23
TORSDOF 2
ENDMDL
MODEL 7
REMARK VINA RESULT:      -6.0      2.688      3.691
REMARK  Name = 
REMARK  2 active torsions:
REMARK  status: ('A' for Active; 'I' for Inactive)
REMARK    1  A    between atoms: C_2  and  C_3
REMARK    2  A    between atoms: C_22  and  C_23
REMARK                            x       y       z     vdW  Elec       q    Type
REMARK                         _______ _______ _______ _____ _____    ______ ____
ROOT
ATOM      1  C   UNL     1      -8.053  18.149  67.772  0.00  0.00    +0.180 C 
ATOM      2  C   UNL     1      -8.635  16.744  67.777  0.00  0.00    +0.037 C 
ATOM      3  C   UNL     1      -9.970  17.187  66.999  0.00  0.00    +0.003 C 
ATOM      4  C   UNL     1     -11.099  16.019  67.501  0.00  0.00    +0.001 C 
ATOM      5  C   UNL     1     -10.014  14.733  67.423  0.00  0.00    +0.004 C 
ATOM      6  C   UNL     1      -9.410  14.747  68.911  0.00  0.00    +0.000 C 
ATOM      7  C   UNL     1     -11.294  13.640  67.649  0.00  0.00    +0.019 C 
ATOM      8  C   UNL     1     -11.546  13.879  69.207  0.00  0.00    -0.043 C 
ATOM      9  C   UNL     1     -11.939  12.827  69.905  0.00  0.00    +0.010 C 
ATOM     10  C   UNL     1     -11.733  11.446  69.506  0.00  0.00    +0.101 C 
ATOM     11  C   UNL     1     -11.214  11.254  68.115  0.00  0.00    +0.050 C 
ATOM     12  N   UNL     1     -11.399  10.531  70.362  0.00  0.00    -0.034 NA
ATOM     13  O   UNL     1     -10.788   9.351  69.981  0.00  0.00    -0.143 OA
ATOM     14  C   UNL     1     -12.076  15.214  69.531  0.00  0.00    +0.022 C 
ATOM     15  C   UNL     1     -10.255  12.414  67.893  0.00  0.00    +0.010 C 
ATOM     16  C   UNL     1     -11.135  16.308  69.083  0.00  0.00    +0.004 C 
ATOM     17  C   UNL     1     -10.372  18.314  68.105  0.00  0.00    +0.004 C 
ATOM     18  C   UNL     1      -8.670  16.048  68.961  0.00  0.00    +0.003 C 
ATOM     19  C   UNL     1      -9.119  19.065  68.288  0.00  0.00    +0.043 C 
ATOM     20  O   UNL     1      -7.878  18.460  66.416  0.00  0.00    -0.212 OA
ENDROOT
BRANCH   1  22
ATOM     21  C   UNL     1      -6.139  18.458  69.023  0.00  0.00    -0.012 C 
ATOM     22  C   UNL     1      -6.793  18.272  68.531  0.00  0.00    -0.049 C 
ENDBRANCH   1  22
BRANCH   2  23
ATOM     23  C   UNL     1      -7.781  16.008  66.739  0.00  0.00    +0.003 C 
ATOM     24  C   UNL     1      -6.680  15.293  67.461  0.00  0.00    +0.000 C 
ENDBRANCH   2  23
TORSDOF 2
ENDMDL
MODEL 8
REMARK VINA RESULT:      -6.0      1.899      2.993
REMARK  Name = 
REMARK  2 active torsions:
REMARK  status: ('A' for Active; 'I' for Inactive)
REMARK    1  A    between atoms: C_2  and  C_3
REMARK    2  A    between atoms: C_22  and  C_23
REMARK                            x       y       z     vdW  Elec       q    Type
REMARK                         _______ _______ _______ _____ _____    ______ ____
ROOT
ATOM      1  C   UNL     1     -10.032  16.951  68.604  0.00  0.00    +0.180 C 
ATOM      2  C   UNL     1     -10.186  15.890  67.527  0.00  0.00    +0.037 C 
ATOM      3  C   UNL     1     -11.730  15.614  67.880  0.00  0.00    +0.003 C 
ATOM      4  C   UNL     1     -11.953  14.012  67.356  0.00  0.00    +0.001 C 
ATOM      5  C   UNL     1     -11.038  14.196  65.953  0.00  0.00    +0.004 C 
ATOM      6  C   UNL     1      -9.576  13.789  66.481  0.00  0.00    +0.000 C 
ATOM      7  C   UNL     1     -11.571  12.678  65.407  0.00  0.00    +0.019 C 
ATOM      8  C   UNL     1     -10.689  11.752  66.362  0.00  0.00    -0.043 C 
ATOM      9  C   UNL     1     -10.287  10.601  65.853  0.00  0.00    +0.010 C 
ATOM     10  C   UNL     1     -10.187  10.315  64.432  0.00  0.00    +0.101 C 
ATOM     11  C   UNL     1     -10.777  11.354  63.529  0.00  0.00    +0.050 C 
ATOM     12  N   UNL     1      -9.196   9.638  63.940  0.00  0.00    -0.034 NA
ATOM     13  O   UNL     1      -8.840   9.715  62.606  0.00  0.00    -0.143 OA
ATOM     14  C   UNL     1     -11.057  11.835  67.785  0.00  0.00    +0.022 C 
ATOM     15  C   UNL     1     -10.473  12.680  64.210  0.00  0.00    +0.010 C 
ATOM     16  C   UNL     1     -10.913  13.244  68.314  0.00  0.00    +0.004 C 
ATOM     17  C   UNL     1     -11.423  15.253  69.439  0.00  0.00    +0.004 C 
ATOM     18  C   UNL     1      -9.256  14.881  67.455  0.00  0.00    +0.003 C 
ATOM     19  C   UNL     1     -10.560  16.364  69.875  0.00  0.00    +0.043 C 
ATOM     20  O   UNL     1     -10.919  17.971  68.233  0.00  0.00    -0.212 OA
ENDROOT
BRANCH   1  22
ATOM     21  C   UNL     1      -7.925  17.839  68.917  0.00  0.00    -0.012 C 
ATOM     22  C   UNL     1      -8.650  17.453  68.750  0.00  0.00    -0.049 C 
ENDBRANCH   1  22
BRANCH   2  23
ATOM     23  C   UNL     1     -10.202  16.706  66.230  0.00  0.00    +0.003 C 
ATOM     24  C   UNL     1      -8.789  16.862  65.757  0.00  0.00    +0.000 C 
ENDBRANCH   2  23
TORSDOF 2
ENDMDL
MODEL 9
REMARK VINA RESULT:      -6.0      2.991      6.612
REMARK  Name = 
REMARK  2 active torsions:
REMARK  status: ('A' for Active; 'I' for Inactive)
REMARK    1  A    between atoms: C_2  and  C_3
REMARK    2  A    between atoms: C_22  and  C_23
REMARK                            x       y       z     vdW  Elec       q    Type
REMARK                         _______ _______ _______ _____ _____    ______ ____
ROOT
ATOM      1  C   UNL     1     -11.240  13.665  67.694  0.00  0.00    +0.180 C 
ATOM      2  C   UNL     1     -10.500  14.973  67.925  0.00  0.00    +0.037 C 
ATOM      3  C   UNL     1     -10.227  15.210  66.358  0.00  0.00    +0.003 C 
ATOM      4  C   UNL     1      -8.827  16.175  66.365  0.00  0.00    +0.001 C 
ATOM      5  C   UNL     1      -9.315  17.119  67.673  0.00  0.00    +0.004 C 
ATOM      6  C   UNL     1      -8.708  16.282  68.902  0.00  0.00    +0.000 C 
ATOM      7  C   UNL     1      -8.019  18.181  67.389  0.00  0.00    +0.019 C 
ATOM      8  C   UNL     1      -6.833  17.272  67.950  0.00  0.00    -0.043 C 
ATOM      9  C   UNL     1      -5.831  17.910  68.530  0.00  0.00    +0.010 C 
ATOM     10  C   UNL     1      -5.914  19.249  69.086  0.00  0.00    +0.101 C 
ATOM     11  C   UNL     1      -7.180  19.989  68.782  0.00  0.00    +0.050 C 
ATOM     12  N   UNL     1      -5.334  19.562  70.203  0.00  0.00    -0.034 NA
ATOM     13  O   UNL     1      -5.731  20.646  70.963  0.00  0.00    -0.143 OA
ATOM     14  C   UNL     1      -6.568  16.068  67.146  0.00  0.00    +0.022 C 
ATOM     15  C   UNL     1      -8.269  18.926  68.812  0.00  0.00    +0.010 C 
ATOM     16  C   UNL     1      -7.784  15.173  67.069  0.00  0.00    +0.004 C 
ATOM     17  C   UNL     1      -9.462  13.785  66.164  0.00  0.00    +0.004 C 
ATOM     18  C   UNL     1      -9.495  15.008  68.860  0.00  0.00    +0.003 C 
ATOM     19  C   UNL     1     -10.376  12.825  66.807  0.00  0.00    +0.043 C 
ATOM     20  O   UNL     1     -12.367  14.018  66.939  0.00  0.00    -0.212 OA
ENDROOT
BRANCH   1  22
ATOM     21  C   UNL     1     -11.829  12.450  69.565  0.00  0.00    -0.012 C 
ATOM     22  C   UNL     1     -11.611  12.966  68.940  0.00  0.00    -0.049 C 
ENDBRANCH   1  22
BRANCH   2  23
ATOM     23  C   UNL     1     -11.621  15.950  68.297  0.00  0.00    +0.003 C 
ATOM     24  C   UNL     1     -11.735  15.985  69.790  0.00  0.00    +0.000 C 
ENDBRANCH   2  23
TORSDOF 2
ENDMDL
