MODEL 1
REMARK VINA RESULT:      -7.9      0.000      0.000
REMARK  Name = 
REMARK  10 active torsions:
REMARK  status: ('A' for Active; 'I' for Inactive)
REMARK    1  A    between atoms: O_2  and  C_3
REMARK    2  A    between atoms: C_3  and  C_5
REMARK    3  A    between atoms: C_6  and  O_7
REMARK    4  A    between atoms: C_9  and  O_10
REMARK    5  A    between atoms: O_10  and  C_11
REMARK    6  A    between atoms: C_11  and  C_13
REMARK    7  A    between atoms: C_15  and  O_16
REMARK    8  A    between atoms: C_18  and  O_19
REMARK    9  A    between atoms: C_21  and  O_22
REMARK   10  A    between atoms: C_35  and  O_36
REMARK                            x       y       z     vdW  Elec       q    Type
REMARK                         _______ _______ _______ _____ _____    ______ ____
ROOT
ATOM      1  C   UNL     1      -9.415  15.041  67.063  0.00  0.00    +0.130 C 
ATOM      2  C   UNL     1      -9.205  15.555  68.637  0.00  0.00    +0.016 C 
ATOM      3  C   UNL     1     -10.567  16.442  69.098  0.00  0.00    +0.020 C 
ATOM      4  C   UNL     1     -10.694  17.551  67.945  0.00  0.00    +0.072 C 
ATOM      5  N   UNL     1      -9.601  18.473  68.086  0.00  0.00    -0.269 NA
ATOM      6  C   UNL     1      -8.685  17.586  67.149  0.00  0.00    +0.098 C 
ATOM      7  C   UNL     1      -7.442  18.616  67.197  0.00  0.00    +0.069 A 
ATOM      8  C   UNL     1      -7.760  19.532  66.196  0.00  0.00    -0.004 A 
ATOM      9  C   UNL     1      -6.609  20.018  65.620  0.00  0.00    +0.015 A 
ATOM     10  C   UNL     1      -5.610  19.394  66.353  0.00  0.00    +0.084 A 
ATOM     11  C   UNL     1      -4.338  19.898  66.193  0.00  0.00    +0.056 A 
ATOM     12  C   UNL     1      -3.991  20.639  65.100  0.00  0.00    +0.140 A 
ATOM     13  C   UNL     1      -4.995  20.888  64.177  0.00  0.00    +0.037 A 
ATOM     14  C   UNL     1      -6.335  20.583  64.390  0.00  0.00    +0.004 A 
ATOM     15  C   UNL     1      -9.199  19.884  66.087  0.00  0.00    +0.045 C 
ATOM     16  N   UNL     1      -6.168  18.266  66.862  0.00  0.00    -0.249 NA
ATOM     17  C   UNL     1      -9.872  19.689  67.442  0.00  0.00    +0.077 C 
ATOM     18  C   UNL     1     -11.593  15.281  68.574  0.00  0.00    +0.048 C 
ATOM     19  C   UNL     1     -10.641  14.079  69.154  0.00  0.00    +0.197 C 
ATOM     20  C   UNL     1      -8.148  16.767  68.431  0.00  0.00    +0.023 C 
ATOM     21  C   UNL     1     -10.111  13.566  67.617  0.00  0.00    +0.166 C 
ENDROOT
BRANCH   1  22
ATOM     22  C   UNL     1     -10.716  15.656  66.404  0.00  0.00    +0.319 C 
ATOM     23  O   UNL     1     -10.528  16.330  65.315  0.00  0.00    -0.250 OA
BRANCH  22  25
ATOM     24  C   UNL     1     -12.054  14.592  64.552  0.00  0.00    +0.256 C 
ATOM     25  O   UNL     1     -11.469  14.625  65.790  0.00  0.00    -0.444 OA
ENDBRANCH  22  25
ENDBRANCH   1  22
BRANCH  12  26
ATOM     26  O   UNL     1      -2.819  21.389  64.989  0.00  0.00    -0.471 OA
ATOM     27  C   UNL     1      -2.773  22.665  65.631  0.00  0.00    +0.252 C 
ENDBRANCH  12  26
BRANCH  21  28
ATOM     28  O   UNL     1      -8.798  13.161  68.209  0.00  0.00    -0.349 OA
ATOM     29  C   UNL     1      -8.504  11.878  67.871  0.00  0.00    +0.174 C 
ENDBRANCH  21  28
BRANCH  19  30
ATOM     30  O   UNL     1     -11.796  13.106  69.307  0.00  0.00    -0.447 OA
BRANCH  30  31
ATOM     31  C   UNL     1     -12.022  12.400  70.413  0.00  0.00    +0.341 C 
ATOM     32  O   UNL     1     -12.917  12.890  71.157  0.00  0.00    -0.245 OA
BRANCH  31  33
ATOM     33  C   UNL     1     -12.117  10.936  70.285  0.00  0.00    +0.082 A 
ATOM     34  C   UNL     1     -10.915  10.234  70.256  0.00  0.00    +0.047 A 
ATOM     35  C   UNL     1     -10.928   8.840  70.239  0.00  0.00    +0.176 A 
ATOM     36  C   UNL     1     -11.926   8.214  70.913  0.00  0.00    +0.206 A 
ATOM     37  C   UNL     1     -12.983   8.974  71.400  0.00  0.00    +0.176 A 
ATOM     38  C   UNL     1     -13.113  10.281  70.992  0.00  0.00    +0.047 A 
BRANCH  35  39
ATOM     39  O   UNL     1      -9.997   8.108  69.493  0.00  0.00    -0.468 OA
ATOM     40  C   UNL     1     -10.125   8.115  68.107  0.00  0.00    +0.253 C 
ENDBRANCH  35  39
BRANCH  36  41
ATOM     41  O   UNL     1     -11.791   6.876  71.279  0.00  0.00    -0.465 OA
ATOM     42  C   UNL     1     -10.994   6.555  72.420  0.00  0.00    +0.253 C 
ENDBRANCH  36  41
BRANCH  37  43
ATOM     43  O   UNL     1     -13.814   8.416  72.375  0.00  0.00    -0.468 OA
ATOM     44  C   UNL     1     -15.046   7.866  71.995  0.00  0.00    +0.253 C 
ENDBRANCH  37  43
ENDBRANCH  31  33
ENDBRANCH  30  31
ENDBRANCH  19  30
TORSDOF 10
ENDMDL
MODEL 2
REMARK VINA RESULT:      -7.6      2.291      4.429
REMARK  Name = 
REMARK  10 active torsions:
REMARK  status: ('A' for Active; 'I' for Inactive)
REMARK    1  A    between atoms: O_2  and  C_3
REMARK    2  A    between atoms: C_3  and  C_5
REMARK    3  A    between atoms: C_6  and  O_7
REMARK    4  A    between atoms: C_9  and  O_10
REMARK    5  A    between atoms: O_10  and  C_11
REMARK    6  A    between atoms: C_11  and  C_13
REMARK    7  A    between atoms: C_15  and  O_16
REMARK    8  A    between atoms: C_18  and  O_19
REMARK    9  A    between atoms: C_21  and  O_22
REMARK   10  A    between atoms: C_35  and  O_36
REMARK                            x       y       z     vdW  Elec       q    Type
REMARK                         _______ _______ _______ _____ _____    ______ ____
ROOT
ATOM      1  C   UNL     1     -10.135  12.382  66.017  0.00  0.00    +0.130 C 
ATOM      2  C   UNL     1      -9.287  12.025  67.411  0.00  0.00    +0.016 C 
ATOM      3  C   UNL     1     -10.394  11.682  68.640  0.00  0.00    +0.020 C 
ATOM      4  C   UNL     1     -11.356  12.967  68.641  0.00  0.00    +0.072 C 
ATOM      5  N   UNL     1     -10.606  14.089  69.136  0.00  0.00    -0.269 NA
ATOM      6  C   UNL     1     -10.109  14.447  67.677  0.00  0.00    +0.098 C 
ATOM      7  C   UNL     1      -9.309  15.767  68.150  0.00  0.00    +0.069 A 
ATOM      8  C   UNL     1     -10.303  16.743  68.164  0.00  0.00    -0.004 A 
ATOM      9  C   UNL     1      -9.764  17.970  67.851  0.00  0.00    +0.015 A 
ATOM     10  C   UNL     1      -8.414  17.685  67.706  0.00  0.00    +0.084 A 
ATOM     11  C   UNL     1      -7.568  18.771  67.665  0.00  0.00    +0.056 A 
ATOM     12  C   UNL     1      -8.017  20.021  67.349  0.00  0.00    +0.140 A 
ATOM     13  C   UNL     1      -9.376  20.146  67.107  0.00  0.00    +0.037 A 
ATOM     14  C   UNL     1     -10.301  19.133  67.336  0.00  0.00    +0.004 A 
ATOM     15  C   UNL     1     -11.633  16.292  68.648  0.00  0.00    +0.045 C 
ATOM     16  N   UNL     1      -8.342  16.364  67.398  0.00  0.00    -0.249 NA
ATOM     17  C   UNL     1     -11.453  15.108  69.593  0.00  0.00    +0.077 C 
ATOM     18  C   UNL     1     -11.224  10.631  67.701  0.00  0.00    +0.048 C 
ATOM     19  C   UNL     1      -9.850  10.008  67.060  0.00  0.00    +0.197 C 
ATOM     20  C   UNL     1      -8.814  13.505  67.875  0.00  0.00    +0.023 C 
ATOM     21  C   UNL     1     -10.069  10.731  65.531  0.00  0.00    +0.166 C 
ENDROOT
BRANCH   1  22
ATOM     22  C   UNL     1     -11.695  12.466  66.275  0.00  0.00    +0.319 C 
ATOM     23  O   UNL     1     -12.217  13.645  66.170  0.00  0.00    -0.250 OA
BRANCH  22  25
ATOM     24  C   UNL     1     -12.528  12.409  63.897  0.00  0.00    +0.256 C 
ATOM     25  O   UNL     1     -12.388  11.917  65.167  0.00  0.00    -0.444 OA
ENDBRANCH  22  25
ENDBRANCH   1  22
BRANCH  12  26
ATOM     26  O   UNL     1      -7.289  21.196  67.536  0.00  0.00    -0.471 OA
ATOM     27  C   UNL     1      -5.914  21.206  67.146  0.00  0.00    +0.252 C 
ENDBRANCH  12  26
BRANCH  21  28
ATOM     28  O   UNL     1      -8.585  10.831  65.371  0.00  0.00    -0.349 OA
ATOM     29  C   UNL     1      -8.180  10.126  64.282  0.00  0.00    +0.174 C 
ENDBRANCH  21  28
BRANCH  19  30
ATOM     30  O   UNL     1     -10.490   8.668  66.745  0.00  0.00    -0.447 OA
BRANCH  30  31
ATOM     31  C   UNL     1     -10.154   7.531  67.353  0.00  0.00    +0.341 C 
ATOM     32  O   UNL     1      -9.098   7.005  66.902  0.00  0.00    -0.245 OA
BRANCH  31  33
ATOM     33  C   UNL     1     -10.241   7.487  68.821  0.00  0.00    +0.082 A 
ATOM     34  C   UNL     1     -11.276   6.730  69.362  0.00  0.00    +0.047 A 
ATOM     35  C   UNL     1     -11.360   6.558  70.744  0.00  0.00    +0.176 A 
ATOM     36  C   UNL     1     -10.195   6.493  71.439  0.00  0.00    +0.206 A 
ATOM     37  C   UNL     1      -9.009   6.804  70.786  0.00  0.00    +0.176 A 
ATOM     38  C   UNL     1      -9.061   7.389  69.543  0.00  0.00    +0.047 A 
BRANCH  35  39
ATOM     39  O   UNL     1     -12.593   6.532  71.405  0.00  0.00    -0.468 OA
ATOM     40  C   UNL     1     -13.215   7.749  71.667  0.00  0.00    +0.253 C 
ENDBRANCH  35  39
BRANCH  36  41
ATOM     41  O   UNL     1     -10.174   5.935  72.716  0.00  0.00    -0.465 OA
ATOM     42  C   UNL     1     -10.222   6.809  73.845  0.00  0.00    +0.253 C 
ENDBRANCH  36  41
BRANCH  37  43
ATOM     43  O   UNL     1      -7.802   6.409  71.370  0.00  0.00    -0.468 OA
ATOM     44  C   UNL     1      -6.929   7.385  71.872  0.00  0.00    +0.253 C 
ENDBRANCH  37  43
ENDBRANCH  31  33
ENDBRANCH  30  31
ENDBRANCH  19  30
TORSDOF 10
ENDMDL
MODEL 3
REMARK VINA RESULT:      -7.6      1.572      2.538
REMARK  Name = 
REMARK  10 active torsions:
REMARK  status: ('A' for Active; 'I' for Inactive)
REMARK    1  A    between atoms: O_2  and  C_3
REMARK    2  A    between atoms: C_3  and  C_5
REMARK    3  A    between atoms: C_6  and  O_7
REMARK    4  A    between atoms: C_9  and  O_10
REMARK    5  A    between atoms: O_10  and  C_11
REMARK    6  A    between atoms: C_11  and  C_13
REMARK    7  A    between atoms: C_15  and  O_16
REMARK    8  A    between atoms: C_18  and  O_19
REMARK    9  A    between atoms: C_21  and  O_22
REMARK   10  A    between atoms: C_35  and  O_36
REMARK                            x       y       z     vdW  Elec       q    Type
REMARK                         _______ _______ _______ _____ _____    ______ ____
ROOT
ATOM      1  C   UNL     1      -9.171  14.702  66.774  0.00  0.00    +0.130 C 
ATOM      2  C   UNL     1      -9.282  14.696  68.440  0.00  0.00    +0.016 C 
ATOM      3  C   UNL     1     -10.771  15.360  68.881  0.00  0.00    +0.020 C 
ATOM      4  C   UNL     1     -10.786  16.774  68.121  0.00  0.00    +0.072 C 
ATOM      5  N   UNL     1      -9.813  17.629  68.744  0.00  0.00    -0.269 NA
ATOM      6  C   UNL     1      -8.678  17.105  67.774  0.00  0.00    +0.098 C 
ATOM      7  C   UNL     1      -7.552  18.095  68.373  0.00  0.00    +0.069 A 
ATOM      8  C   UNL     1      -7.763  19.273  67.659  0.00  0.00    -0.004 A 
ATOM      9  C   UNL     1      -6.573  19.943  67.491  0.00  0.00    +0.015 A 
ATOM     10  C   UNL     1      -5.670  19.142  68.175  0.00  0.00    +0.084 A 
ATOM     11  C   UNL     1      -4.435  19.700  68.423  0.00  0.00    +0.056 A 
ATOM     12  C   UNL     1      -3.965  20.756  67.698  0.00  0.00    +0.140 A 
ATOM     13  C   UNL     1      -4.810  21.261  66.722  0.00  0.00    +0.037 A 
ATOM     14  C   UNL     1      -6.136  20.874  66.570  0.00  0.00    +0.004 A 
ATOM     15  C   UNL     1      -9.185  19.608  67.390  0.00  0.00    +0.045 C 
ATOM     16  N   UNL     1      -6.214  17.898  68.197  0.00  0.00    -0.249 NA
ATOM     17  C   UNL     1     -10.067  18.980  68.465  0.00  0.00    +0.077 C 
ATOM     18  C   UNL     1     -11.591  14.401  67.840  0.00  0.00    +0.048 C 
ATOM     19  C   UNL     1     -10.660  13.100  68.195  0.00  0.00    +0.197 C 
ATOM     20  C   UNL     1      -8.308  15.935  68.821  0.00  0.00    +0.023 C 
ATOM     21  C   UNL     1      -9.830  13.112  66.706  0.00  0.00    +0.166 C 
ENDROOT
BRANCH   1  22
ATOM     22  C   UNL     1     -10.383  15.464  66.099  0.00  0.00    +0.319 C 
ATOM     23  O   UNL     1     -10.067  16.489  65.375  0.00  0.00    -0.250 OA
BRANCH  22  25
ATOM     24  C   UNL     1     -12.063  14.823  64.333  0.00  0.00    +0.256 C 
ATOM     25  O   UNL     1     -10.886  14.694  65.022  0.00  0.00    -0.444 OA
ENDBRANCH  22  25
ENDBRANCH   1  22
BRANCH  12  26
ATOM     26  O   UNL     1      -2.857  21.530  68.049  0.00  0.00    -0.471 OA
ATOM     27  C   UNL     1      -2.161  21.202  69.252  0.00  0.00    +0.252 C 
ENDBRANCH  12  26
BRANCH  21  28
ATOM     28  O   UNL     1      -8.611  12.571  67.385  0.00  0.00    -0.349 OA
ATOM     29  C   UNL     1      -8.079  11.554  66.658  0.00  0.00    +0.174 C 
ENDBRANCH  21  28
BRANCH  19  30
ATOM     30  O   UNL     1     -11.741  12.102  67.818  0.00  0.00    -0.447 OA
BRANCH  30  31
ATOM     31  C   UNL     1     -11.688  10.808  68.126  0.00  0.00    +0.341 C 
ATOM     32  O   UNL     1     -11.062  10.108  67.281  0.00  0.00    -0.245 OA
BRANCH  31  33
ATOM     33  C   UNL     1     -11.377  10.446  69.518  0.00  0.00    +0.082 A 
ATOM     34  C   UNL     1     -12.361   9.750  70.215  0.00  0.00    +0.047 A 
ATOM     35  C   UNL     1     -12.098   9.285  71.504  0.00  0.00    +0.176 A 
ATOM     36  C   UNL     1     -10.829   8.891  71.782  0.00  0.00    +0.206 A 
ATOM     37  C   UNL     1      -9.828   9.161  70.857  0.00  0.00    +0.176 A 
ATOM     38  C   UNL     1     -10.093  10.013  69.811  0.00  0.00    +0.047 A 
BRANCH  35  39
ATOM     39  O   UNL     1     -13.081   9.295  72.500  0.00  0.00    -0.468 OA
ATOM     40  C   UNL     1     -14.295   8.672  72.221  0.00  0.00    +0.253 C 
ENDBRANCH  35  39
BRANCH  36  41
ATOM     41  O   UNL     1     -10.578   8.063  72.874  0.00  0.00    -0.465 OA
ATOM     42  C   UNL     1     -10.937   6.683  72.784  0.00  0.00    +0.253 C 
ENDBRANCH  36  41
BRANCH  37  43
ATOM     43  O   UNL     1      -8.619   8.468  70.960  0.00  0.00    -0.468 OA
ATOM     44  C   UNL     1      -8.377   7.376  70.114  0.00  0.00    +0.253 C 
ENDBRANCH  37  43
ENDBRANCH  31  33
ENDBRANCH  30  31
ENDBRANCH  19  30
TORSDOF 10
ENDMDL
MODEL 4
REMARK VINA RESULT:      -7.6      2.242      4.085
REMARK  Name = 
REMARK  10 active torsions:
REMARK  status: ('A' for Active; 'I' for Inactive)
REMARK    1  A    between atoms: O_2  and  C_3
REMARK    2  A    between atoms: C_3  and  C_5
REMARK    3  A    between atoms: C_6  and  O_7
REMARK    4  A    between atoms: C_9  and  O_10
REMARK    5  A    between atoms: O_10  and  C_11
REMARK    6  A    between atoms: C_11  and  C_13
REMARK    7  A    between atoms: C_15  and  O_16
REMARK    8  A    between atoms: C_18  and  O_19
REMARK    9  A    between atoms: C_21  and  O_22
REMARK   10  A    between atoms: C_35  and  O_36
REMARK                            x       y       z     vdW  Elec       q    Type
REMARK                         _______ _______ _______ _____ _____    ______ ____
ROOT
ATOM      1  C   UNL     1     -10.119  12.381  66.133  0.00  0.00    +0.130 C 
ATOM      2  C   UNL     1      -9.344  12.041  67.573  0.00  0.00    +0.016 C 
ATOM      3  C   UNL     1     -10.513  11.737  68.753  0.00  0.00    +0.020 C 
ATOM      4  C   UNL     1     -11.456  13.035  68.683  0.00  0.00    +0.072 C 
ATOM      5  N   UNL     1     -10.715  14.156  69.192  0.00  0.00    -0.269 NA
ATOM      6  C   UNL     1     -10.144  14.478  67.752  0.00  0.00    +0.098 C 
ATOM      7  C   UNL     1      -9.350  15.798  68.237  0.00  0.00    +0.069 A 
ATOM      8  C   UNL     1     -10.329  16.786  68.184  0.00  0.00    -0.004 A 
ATOM      9  C   UNL     1      -9.759  17.999  67.874  0.00  0.00    +0.015 A 
ATOM     10  C   UNL     1      -8.408  17.694  67.799  0.00  0.00    +0.084 A 
ATOM     11  C   UNL     1      -7.545  18.768  67.778  0.00  0.00    +0.056 A 
ATOM     12  C   UNL     1      -7.961  20.017  67.417  0.00  0.00    +0.140 A 
ATOM     13  C   UNL     1      -9.305  20.155  67.107  0.00  0.00    +0.037 A 
ATOM     14  C   UNL     1     -10.254  19.158  67.310  0.00  0.00    +0.004 A 
ATOM     15  C   UNL     1     -11.687  16.362  68.612  0.00  0.00    +0.045 C 
ATOM     16  N   UNL     1      -8.339  16.366  67.521  0.00  0.00    -0.249 NA
ATOM     17  C   UNL     1     -11.570  15.195  69.588  0.00  0.00    +0.077 C 
ATOM     18  C   UNL     1     -11.313  10.679  67.796  0.00  0.00    +0.048 C 
ATOM     19  C   UNL     1      -9.918  10.025  67.234  0.00  0.00    +0.197 C 
ATOM     20  C   UNL     1      -8.873  13.524  68.030  0.00  0.00    +0.023 C 
ATOM     21  C   UNL     1     -10.053  10.719  65.683  0.00  0.00    +0.166 C 
ENDROOT
BRANCH   1  22
ATOM     22  C   UNL     1     -11.688  12.490  66.314  0.00  0.00    +0.319 C 
ATOM     23  O   UNL     1     -12.186  13.677  66.180  0.00  0.00    -0.250 OA
BRANCH  22  25
ATOM     24  C   UNL     1     -12.467  12.474  63.917  0.00  0.00    +0.256 C 
ATOM     25  O   UNL     1     -12.335  11.949  65.174  0.00  0.00    -0.444 OA
ENDBRANCH  22  25
ENDBRANCH   1  22
BRANCH  12  26
ATOM     26  O   UNL     1      -7.226  21.186  67.615  0.00  0.00    -0.471 OA
ATOM     27  C   UNL     1      -5.806  21.120  67.480  0.00  0.00    +0.252 C 
ENDBRANCH  12  26
BRANCH  21  28
ATOM     28  O   UNL     1      -8.562  10.797  65.592  0.00  0.00    -0.349 OA
ATOM     29  C   UNL     1      -8.120  10.117  64.502  0.00  0.00    +0.174 C 
ENDBRANCH  21  28
BRANCH  19  30
ATOM     30  O   UNL     1     -10.560   8.687  66.916  0.00  0.00    -0.447 OA
BRANCH  30  31
ATOM     31  C   UNL     1     -10.070   7.519  67.325  0.00  0.00    +0.341 C 
ATOM     32  O   UNL     1      -9.000   7.183  66.745  0.00  0.00    -0.245 OA
BRANCH  31  33
ATOM     33  C   UNL     1     -10.049   7.253  68.773  0.00  0.00    +0.082 A 
ATOM     34  C   UNL     1      -8.878   7.580  69.450  0.00  0.00    +0.047 A 
ATOM     35  C   UNL     1      -8.821   7.452  70.838  0.00  0.00    +0.176 A 
ATOM     36  C   UNL     1      -9.960   7.696  71.536  0.00  0.00    +0.206 A 
ATOM     37  C   UNL     1     -11.152   7.851  70.839  0.00  0.00    +0.176 A 
ATOM     38  C   UNL     1     -11.195   7.526  69.504  0.00  0.00    +0.047 A 
BRANCH  35  39
ATOM     39  O   UNL     1      -7.661   7.013  71.485  0.00  0.00    -0.468 OA
ATOM     40  C   UNL     1      -7.439   5.641  71.562  0.00  0.00    +0.253 C 
ENDBRANCH  35  39
BRANCH  36  41
ATOM     41  O   UNL     1      -9.895   7.980  72.899  0.00  0.00    -0.465 OA
ATOM     42  C   UNL     1     -10.190   6.937  73.831  0.00  0.00    +0.253 C 
ENDBRANCH  36  41
BRANCH  37  43
ATOM     43  O   UNL     1     -12.237   8.439  71.495  0.00  0.00    -0.468 OA
ATOM     44  C   UNL     1     -12.472   9.812  71.340  0.00  0.00    +0.253 C 
ENDBRANCH  37  43
ENDBRANCH  31  33
ENDBRANCH  30  31
ENDBRANCH  19  30
TORSDOF 10
ENDMDL
MODEL 5
REMARK VINA RESULT:      -7.4      0.489      1.912
REMARK  Name = 
REMARK  10 active torsions:
REMARK  status: ('A' for Active; 'I' for Inactive)
REMARK    1  A    between atoms: O_2  and  C_3
REMARK    2  A    between atoms: C_3  and  C_5
REMARK    3  A    between atoms: C_6  and  O_7
REMARK    4  A    between atoms: C_9  and  O_10
REMARK    5  A    between atoms: O_10  and  C_11
REMARK    6  A    between atoms: C_11  and  C_13
REMARK    7  A    between atoms: C_15  and  O_16
REMARK    8  A    between atoms: C_18  and  O_19
REMARK    9  A    between atoms: C_21  and  O_22
REMARK   10  A    between atoms: C_35  and  O_36
REMARK                            x       y       z     vdW  Elec       q    Type
REMARK                         _______ _______ _______ _____ _____    ______ ____
ROOT
ATOM      1  C   UNL     1      -9.374  14.885  66.906  0.00  0.00    +0.130 C 
ATOM      2  C   UNL     1      -9.077  15.322  68.490  0.00  0.00    +0.016 C 
ATOM      3  C   UNL     1     -10.413  16.178  69.070  0.00  0.00    +0.020 C 
ATOM      4  C   UNL     1     -10.607  17.342  67.981  0.00  0.00    +0.072 C 
ATOM      5  N   UNL     1      -9.509  18.262  68.106  0.00  0.00    -0.269 NA
ATOM      6  C   UNL     1      -8.646  17.426  67.076  0.00  0.00    +0.098 C 
ATOM      7  C   UNL     1      -7.405  18.459  67.105  0.00  0.00    +0.069 A 
ATOM      8  C   UNL     1      -7.779  19.420  66.170  0.00  0.00    -0.004 A 
ATOM      9  C   UNL     1      -6.664  19.940  65.555  0.00  0.00    +0.015 A 
ATOM     10  C   UNL     1      -5.624  19.286  66.199  0.00  0.00    +0.084 A 
ATOM     11  C   UNL     1      -4.364  19.803  65.993  0.00  0.00    +0.056 A 
ATOM     12  C   UNL     1      -4.081  20.598  64.920  0.00  0.00    +0.140 A 
ATOM     13  C   UNL     1      -5.136  20.887  64.069  0.00  0.00    +0.037 A 
ATOM     14  C   UNL     1      -6.461  20.565  64.341  0.00  0.00    +0.004 A 
ATOM     15  C   UNL     1      -9.223  19.770  66.160  0.00  0.00    +0.045 C 
ATOM     16  N   UNL     1      -6.151  18.131  66.683  0.00  0.00    -0.249 NA
ATOM     17  C   UNL     1      -9.819  19.506  67.539  0.00  0.00    +0.077 C 
ATOM     18  C   UNL     1     -11.464  15.039  68.547  0.00  0.00    +0.048 C 
ATOM     19  C   UNL     1     -10.479  13.815  69.013  0.00  0.00    +0.197 C 
ATOM     20  C   UNL     1      -8.036  16.547  68.284  0.00  0.00    +0.023 C 
ATOM     21  C   UNL     1     -10.035  13.381  67.425  0.00  0.00    +0.166 C 
ENDROOT
BRANCH   1  22
ATOM     22  C   UNL     1     -10.711  15.525  66.353  0.00  0.00    +0.319 C 
ATOM     23  O   UNL     1     -10.586  16.252  65.289  0.00  0.00    -0.250 OA
BRANCH  22  25
ATOM     24  C   UNL     1     -12.129  14.537  64.518  0.00  0.00    +0.256 C 
ATOM     25  O   UNL     1     -11.496  14.521  65.732  0.00  0.00    -0.444 OA
ENDBRANCH  22  25
ENDBRANCH   1  22
BRANCH  12  26
ATOM     26  O   UNL     1      -2.919  21.359  64.781  0.00  0.00    -0.471 OA
ATOM     27  C   UNL     1      -2.398  22.010  65.941  0.00  0.00    +0.252 C 
ENDBRANCH  12  26
BRANCH  21  28
ATOM     28  O   UNL     1      -8.690  12.954  67.922  0.00  0.00    -0.349 OA
ATOM     29  C   UNL     1      -8.379  11.722  67.440  0.00  0.00    +0.174 C 
ENDBRANCH  21  28
BRANCH  19  30
ATOM     30  O   UNL     1     -11.621  12.830  69.182  0.00  0.00    -0.447 OA
BRANCH  30  31
ATOM     31  C   UNL     1     -12.028  12.370  70.364  0.00  0.00    +0.341 C 
ATOM     32  O   UNL     1     -13.195  12.736  70.679  0.00  0.00    -0.245 OA
BRANCH  31  33
ATOM     33  C   UNL     1     -11.761  10.957  70.679  0.00  0.00    +0.082 A 
ATOM     34  C   UNL     1     -12.868  10.161  70.960  0.00  0.00    +0.047 A 
ATOM     35  C   UNL     1     -12.701   8.792  71.167  0.00  0.00    +0.176 A 
ATOM     36  C   UNL     1     -11.725   8.166  70.461  0.00  0.00    +0.206 A 
ATOM     37  C   UNL     1     -10.821   8.937  69.741  0.00  0.00    +0.176 A 
ATOM     38  C   UNL     1     -10.788  10.296  69.945  0.00  0.00    +0.047 A 
BRANCH  35  39
ATOM     39  O   UNL     1     -13.455   8.099  72.120  0.00  0.00    -0.468 OA
ATOM     40  C   UNL     1     -14.830   8.010  71.922  0.00  0.00    +0.253 C 
ENDBRANCH  35  39
BRANCH  36  41
ATOM     41  O   UNL     1     -11.755   6.781  70.304  0.00  0.00    -0.465 OA
ATOM     42  C   UNL     1     -10.939   5.978  71.158  0.00  0.00    +0.253 C 
ENDBRANCH  36  41
BRANCH  37  43
ATOM     43  O   UNL     1     -10.052   8.317  68.753  0.00  0.00    -0.468 OA
ATOM     44  C   UNL     1      -8.684   8.106  68.977  0.00  0.00    +0.253 C 
ENDBRANCH  37  43
ENDBRANCH  31  33
ENDBRANCH  30  31
ENDBRANCH  19  30
TORSDOF 10
ENDMDL
MODEL 6
REMARK VINA RESULT:      -7.1      2.858     10.826
REMARK  Name = 
REMARK  10 active torsions:
REMARK  status: ('A' for Active; 'I' for Inactive)
REMARK    1  A    between atoms: O_2  and  C_3
REMARK    2  A    between atoms: C_3  and  C_5
REMARK    3  A    between atoms: C_6  and  O_7
REMARK    4  A    between atoms: C_9  and  O_10
REMARK    5  A    between atoms: O_10  and  C_11
REMARK    6  A    between atoms: C_11  and  C_13
REMARK    7  A    between atoms: C_15  and  O_16
REMARK    8  A    between atoms: C_18  and  O_19
REMARK    9  A    between atoms: C_21  and  O_22
REMARK   10  A    between atoms: C_35  and  O_36
REMARK                            x       y       z     vdW  Elec       q    Type
REMARK                         _______ _______ _______ _____ _____    ______ ____
ROOT
ATOM      1  C   UNL     1     -11.344  13.307  67.881  0.00  0.00    +0.130 C 
ATOM      2  C   UNL     1      -9.742  13.533  68.293  0.00  0.00    +0.016 C 
ATOM      3  C   UNL     1      -8.833  13.641  66.874  0.00  0.00    +0.020 C 
ATOM      4  C   UNL     1      -9.234  12.308  66.075  0.00  0.00    +0.072 C 
ATOM      5  N   UNL     1      -8.678  11.181  66.773  0.00  0.00    -0.269 NA
ATOM      6  C   UNL     1      -9.975  11.050  67.669  0.00  0.00    +0.098 C 
ATOM      7  C   UNL     1      -9.447   9.732  68.439  0.00  0.00    +0.069 A 
ATOM      8  C   UNL     1      -9.812   8.701  67.576  0.00  0.00    -0.004 A 
ATOM      9  C   UNL     1     -10.096   7.563  68.295  0.00  0.00    +0.015 A 
ATOM     10  C   UNL     1      -9.835   7.951  69.601  0.00  0.00    +0.084 A 
ATOM     11  C   UNL     1      -9.761   6.935  70.529  0.00  0.00    +0.056 A 
ATOM     12  C   UNL     1     -10.321   5.711  70.302  0.00  0.00    +0.140 A 
ATOM     13  C   UNL     1     -10.938   5.532  69.074  0.00  0.00    +0.037 A 
ATOM     14  C   UNL     1     -10.862   6.446  68.028  0.00  0.00    +0.004 A 
ATOM     15  C   UNL     1      -9.664   9.000  66.128  0.00  0.00    +0.045 C 
ATOM     16  N   UNL     1      -9.966   9.302  69.624  0.00  0.00    -0.249 NA
ATOM     17  C   UNL     1      -8.583  10.059  65.937  0.00  0.00    +0.077 C 
ATOM     18  C   UNL     1      -9.843  14.750  66.223  0.00  0.00    +0.048 C 
ATOM     19  C   UNL     1     -10.013  15.538  67.650  0.00  0.00    +0.197 C 
ATOM     20  C   UNL     1      -9.330  12.039  68.768  0.00  0.00    +0.023 C 
ATOM     21  C   UNL     1     -11.612  15.009  67.913  0.00  0.00    +0.166 C 
ENDROOT
BRANCH   1  22
ATOM     22  C   UNL     1     -11.534  13.091  66.325  0.00  0.00    +0.319 C 
ATOM     23  O   UNL     1     -12.061  11.962  65.976  0.00  0.00    -0.250 OA
BRANCH  22  25
ATOM     24  C   UNL     1     -12.811  14.457  64.636  0.00  0.00    +0.256 C 
ATOM     25  O   UNL     1     -12.613  13.886  65.864  0.00  0.00    -0.444 OA
ENDBRANCH  22  25
ENDBRANCH   1  22
BRANCH  12  26
ATOM     26  O   UNL     1     -10.071   4.570  71.066  0.00  0.00    -0.471 OA
ATOM     27  C   UNL     1      -9.857   4.732  72.469  0.00  0.00    +0.252 C 
ENDBRANCH  12  26
BRANCH  21  28
ATOM     28  O   UNL     1     -11.370  15.025  69.390  0.00  0.00    -0.349 OA
ATOM     29  C   UNL     1     -12.442  15.555  70.036  0.00  0.00    +0.174 C 
ENDBRANCH  21  28
BRANCH  19  30
ATOM     30  O   UNL     1     -10.343  16.865  66.990  0.00  0.00    -0.447 OA
BRANCH  30  31
ATOM     31  C   UNL     1     -10.071  18.047  67.537  0.00  0.00    +0.341 C 
ATOM     32  O   UNL     1     -10.565  18.202  68.689  0.00  0.00    -0.245 OA
BRANCH  31  33
ATOM     33  C   UNL     1      -8.693  18.554  67.428  0.00  0.00    +0.082 A 
ATOM     34  C   UNL     1      -8.471  19.558  66.490  0.00  0.00    +0.047 A 
ATOM     35  C   UNL     1      -7.214  20.157  66.402  0.00  0.00    +0.176 A 
ATOM     36  C   UNL     1      -6.504  20.295  67.551  0.00  0.00    +0.206 A 
ATOM     37  C   UNL     1      -6.959  19.659  68.699  0.00  0.00    +0.176 A 
ATOM     38  C   UNL     1      -7.966  18.729  68.596  0.00  0.00    +0.047 A 
BRANCH  35  39
ATOM     39  O   UNL     1      -6.667  20.532  65.170  0.00  0.00    -0.468 OA
ATOM     40  C   UNL     1      -6.036  19.549  64.412  0.00  0.00    +0.253 C 
ENDBRANCH  35  39
BRANCH  36  41
ATOM     41  O   UNL     1      -5.458  21.214  67.619  0.00  0.00    -0.465 OA
ATOM     42  C   UNL     1      -4.121  20.744  67.439  0.00  0.00    +0.253 C 
ENDBRANCH  36  41
BRANCH  37  43
ATOM     43  O   UNL     1      -6.453  20.069  69.935  0.00  0.00    -0.468 OA
ATOM     44  C   UNL     1      -5.493  19.278  70.582  0.00  0.00    +0.253 C 
ENDBRANCH  37  43
ENDBRANCH  31  33
ENDBRANCH  30  31
ENDBRANCH  19  30
TORSDOF 10
ENDMDL
MODEL 7
REMARK VINA RESULT:      -7.0      2.939     10.761
REMARK  Name = 
REMARK  10 active torsions:
REMARK  status: ('A' for Active; 'I' for Inactive)
REMARK    1  A    between atoms: O_2  and  C_3
REMARK    2  A    between atoms: C_3  and  C_5
REMARK    3  A    between atoms: C_6  and  O_7
REMARK    4  A    between atoms: C_9  and  O_10
REMARK    5  A    between atoms: O_10  and  C_11
REMARK    6  A    between atoms: C_11  and  C_13
REMARK    7  A    between atoms: C_15  and  O_16
REMARK    8  A    between atoms: C_18  and  O_19
REMARK    9  A    between atoms: C_21  and  O_22
REMARK   10  A    between atoms: C_35  and  O_36
REMARK                            x       y       z     vdW  Elec       q    Type
REMARK                         _______ _______ _______ _____ _____    ______ ____
ROOT
ATOM      1  C   UNL     1     -11.357  13.330  67.905  0.00  0.00    +0.130 C 
ATOM      2  C   UNL     1      -9.772  13.524  68.395  0.00  0.00    +0.016 C 
ATOM      3  C   UNL     1      -8.812  13.767  67.027  0.00  0.00    +0.020 C 
ATOM      4  C   UNL     1      -9.174  12.512  66.094  0.00  0.00    +0.072 C 
ATOM      5  N   UNL     1      -8.635  11.327  66.705  0.00  0.00    -0.269 NA
ATOM      6  C   UNL     1      -9.964  11.108  67.535  0.00  0.00    +0.098 C 
ATOM      7  C   UNL     1      -9.455   9.727  68.200  0.00  0.00    +0.069 A 
ATOM      8  C   UNL     1      -9.779   8.779  67.232  0.00  0.00    -0.004 A 
ATOM      9  C   UNL     1     -10.082   7.578  67.832  0.00  0.00    +0.015 A 
ATOM     10  C   UNL     1      -9.872   7.844  69.176  0.00  0.00    +0.084 A 
ATOM     11  C   UNL     1      -9.824   6.747  70.009  0.00  0.00    +0.056 A 
ATOM     12  C   UNL     1     -10.366   5.547  69.649  0.00  0.00    +0.140 A 
ATOM     13  C   UNL     1     -10.936   5.480  68.387  0.00  0.00    +0.037 A 
ATOM     14  C   UNL     1     -10.829   6.487  67.434  0.00  0.00    +0.004 A 
ATOM     15  C   UNL     1      -9.581   9.211  65.825  0.00  0.00    +0.045 C 
ATOM     16  N   UNL     1     -10.014   9.186  69.319  0.00  0.00    -0.249 NA
ATOM     17  C   UNL     1      -8.501  10.288  65.773  0.00  0.00    +0.077 C 
ATOM     18  C   UNL     1      -9.806  14.927  66.444  0.00  0.00    +0.048 C 
ATOM     19  C   UNL     1     -10.034  15.579  67.931  0.00  0.00    +0.197 C 
ATOM     20  C   UNL     1      -9.367  11.993  68.745  0.00  0.00    +0.023 C 
ATOM     21  C   UNL     1     -11.638  15.021  68.084  0.00  0.00    +0.166 C 
ENDROOT
BRANCH   1  22
ATOM     22  C   UNL     1     -11.487  13.259  66.329  0.00  0.00    +0.319 C 
ATOM     23  O   UNL     1     -12.053  12.193  65.861  0.00  0.00    -0.250 OA
BRANCH  22  25
ATOM     24  C   UNL     1     -12.813  14.567  64.631  0.00  0.00    +0.256 C 
ATOM     25  O   UNL     1     -12.504  14.147  65.897  0.00  0.00    -0.444 OA
ENDBRANCH  22  25
ENDBRANCH   1  22
BRANCH  12  26
ATOM     26  O   UNL     1     -10.137   4.341  70.313  0.00  0.00    -0.471 OA
ATOM     27  C   UNL     1      -9.429   3.314  69.617  0.00  0.00    +0.252 C 
ENDBRANCH  12  26
BRANCH  21  28
ATOM     28  O   UNL     1     -11.451  14.901  69.564  0.00  0.00    -0.349 OA
ATOM     29  C   UNL     1     -12.439  15.566  70.219  0.00  0.00    +0.174 C 
ENDBRANCH  21  28
BRANCH  19  30
ATOM     30  O   UNL     1     -10.349  16.959  67.384  0.00  0.00    -0.447 OA
BRANCH  30  31
ATOM     31  C   UNL     1      -9.450  17.737  66.786  0.00  0.00    +0.341 C 
ATOM     32  O   UNL     1      -9.905  18.375  65.795  0.00  0.00    -0.245 OA
BRANCH  31  33
ATOM     33  C   UNL     1      -8.570  18.551  67.640  0.00  0.00    +0.082 A 
ATOM     34  C   UNL     1      -7.544  17.878  68.298  0.00  0.00    +0.047 A 
ATOM     35  C   UNL     1      -6.609  18.598  69.042  0.00  0.00    +0.176 A 
ATOM     36  C   UNL     1      -6.274  19.836  68.598  0.00  0.00    +0.206 A 
ATOM     37  C   UNL     1      -7.014  20.400  67.566  0.00  0.00    +0.176 A 
ATOM     38  C   UNL     1      -8.194  19.806  67.185  0.00  0.00    +0.047 A 
BRANCH  35  39
ATOM     39  O   UNL     1      -6.093  18.102  70.245  0.00  0.00    -0.468 OA
ATOM     40  C   UNL     1      -5.372  16.911  70.200  0.00  0.00    +0.253 C 
ENDBRANCH  35  39
BRANCH  36  41
ATOM     41  O   UNL     1      -5.094  20.438  69.032  0.00  0.00    -0.465 OA
ATOM     42  C   UNL     1      -3.848  19.932  68.548  0.00  0.00    +0.253 C 
ENDBRANCH  36  41
BRANCH  37  43
ATOM     43  O   UNL     1      -6.476  21.490  66.876  0.00  0.00    -0.468 OA
ATOM     44  C   UNL     1      -5.749  21.266  65.698  0.00  0.00    +0.253 C 
ENDBRANCH  37  43
ENDBRANCH  31  33
ENDBRANCH  30  31
ENDBRANCH  19  30
TORSDOF 10
ENDMDL
MODEL 8
REMARK VINA RESULT:      -6.9      3.919     11.684
REMARK  Name = 
REMARK  10 active torsions:
REMARK  status: ('A' for Active; 'I' for Inactive)
REMARK    1  A    between atoms: O_2  and  C_3
REMARK    2  A    between atoms: C_3  and  C_5
REMARK    3  A    between atoms: C_6  and  O_7
REMARK    4  A    between atoms: C_9  and  O_10
REMARK    5  A    between atoms: O_10  and  C_11
REMARK    6  A    between atoms: C_11  and  C_13
REMARK    7  A    between atoms: C_15  and  O_16
REMARK    8  A    between atoms: C_18  and  O_19
REMARK    9  A    between atoms: C_21  and  O_22
REMARK   10  A    between atoms: C_35  and  O_36
REMARK                            x       y       z     vdW  Elec       q    Type
REMARK                         _______ _______ _______ _____ _____    ______ ____
ROOT
ATOM      1  C   UNL     1      -8.843   9.295  68.013  0.00  0.00    +0.130 C 
ATOM      2  C   UNL     1     -10.493   9.104  67.851  0.00  0.00    +0.016 C 
ATOM      3  C   UNL     1     -11.264  10.199  68.880  0.00  0.00    +0.020 C 
ATOM      4  C   UNL     1     -10.598   9.895  70.309  0.00  0.00    +0.072 C 
ATOM      5  N   UNL     1     -11.053   8.605  70.751  0.00  0.00    -0.269 NA
ATOM      6  C   UNL     1      -9.845   7.889  70.022  0.00  0.00    +0.098 C 
ATOM      7  C   UNL     1     -10.250   6.418  70.549  0.00  0.00    +0.069 A 
ATOM      8  C   UNL     1      -9.658   6.365  71.808  0.00  0.00    -0.004 A 
ATOM      9  C   UNL     1      -9.285   5.073  72.100  0.00  0.00    +0.015 A 
ATOM     10  C   UNL     1      -9.726   4.367  70.990  0.00  0.00    +0.084 A 
ATOM     11  C   UNL     1      -9.745   2.995  71.114  0.00  0.00    +0.056 A 
ATOM     12  C   UNL     1      -8.994   2.348  72.054  0.00  0.00    +0.140 A 
ATOM     13  C   UNL     1      -8.240   3.147  72.899  0.00  0.00    +0.037 A 
ATOM     14  C   UNL     1      -8.343   4.533  72.953  0.00  0.00    +0.004 A 
ATOM     15  C   UNL     1      -9.704   7.628  72.588  0.00  0.00    +0.045 C 
ATOM     16  N   UNL     1      -9.794   5.268  69.976  0.00  0.00    -0.249 NA
ATOM     17  C   UNL     1     -10.902   8.459  72.138  0.00  0.00    +0.077 C 
ATOM     18  C   UNL     1     -10.365  11.454  68.341  0.00  0.00    +0.048 C 
ATOM     19  C   UNL     1     -10.453  10.940  66.786  0.00  0.00    +0.197 C 
ATOM     20  C   UNL     1     -10.731   7.733  68.683  0.00  0.00    +0.023 C 
ATOM     21  C   UNL     1      -8.828  10.429  66.716  0.00  0.00    +0.166 C 
ENDROOT
BRANCH   1  22
ATOM     22  C   UNL     1      -8.472  10.299  69.178  0.00  0.00    +0.319 C 
ATOM     23  O   UNL     1      -7.763   9.803  70.141  0.00  0.00    -0.250 OA
BRANCH  22  25
ATOM     24  C   UNL     1      -6.390  11.703  69.401  0.00  0.00    +0.256 C 
ATOM     25  O   UNL     1      -7.471  11.197  68.730  0.00  0.00    -0.444 OA
ENDBRANCH  22  25
ENDBRANCH   1  22
BRANCH  12  26
ATOM     26  O   UNL     1      -9.151   1.008  72.409  0.00  0.00    -0.471 OA
ATOM     27  C   UNL     1     -10.370   0.617  73.043  0.00  0.00    +0.252 C 
ENDBRANCH  12  26
BRANCH  21  28
ATOM     28  O   UNL     1      -9.214   9.348  65.757  0.00  0.00    -0.349 OA
ATOM     29  C   UNL     1      -8.487   9.451  64.613  0.00  0.00    +0.174 C 
ENDBRANCH  21  28
BRANCH  19  30
ATOM     30  O   UNL     1     -10.254  12.332  66.214  0.00  0.00    -0.447 OA
BRANCH  30  31
ATOM     31  C   UNL     1     -11.255  13.115  65.816  0.00  0.00    +0.341 C 
ATOM     32  O   UNL     1     -12.389  12.560  65.872  0.00  0.00    -0.245 OA
BRANCH  31  33
ATOM     33  C   UNL     1     -11.269  14.507  66.295  0.00  0.00    +0.082 A 
ATOM     34  C   UNL     1     -11.346  14.692  67.672  0.00  0.00    +0.047 A 
ATOM     35  C   UNL     1     -11.261  15.979  68.204  0.00  0.00    +0.176 A 
ATOM     36  C   UNL     1     -10.464  16.870  67.562  0.00  0.00    +0.206 A 
ATOM     37  C   UNL     1      -9.949  16.531  66.317  0.00  0.00    +0.176 A 
ATOM     38  C   UNL     1     -10.437  15.422  65.668  0.00  0.00    +0.047 A 
BRANCH  35  39
ATOM     39  O   UNL     1     -12.026  16.365  69.310  0.00  0.00    -0.468 OA
ATOM     40  C   UNL     1     -12.407  15.377  70.214  0.00  0.00    +0.253 C 
ENDBRANCH  35  39
BRANCH  36  41
ATOM     41  O   UNL     1     -10.016  18.011  68.225  0.00  0.00    -0.465 OA
ATOM     42  C   UNL     1     -10.394  19.292  67.717  0.00  0.00    +0.253 C 
ENDBRANCH  36  41
BRANCH  37  43
ATOM     43  O   UNL     1      -8.871  17.267  65.817  0.00  0.00    -0.468 OA
ATOM     44  C   UNL     1      -7.570  16.950  66.232  0.00  0.00    +0.253 C 
ENDBRANCH  37  43
ENDBRANCH  31  33
ENDBRANCH  30  31
ENDBRANCH  19  30
TORSDOF 10
ENDMDL
MODEL 9
REMARK VINA RESULT:      -6.9      2.920      5.136
REMARK  Name = 
REMARK  10 active torsions:
REMARK  status: ('A' for Active; 'I' for Inactive)
REMARK    1  A    between atoms: O_2  and  C_3
REMARK    2  A    between atoms: C_3  and  C_5
REMARK    3  A    between atoms: C_6  and  O_7
REMARK    4  A    between atoms: C_9  and  O_10
REMARK    5  A    between atoms: O_10  and  C_11
REMARK    6  A    between atoms: C_11  and  C_13
REMARK    7  A    between atoms: C_15  and  O_16
REMARK    8  A    between atoms: C_18  and  O_19
REMARK    9  A    between atoms: C_21  and  O_22
REMARK   10  A    between atoms: C_35  and  O_36
REMARK                            x       y       z     vdW  Elec       q    Type
REMARK                         _______ _______ _______ _____ _____    ______ ____
ROOT
ATOM      1  C   UNL     1      -8.810  10.931  66.256  0.00  0.00    +0.130 C 
ATOM      2  C   UNL     1      -9.104  10.717  67.885  0.00  0.00    +0.016 C 
ATOM      3  C   UNL     1     -10.766  10.519  68.110  0.00  0.00    +0.020 C 
ATOM      4  C   UNL     1     -11.393  11.807  67.385  0.00  0.00    +0.072 C 
ATOM      5  N   UNL     1     -11.061  12.968  68.165  0.00  0.00    -0.269 NA
ATOM      6  C   UNL     1      -9.709  13.161  67.367  0.00  0.00    +0.098 C 
ATOM      7  C   UNL     1      -9.310  14.517  68.148  0.00  0.00    +0.069 A 
ATOM      8  C   UNL     1      -9.993  15.499  67.435  0.00  0.00    -0.004 A 
ATOM      9  C   UNL     1      -9.287  16.679  67.461  0.00  0.00    +0.015 A 
ATOM     10  C   UNL     1      -8.195  16.366  68.257  0.00  0.00    +0.084 A 
ATOM     11  C   UNL     1      -7.444  17.433  68.700  0.00  0.00    +0.056 A 
ATOM     12  C   UNL     1      -7.480  18.646  68.075  0.00  0.00    +0.140 A 
ATOM     13  C   UNL     1      -8.340  18.758  66.993  0.00  0.00    +0.037 A 
ATOM     14  C   UNL     1      -9.266  17.785  66.635  0.00  0.00    +0.004 A 
ATOM     15  C   UNL     1     -11.348  15.115  66.961  0.00  0.00    +0.045 C 
ATOM     16  N   UNL     1      -8.043  15.020  68.172  0.00  0.00    -0.249 NA
ATOM     17  C   UNL     1     -11.920  14.038  67.877  0.00  0.00    +0.077 C 
ATOM     18  C   UNL     1     -10.865   9.382  66.938  0.00  0.00    +0.048 C 
ATOM     19  C   UNL     1      -9.459   8.679  67.403  0.00  0.00    +0.197 C 
ATOM     20  C   UNL     1      -8.933  12.233  68.434  0.00  0.00    +0.023 C 
ATOM     21  C   UNL     1      -8.572   9.236  66.057  0.00  0.00    +0.166 C 
ENDROOT
BRANCH   1  22
ATOM     22  C   UNL     1     -10.149  11.057  65.421  0.00  0.00    +0.319 C 
ATOM     23  O   UNL     1     -10.324  12.185  64.810  0.00  0.00    -0.250 OA
BRANCH  22  25
ATOM     24  C   UNL     1      -9.809  10.686  62.952  0.00  0.00    +0.256 C 
ATOM     25  O   UNL     1     -10.046  10.283  64.239  0.00  0.00    -0.444 OA
ENDBRANCH  22  25
ENDBRANCH   1  22
BRANCH  12  26
ATOM     26  O   UNL     1      -6.959  19.827  68.605  0.00  0.00    -0.471 OA
ATOM     27  C   UNL     1      -6.211  19.749  69.819  0.00  0.00    +0.252 C 
ENDBRANCH  12  26
BRANCH  21  28
ATOM     28  O   UNL     1      -7.339   9.303  66.901  0.00  0.00    -0.349 OA
ATOM     29  C   UNL     1      -6.319   8.637  66.299  0.00  0.00    +0.174 C 
ENDBRANCH  21  28
BRANCH  19  30
ATOM     30  O   UNL     1      -9.842   7.320  66.848  0.00  0.00    -0.447 OA
BRANCH  30  31
ATOM     31  C   UNL     1     -10.580   6.434  67.513  0.00  0.00    +0.341 C 
ATOM     32  O   UNL     1     -10.550   5.272  67.020  0.00  0.00    -0.245 OA
BRANCH  31  33
ATOM     33  C   UNL     1     -10.499   6.440  68.983  0.00  0.00    +0.082 A 
ATOM     34  C   UNL     1     -11.699   6.588  69.673  0.00  0.00    +0.047 A 
ATOM     35  C   UNL     1     -11.714   6.501  71.065  0.00  0.00    +0.176 A 
ATOM     36  C   UNL     1     -10.834   5.647  71.647  0.00  0.00    +0.206 A 
ATOM     37  C   UNL     1      -9.841   5.071  70.864  0.00  0.00    +0.176 A 
ATOM     38  C   UNL     1      -9.627   5.551  69.594  0.00  0.00    +0.047 A 
BRANCH  35  39
ATOM     39  O   UNL     1     -12.545   7.316  71.841  0.00  0.00    -0.468 OA
ATOM     40  C   UNL     1     -12.187   8.653  71.991  0.00  0.00    +0.253 C 
ENDBRANCH  35  39
BRANCH  36  41
ATOM     41  O   UNL     1     -11.047   5.207  72.953  0.00  0.00    -0.465 OA
ATOM     42  C   UNL     1     -10.320   5.831  74.013  0.00  0.00    +0.253 C 
ENDBRANCH  36  41
BRANCH  37  43
ATOM     43  O   UNL     1      -9.168   3.949  71.355  0.00  0.00    -0.468 OA
ATOM     44  C   UNL     1      -9.527   2.675  70.893  0.00  0.00    +0.253 C 
ENDBRANCH  37  43
ENDBRANCH  31  33
ENDBRANCH  30  31
ENDBRANCH  19  30
TORSDOF 10
ENDMDL
