MODEL 1
REMARK VINA RESULT:      -7.1      0.000      0.000
REMARK  Name = 
REMARK  4 active torsions:
REMARK  status: ('A' for Active; 'I' for Inactive)
REMARK    1  A    between atoms: CA_2  and  C_3
REMARK    2  A    between atoms: CA_2  and  C_19
REMARK    3  A    between atoms: N_5  and  CA_6
REMARK    4  A    between atoms: CA_10  and  C_11
REMARK                            x       y       z     vdW  Elec       q    Type
REMARK                         _______ _______ _______ _____ _____    ______ ____
ROOT
ATOM      1  CA  UNL     1      -9.859  16.373  65.425  0.00  0.00    +0.200 C 
ATOM      2  C   UNL     1      -9.528  14.855  66.123  0.00  0.00    +0.157 C 
ATOM      3  N   UNL     1     -10.687  14.401  65.253  0.00  0.00    -0.241 N 
ATOM      4  CA  UNL     1     -11.086  13.071  65.510  0.00  0.00    +0.142 C 
ATOM      5  C   UNL     1     -10.898  12.423  66.658  0.00  0.00    +0.066 C 
ATOM      6  C   UNL     1     -10.975  13.106  67.985  0.00  0.00    +0.098 C 
ATOM      7 CL   UNL     1     -10.958  10.665  66.644  0.00  0.00    -0.085 Cl
ATOM      8  S   UNL     1     -10.580  14.854  67.714  0.00  0.00    -0.113 S 
ATOM      9  C   UNL     1     -11.308  15.694  65.095  0.00  0.00    +0.253 C 
ATOM     10  O   UNL     1     -11.814  16.068  63.980  0.00  0.00    -0.273 OA
ENDROOT
BRANCH   1  12
ATOM     11  C   UNL     1      -9.932  18.426  66.735  0.00  0.00    +0.264 C 
ATOM     12  N   UNL     1     -10.283  17.112  66.788  0.00  0.00    -0.194 NA
ATOM     13  O   UNL     1     -10.661  19.089  65.951  0.00  0.00    -0.271 OA
BRANCH  11  15
ATOM     14  N   UNL     1      -9.611  20.657  67.256  0.00  0.00    -0.118 NA
ATOM     15  CA  UNL     1      -9.525  19.272  68.076  0.00  0.00    +0.191 C 
BRANCH  15  16
ATOM     16  C   UNL     1      -7.890  19.172  67.829  0.00  0.00    +0.004 A 
ATOM     17  C   UNL     1      -7.281  18.996  69.068  0.00  0.00    -0.002 A 
ATOM     18  C   UNL     1      -6.110  19.663  69.385  0.00  0.00    -0.000 A 
ATOM     19  C   UNL     1      -5.747  20.807  68.690  0.00  0.00    -0.000 A 
ATOM     20  C   UNL     1      -6.449  21.122  67.533  0.00  0.00    -0.000 A 
ATOM     21  C   UNL     1      -7.534  20.359  67.200  0.00  0.00    -0.002 A 
ENDBRANCH  15  16
ENDBRANCH  11  15
ENDBRANCH   1  12
BRANCH   4  22
ATOM     22  C   UNL     1     -11.926  12.444  64.480  0.00  0.00    +0.402 C 
ATOM     23  OXT UNL     1     -13.309  12.534  64.644  0.00  0.00    -0.239 OA
ATOM     24  O   UNL     1     -11.525  12.604  63.287  0.00  0.00    -0.239 OA
ENDBRANCH   4  22
TORSDOF 4
ENDMDL
MODEL 2
REMARK VINA RESULT:      -6.7      2.745      7.391
REMARK  Name = 
REMARK  4 active torsions:
REMARK  status: ('A' for Active; 'I' for Inactive)
REMARK    1  A    between atoms: CA_2  and  C_3
REMARK    2  A    between atoms: CA_2  and  C_19
REMARK    3  A    between atoms: N_5  and  CA_6
REMARK    4  A    between atoms: CA_10  and  C_11
REMARK                            x       y       z     vdW  Elec       q    Type
REMARK                         _______ _______ _______ _____ _____    ______ ____
ROOT
ATOM      1  CA  UNL     1     -11.391  15.861  66.382  0.00  0.00    +0.200 C 
ATOM      2  C   UNL     1     -10.127  15.850  67.525  0.00  0.00    +0.157 C 
ATOM      3  N   UNL     1      -9.698  17.113  66.799  0.00  0.00    -0.241 N 
ATOM      4  CA  UNL     1      -8.440  17.596  67.221  0.00  0.00    +0.142 C 
ATOM      5  C   UNL     1      -7.479  16.854  67.767  0.00  0.00    +0.066 C 
ATOM      6  C   UNL     1      -7.224  15.441  67.351  0.00  0.00    +0.098 C 
ATOM      7 CL   UNL     1      -6.229  17.664  68.703  0.00  0.00    -0.085 Cl
ATOM      8  S   UNL     1      -8.780  14.786  66.692  0.00  0.00    -0.113 S 
ATOM      9  C   UNL     1     -10.381  16.846  65.556  0.00  0.00    +0.253 C 
ATOM     10  O   UNL     1     -10.979  17.769  64.902  0.00  0.00    -0.273 OA
ENDROOT
BRANCH   1  12
ATOM     11  C   UNL     1     -12.088  13.918  65.089  0.00  0.00    +0.264 C 
ATOM     12  N   UNL     1     -10.987  14.489  65.649  0.00  0.00    -0.194 NA
ATOM     13  O   UNL     1     -12.490  14.540  64.071  0.00  0.00    -0.271 OA
BRANCH  11  15
ATOM     14  N   UNL     1     -12.069  12.102  66.523  0.00  0.00    -0.118 NA
ATOM     15  CA  UNL     1     -12.241  12.296  64.931  0.00  0.00    +0.191 C 
BRANCH  15  16
ATOM     16  C   UNL     1     -10.629  12.014  64.676  0.00  0.00    +0.004 A 
ATOM     17  C   UNL     1     -10.445  11.797  63.314  0.00  0.00    -0.002 A 
ATOM     18  C   UNL     1      -9.591  10.803  62.863  0.00  0.00    -0.000 A 
ATOM     19  C   UNL     1      -9.239   9.753  63.696  0.00  0.00    -0.000 A 
ATOM     20  C   UNL     1      -9.563   9.849  65.044  0.00  0.00    -0.000 A 
ATOM     21  C   UNL     1     -10.312  10.913  65.461  0.00  0.00    -0.002 A 
ENDBRANCH  15  16
ENDBRANCH  11  15
ENDBRANCH   1  12
BRANCH   4  22
ATOM     22  C   UNL     1      -8.131  18.985  66.853  0.00  0.00    +0.402 C 
ATOM     23  OXT UNL     1      -7.624  19.207  65.572  0.00  0.00    -0.239 OA
ATOM     24  O   UNL     1      -8.978  19.846  67.242  0.00  0.00    -0.239 OA
ENDBRANCH   4  22
TORSDOF 4
ENDMDL
MODEL 3
REMARK VINA RESULT:      -6.6      2.836      3.615
REMARK  Name = 
REMARK  4 active torsions:
REMARK  status: ('A' for Active; 'I' for Inactive)
REMARK    1  A    between atoms: CA_2  and  C_3
REMARK    2  A    between atoms: CA_2  and  C_19
REMARK    3  A    between atoms: N_5  and  CA_6
REMARK    4  A    between atoms: CA_10  and  C_11
REMARK                            x       y       z     vdW  Elec       q    Type
REMARK                         _______ _______ _______ _____ _____    ______ ____
ROOT
ATOM      1  CA  UNL     1      -9.965  13.260  68.059  0.00  0.00    +0.200 C 
ATOM      2  C   UNL     1     -11.343  13.082  67.073  0.00  0.00    +0.157 C 
ATOM      3  N   UNL     1     -10.399  12.269  66.205  0.00  0.00    -0.241 N 
ATOM      4  CA  UNL     1     -10.964  11.901  64.964  0.00  0.00    +0.142 C 
ATOM      5  C   UNL     1     -11.945  12.554  64.346  0.00  0.00    +0.066 C 
ATOM      6  C   UNL     1     -12.072  14.043  64.396  0.00  0.00    +0.098 C 
ATOM      7 CL   UNL     1     -12.876  11.700  63.122  0.00  0.00    -0.085 Cl
ATOM      8  S   UNL     1     -11.267  14.601  65.920  0.00  0.00    -0.113 S 
ATOM      9  C   UNL     1      -9.169  12.841  66.694  0.00  0.00    +0.253 C 
ATOM     10  O   UNL     1      -8.127  12.127  66.901  0.00  0.00    -0.273 OA
ENDROOT
BRANCH   1  12
ATOM     11  C   UNL     1      -9.596  15.425  69.111  0.00  0.00    +0.264 C 
ATOM     12  N   UNL     1      -9.828  14.852  67.898  0.00  0.00    -0.194 NA
ATOM     13  O   UNL     1      -8.432  15.199  69.536  0.00  0.00    -0.271 OA
BRANCH  11  15
ATOM     14  N   UNL     1     -11.546  16.631  68.804  0.00  0.00    -0.118 NA
ATOM     15  CA  UNL     1     -10.111  16.936  69.472  0.00  0.00    +0.191 C 
BRANCH  15  16
ATOM     16  C   UNL     1      -9.554  17.626  68.073  0.00  0.00    +0.004 A 
ATOM     17  C   UNL     1      -8.497  18.468  68.404  0.00  0.00    -0.002 A 
ATOM     18  C   UNL     1      -8.363  19.709  67.803  0.00  0.00    -0.000 A 
ATOM     19  C   UNL     1      -9.454  20.316  67.203  0.00  0.00    -0.000 A 
ATOM     20  C   UNL     1     -10.603  19.558  67.010  0.00  0.00    -0.000 A 
ATOM     21  C   UNL     1     -10.642  18.292  67.525  0.00  0.00    -0.002 A 
ENDBRANCH  15  16
ENDBRANCH  11  15
ENDBRANCH   1  12
BRANCH   4  22
ATOM     22  C   UNL     1     -10.276  10.821  64.242  0.00  0.00    +0.402 C 
ATOM     23  OXT UNL     1      -9.393  11.194  63.228  0.00  0.00    -0.239 OA
ATOM     24  O   UNL     1      -9.872   9.862  64.967  0.00  0.00    -0.239 OA
ENDBRANCH   4  22
TORSDOF 4
ENDMDL
MODEL 4
REMARK VINA RESULT:      -6.5      4.131      7.158
REMARK  Name = 
REMARK  4 active torsions:
REMARK  status: ('A' for Active; 'I' for Inactive)
REMARK    1  A    between atoms: CA_2  and  C_3
REMARK    2  A    between atoms: CA_2  and  C_19
REMARK    3  A    between atoms: N_5  and  CA_6
REMARK    4  A    between atoms: CA_10  and  C_11
REMARK                            x       y       z     vdW  Elec       q    Type
REMARK                         _______ _______ _______ _____ _____    ______ ____
ROOT
ATOM      1  CA  UNL     1      -9.673  17.748  68.180  0.00  0.00    +0.200 C 
ATOM      2  C   UNL     1      -8.140  18.197  68.771  0.00  0.00    +0.157 C 
ATOM      3  N   UNL     1      -7.867  18.516  67.312  0.00  0.00    -0.241 N 
ATOM      4  CA  UNL     1      -6.517  18.841  67.057  0.00  0.00    +0.142 C 
ATOM      5  C   UNL     1      -5.482  18.447  67.795  0.00  0.00    +0.066 C 
ATOM      6  C   UNL     1      -5.433  17.106  68.454  0.00  0.00    +0.098 C 
ATOM      7 CL   UNL     1      -3.976  19.347  67.670  0.00  0.00    -0.085 Cl
ATOM      8  S   UNL     1      -7.144  16.571  68.713  0.00  0.00    -0.113 S 
ATOM      9  C   UNL     1      -8.888  17.665  66.749  0.00  0.00    +0.253 C 
ATOM     10  O   UNL     1      -9.597  18.030  65.748  0.00  0.00    -0.273 OA
ENDROOT
BRANCH   1  12
ATOM     11  C   UNL     1     -10.814  15.670  68.739  0.00  0.00    +0.264 C 
ATOM     12  N   UNL     1      -9.569  16.191  68.565  0.00  0.00    -0.194 NA
ATOM     13  O   UNL     1     -11.437  15.533  67.653  0.00  0.00    -0.271 OA
BRANCH  11  15
ATOM     14  N   UNL     1     -12.169  13.794  68.763  0.00  0.00    -0.118 NA
ATOM     15  CA  UNL     1     -11.104  14.444  69.785  0.00  0.00    +0.191 C 
BRANCH  15  16
ATOM     16  C   UNL     1     -12.305  15.229  70.611  0.00  0.00    +0.004 A 
ATOM     17  C   UNL     1     -11.704  16.051  71.559  0.00  0.00    -0.002 A 
ATOM     18  C   UNL     1     -12.226  16.161  72.837  0.00  0.00    -0.000 A 
ATOM     19  C   UNL     1     -13.067  15.179  73.336  0.00  0.00    -0.000 A 
ATOM     20  C   UNL     1     -13.555  14.224  72.452  0.00  0.00    -0.000 A 
ATOM     21  C   UNL     1     -13.093  14.229  71.166  0.00  0.00    -0.002 A 
ENDBRANCH  15  16
ENDBRANCH  11  15
ENDBRANCH   1  12
BRANCH   4  22
ATOM     22  C   UNL     1      -6.251  19.514  65.777  0.00  0.00    +0.402 C 
ATOM     23  OXT UNL     1      -6.470  18.777  64.612  0.00  0.00    -0.239 OA
ATOM     24  O   UNL     1      -6.630  20.723  65.716  0.00  0.00    -0.239 OA
ENDBRANCH   4  22
TORSDOF 4
ENDMDL
MODEL 5
REMARK VINA RESULT:      -6.5      3.525      7.665
REMARK  Name = 
REMARK  4 active torsions:
REMARK  status: ('A' for Active; 'I' for Inactive)
REMARK    1  A    between atoms: CA_2  and  C_3
REMARK    2  A    between atoms: CA_2  and  C_19
REMARK    3  A    between atoms: N_5  and  CA_6
REMARK    4  A    between atoms: CA_10  and  C_11
REMARK                            x       y       z     vdW  Elec       q    Type
REMARK                         _______ _______ _______ _____ _____    ______ ____
ROOT
ATOM      1  CA  UNL     1      -8.948  17.472  68.187  0.00  0.00    +0.200 C 
ATOM      2  C   UNL     1      -7.417  16.977  68.750  0.00  0.00    +0.157 C 
ATOM      3  N   UNL     1      -7.189  18.470  68.905  0.00  0.00    -0.241 N 
ATOM      4  CA  UNL     1      -5.857  18.796  69.241  0.00  0.00    +0.142 C 
ATOM      5  C   UNL     1      -4.792  18.044  68.969  0.00  0.00    +0.066 C 
ATOM      6  C   UNL     1      -4.682  17.237  67.715  0.00  0.00    +0.098 C 
ATOM      7 CL   UNL     1      -3.321  18.311  69.895  0.00  0.00    -0.085 Cl
ATOM      8  S   UNL     1      -6.368  16.873  67.160  0.00  0.00    -0.113 S 
ATOM      9  C   UNL     1      -8.192  18.904  67.963  0.00  0.00    +0.253 C 
ATOM     10  O   UNL     1      -8.935  19.921  68.188  0.00  0.00    -0.273 OA
ENDROOT
BRANCH   1  12
ATOM     11  C   UNL     1     -10.004  16.737  66.119  0.00  0.00    +0.264 C 
ATOM     12  N   UNL     1      -8.781  16.914  66.689  0.00  0.00    -0.194 NA
ATOM     13  O   UNL     1     -10.564  17.828  65.830  0.00  0.00    -0.271 OA
BRANCH  11  15
ATOM     14  N   UNL     1     -11.352  16.522  64.250  0.00  0.00    -0.118 NA
ATOM     15  CA  UNL     1     -10.282  15.576  64.998  0.00  0.00    +0.191 C 
BRANCH  15  16
ATOM     16  C   UNL     1     -11.478  14.819  65.856  0.00  0.00    +0.004 A 
ATOM     17  C   UNL     1     -10.959  14.474  67.100  0.00  0.00    -0.002 A 
ATOM     18  C   UNL     1     -11.250  13.248  67.676  0.00  0.00    -0.000 A 
ATOM     19  C   UNL     1     -11.689  12.194  66.891  0.00  0.00    -0.000 A 
ATOM     20  C   UNL     1     -12.054  12.462  65.577  0.00  0.00    -0.000 A 
ATOM     21  C   UNL     1     -11.853  13.723  65.089  0.00  0.00    -0.002 A 
ENDBRANCH  15  16
ENDBRANCH  11  15
ENDBRANCH   1  12
BRANCH   4  22
ATOM     22  C   UNL     1      -5.642  20.151  69.769  0.00  0.00    +0.402 C 
ATOM     23  OXT UNL     1      -5.533  21.186  68.840  0.00  0.00    -0.239 OA
ATOM     24  O   UNL     1      -6.318  20.439  70.803  0.00  0.00    -0.239 OA
ENDBRANCH   4  22
TORSDOF 4
ENDMDL
MODEL 6
REMARK VINA RESULT:      -6.5      3.257      7.772
REMARK  Name = 
REMARK  4 active torsions:
REMARK  status: ('A' for Active; 'I' for Inactive)
REMARK    1  A    between atoms: CA_2  and  C_3
REMARK    2  A    between atoms: CA_2  and  C_19
REMARK    3  A    between atoms: N_5  and  CA_6
REMARK    4  A    between atoms: CA_10  and  C_11
REMARK                            x       y       z     vdW  Elec       q    Type
REMARK                         _______ _______ _______ _____ _____    ______ ____
ROOT
ATOM      1  CA  UNL     1      -9.623  18.333  67.082  0.00  0.00    +0.200 C 
ATOM      2  C   UNL     1      -8.792  18.433  68.566  0.00  0.00    +0.157 C 
ATOM      3  N   UNL     1      -7.811  19.264  67.757  0.00  0.00    -0.241 N 
ATOM      4  CA  UNL     1      -6.633  19.580  68.469  0.00  0.00    +0.142 C 
ATOM      5  C   UNL     1      -6.138  18.875  69.483  0.00  0.00    +0.066 C 
ATOM      6  C   UNL     1      -6.229  17.384  69.541  0.00  0.00    +0.098 C 
ATOM      7 CL   UNL     1      -5.008  19.663  70.577  0.00  0.00    -0.085 Cl
ATOM      8  S   UNL     1      -7.665  16.893  68.552  0.00  0.00    -0.113 S 
ATOM      9  C   UNL     1      -8.172  18.752  66.457  0.00  0.00    +0.253 C 
ATOM     10  O   UNL     1      -8.251  19.511  65.430  0.00  0.00    -0.273 OA
ENDROOT
BRANCH   1  12
ATOM     11  C   UNL     1     -10.541  16.257  66.200  0.00  0.00    +0.264 C 
ATOM     12  N   UNL     1      -9.478  16.744  66.897  0.00  0.00    -0.194 NA
ATOM     13  O   UNL     1     -10.504  16.571  64.981  0.00  0.00    -0.271 OA
BRANCH  11  15
ATOM     14  N   UNL     1      -9.653  14.233  66.888  0.00  0.00    -0.118 NA
ATOM     15  CA  UNL     1     -11.115  14.742  66.438  0.00  0.00    +0.191 C 
BRANCH  15  16
ATOM     16  C   UNL     1     -10.864  14.237  64.881  0.00  0.00    +0.004 A 
ATOM     17  C   UNL     1     -12.104  13.945  64.322  0.00  0.00    -0.002 A 
ATOM     18  C   UNL     1     -12.276  12.829  63.519  0.00  0.00    -0.000 A 
ATOM     19  C   UNL     1     -11.381  11.774  63.588  0.00  0.00    -0.000 A 
ATOM     20  C   UNL     1     -10.198  11.963  64.292  0.00  0.00    -0.000 A 
ATOM     21  C   UNL     1     -10.026  13.133  64.977  0.00  0.00    -0.002 A 
ENDBRANCH  15  16
ENDBRANCH  11  15
ENDBRANCH   1  12
BRANCH   4  22
ATOM     22  C   UNL     1      -5.820  20.670  67.910  0.00  0.00    +0.402 C 
ATOM     23  OXT UNL     1      -4.678  20.310  67.194  0.00  0.00    -0.239 OA
ATOM     24  O   UNL     1      -6.480  21.628  67.403  0.00  0.00    -0.239 OA
ENDBRANCH   4  22
TORSDOF 4
ENDMDL
MODEL 7
REMARK VINA RESULT:      -6.5      2.905      7.137
REMARK  Name = 
REMARK  4 active torsions:
REMARK  status: ('A' for Active; 'I' for Inactive)
REMARK    1  A    between atoms: CA_2  and  C_3
REMARK    2  A    between atoms: CA_2  and  C_19
REMARK    3  A    between atoms: N_5  and  CA_6
REMARK    4  A    between atoms: CA_10  and  C_11
REMARK                            x       y       z     vdW  Elec       q    Type
REMARK                         _______ _______ _______ _____ _____    ______ ____
ROOT
ATOM      1  CA  UNL     1     -10.055  17.271  66.682  0.00  0.00    +0.200 C 
ATOM      2  C   UNL     1      -9.151  16.592  67.957  0.00  0.00    +0.157 C 
ATOM      3  N   UNL     1      -8.266  17.806  67.740  0.00  0.00    -0.241 N 
ATOM      4  CA  UNL     1      -7.071  17.764  68.492  0.00  0.00    +0.142 C 
ATOM      5  C   UNL     1      -6.482  16.654  68.932  0.00  0.00    +0.066 C 
ATOM      6  C   UNL     1      -6.482  15.382  68.145  0.00  0.00    +0.098 C 
ATOM      7 CL   UNL     1      -5.343  16.785  70.265  0.00  0.00    -0.085 Cl
ATOM      8  S   UNL     1      -7.939  15.416  67.069  0.00  0.00    -0.113 S 
ATOM      9  C   UNL     1      -8.666  18.080  66.381  0.00  0.00    +0.253 C 
ATOM     10  O   UNL     1      -8.844  19.274  65.956  0.00  0.00    -0.273 OA
ENDROOT
BRANCH   1  12
ATOM     11  C   UNL     1     -10.999  15.765  65.017  0.00  0.00    +0.264 C 
ATOM     12  N   UNL     1      -9.827  16.072  65.637  0.00  0.00    -0.194 NA
ATOM     13  O   UNL     1     -11.354  16.644  64.189  0.00  0.00    -0.271 OA
BRANCH  11  15
ATOM     14  N   UNL     1     -12.739  14.266  65.301  0.00  0.00    -0.118 NA
ATOM     15  CA  UNL     1     -11.339  14.249  64.502  0.00  0.00    +0.191 C 
BRANCH  15  16
ATOM     16  C   UNL     1     -10.577  13.486  65.759  0.00  0.00    +0.004 A 
ATOM     17  C   UNL     1     -10.090  12.270  65.289  0.00  0.00    -0.002 A 
ATOM     18  C   UNL     1     -10.184  11.122  66.057  0.00  0.00    -0.000 A 
ATOM     19  C   UNL     1     -11.108  11.045  67.088  0.00  0.00    -0.000 A 
ATOM     20  C   UNL     1     -11.755  12.211  67.477  0.00  0.00    -0.000 A 
ATOM     21  C   UNL     1     -11.538  13.350  66.753  0.00  0.00    -0.002 A 
ENDBRANCH  15  16
ENDBRANCH  11  15
ENDBRANCH   1  12
BRANCH   4  22
ATOM     22  C   UNL     1      -6.355  19.040  68.629  0.00  0.00    +0.402 C 
ATOM     23  OXT UNL     1      -5.597  19.466  67.538  0.00  0.00    -0.239 OA
ATOM     24  O   UNL     1      -7.005  19.961  69.212  0.00  0.00    -0.239 OA
ENDBRANCH   4  22
TORSDOF 4
ENDMDL
MODEL 8
REMARK VINA RESULT:      -6.4      3.059      7.580
REMARK  Name = 
REMARK  4 active torsions:
REMARK  status: ('A' for Active; 'I' for Inactive)
REMARK    1  A    between atoms: CA_2  and  C_3
REMARK    2  A    between atoms: CA_2  and  C_19
REMARK    3  A    between atoms: N_5  and  CA_6
REMARK    4  A    between atoms: CA_10  and  C_11
REMARK                            x       y       z     vdW  Elec       q    Type
REMARK                         _______ _______ _______ _____ _____    ______ ____
ROOT
ATOM      1  CA  UNL     1     -10.981  15.155  66.832  0.00  0.00    +0.200 C 
ATOM      2  C   UNL     1     -10.190  16.018  68.071  0.00  0.00    +0.157 C 
ATOM      3  N   UNL     1      -9.996  17.057  66.980  0.00  0.00    -0.241 N 
ATOM      4  CA  UNL     1      -9.152  18.119  67.369  0.00  0.00    +0.142 C 
ATOM      5  C   UNL     1      -8.215  18.048  68.312  0.00  0.00    +0.066 C 
ATOM      6  C   UNL     1      -7.403  16.813  68.542  0.00  0.00    +0.098 C 
ATOM      7 CL   UNL     1      -7.639  19.545  69.035  0.00  0.00    -0.085 Cl
ATOM      8  S   UNL     1      -8.385  15.407  67.959  0.00  0.00    -0.113 S 
ATOM      9  C   UNL     1     -10.145  16.165  65.855  0.00  0.00    +0.253 C 
ATOM     10  O   UNL     1     -10.783  16.509  64.800  0.00  0.00    -0.273 OA
ENDROOT
BRANCH   1  12
ATOM     11  C   UNL     1     -10.626  12.748  66.927  0.00  0.00    +0.264 C 
ATOM     12  N   UNL     1      -9.953  13.922  66.783  0.00  0.00    -0.194 NA
ATOM     13  O   UNL     1     -11.297  12.447  65.905  0.00  0.00    -0.271 OA
BRANCH  11  15
ATOM     14  N   UNL     1     -10.264  10.540  66.334  0.00  0.00    -0.118 NA
ATOM     15  CA  UNL     1      -9.947  11.437  67.635  0.00  0.00    +0.191 C 
BRANCH  15  16
ATOM     16  C   UNL     1     -11.336  10.930  68.381  0.00  0.00    +0.004 A 
ATOM     17  C   UNL     1     -11.718  11.914  69.288  0.00  0.00    -0.002 A 
ATOM     18  C   UNL     1     -12.195  11.577  70.544  0.00  0.00    -0.000 A 
ATOM     19  C   UNL     1     -11.918  10.331  71.085  0.00  0.00    -0.000 A 
ATOM     20  C   UNL     1     -11.367   9.363  70.254  0.00  0.00    -0.000 A 
ATOM     21  C   UNL     1     -11.018   9.718  68.981  0.00  0.00    -0.002 A 
ENDBRANCH  15  16
ENDBRANCH  11  15
ENDBRANCH   1  12
BRANCH   4  22
ATOM     22  C   UNL     1      -9.213  19.326  66.532  0.00  0.00    +0.402 C 
ATOM     23  OXT UNL     1      -8.176  19.523  65.620  0.00  0.00    -0.239 OA
ATOM     24  O   UNL     1     -10.367  19.615  66.090  0.00  0.00    -0.239 OA
ENDBRANCH   4  22
TORSDOF 4
ENDMDL
MODEL 9
REMARK VINA RESULT:      -6.3      4.316      6.403
REMARK  Name = 
REMARK  4 active torsions:
REMARK  status: ('A' for Active; 'I' for Inactive)
REMARK    1  A    between atoms: CA_2  and  C_3
REMARK    2  A    between atoms: CA_2  and  C_19
REMARK    3  A    between atoms: N_5  and  CA_6
REMARK    4  A    between atoms: CA_10  and  C_11
REMARK                            x       y       z     vdW  Elec       q    Type
REMARK                         _______ _______ _______ _____ _____    ______ ____
ROOT
ATOM      1  CA  UNL     1     -10.169  10.813  67.481  0.00  0.00    +0.200 C 
ATOM      2  C   UNL     1     -10.175  10.700  69.181  0.00  0.00    +0.157 C 
ATOM      3  N   UNL     1     -10.367   9.219  68.906  0.00  0.00    -0.241 N 
ATOM      4  CA  UNL     1     -10.635   8.468  70.071  0.00  0.00    +0.142 C 
ATOM      5  C   UNL     1     -11.174   8.952  71.187  0.00  0.00    +0.066 C 
ATOM      6  C   UNL     1     -12.222  10.019  71.172  0.00  0.00    +0.098 C 
ATOM      7 CL   UNL     1     -10.952   8.052  72.682  0.00  0.00    -0.085 Cl
ATOM      8  S   UNL     1     -12.008  10.962  69.640  0.00  0.00    -0.113 S 
ATOM      9  C   UNL     1     -10.900   9.353  67.571  0.00  0.00    +0.253 C 
ATOM     10  O   UNL     1     -10.572   8.552  66.629  0.00  0.00    -0.273 OA
ENDROOT
BRANCH   1  12
ATOM     11  C   UNL     1     -11.418  12.509  66.258  0.00  0.00    +0.264 C 
ATOM     12  N   UNL     1     -11.500  11.703  67.352  0.00  0.00    -0.194 NA
ATOM     13  O   UNL     1     -11.536  11.872  65.178  0.00  0.00    -0.271 OA
BRANCH  11  15
ATOM     14  N   UNL     1     -11.589  14.218  64.707  0.00  0.00    -0.118 NA
ATOM     15  CA  UNL     1     -12.144  13.975  66.202  0.00  0.00    +0.191 C 
BRANCH  15  16
ATOM     16  C   UNL     1     -10.869  14.802  66.859  0.00  0.00    +0.004 A 
ATOM     17  C   UNL     1     -11.284  15.326  68.080  0.00  0.00    -0.002 A 
ATOM     18  C   UNL     1     -10.925  16.608  68.462  0.00  0.00    -0.000 A 
ATOM     19  C   UNL     1     -10.525  17.534  67.512  0.00  0.00    -0.000 A 
ATOM     20  C   UNL     1     -10.268  17.082  66.223  0.00  0.00    -0.000 A 
ATOM     21  C   UNL     1     -10.532  15.774  65.926  0.00  0.00    -0.002 A 
ENDBRANCH  15  16
ENDBRANCH  11  15
ENDBRANCH   1  12
BRANCH   4  22
ATOM     22  C   UNL     1     -10.460   7.013  69.949  0.00  0.00    +0.402 C 
ATOM     23  OXT UNL     1     -11.608   6.251  69.726  0.00  0.00    -0.239 OA
ATOM     24  O   UNL     1      -9.446   6.647  69.281  0.00  0.00    -0.239 OA
ENDBRANCH   4  22
TORSDOF 4
ENDMDL
