MODEL 1
REMARK VINA RESULT:      -6.9      0.000      0.000
REMARK  Name = 
REMARK  8 active torsions:
REMARK  status: ('A' for Active; 'I' for Inactive)
REMARK    1  A    between atoms: O_2  and  C_3
REMARK    2  A    between atoms: C_3  and  C_4
REMARK    3  A    between atoms: C_4  and  C_5
REMARK    4  A    between atoms: C_5  and  O_6
REMARK    5  A    between atoms: O_6  and  C_7
REMARK    6  A    between atoms: C_11  and  C_12
REMARK    7  A    between atoms: C_12  and  S_13
REMARK    8  A    between atoms: S_13  and  C_15
REMARK                            x       y       z     vdW  Elec       q    Type
REMARK                         _______ _______ _______ _____ _____    ______ ____
ROOT
ATOM      1  C   UNL     1     -12.196  12.895  70.008  0.00  0.00    +0.137 A 
ATOM      2  C   UNL     1     -12.061  13.686  68.887  0.00  0.00    +0.027 A 
ATOM      3  C   UNL     1     -11.974  15.164  69.018  0.00  0.00    +0.035 C 
ATOM      4  C   UNL     1     -11.965  13.044  67.673  0.00  0.00    +0.072 A 
ATOM      5  N   UNL     1     -11.714  11.718  67.561  0.00  0.00    -0.247 NA
ATOM      6  C   UNL     1     -11.659  10.990  68.692  0.00  0.00    +0.102 A 
ATOM      7  C   UNL     1     -11.955  11.539  69.922  0.00  0.00    +0.057 A 
ENDROOT
BRANCH   4   8
ATOM      8  C   UNL     1     -11.887  13.856  66.422  0.00  0.00    +0.145 C 
BRANCH   8   9
ATOM      9  S   UNL     1     -10.113  13.908  65.927  0.00  0.00    +0.107 S 
ATOM     10  O   UNL     1     -10.272  13.799  64.380  0.00  0.00    -0.248 OA
BRANCH   9  11
ATOM     11  C   UNL     1      -9.736  15.672  66.068  0.00  0.00    +0.221 A 
ATOM     12  N   UNL     1     -10.410  16.706  65.577  0.00  0.00    -0.218 NA
ATOM     13  C   UNL     1     -10.019  17.858  66.151  0.00  0.00    +0.101 A 
ATOM     14  C   UNL     1      -9.112  17.492  67.133  0.00  0.00    +0.101 A 
ATOM     15  C   UNL     1      -8.592  18.497  67.919  0.00  0.00    +0.021 A 
ATOM     16  C   UNL     1      -9.112  19.782  67.877  0.00  0.00    +0.002 A 
ATOM     17  C   UNL     1     -10.083  20.099  66.958  0.00  0.00    +0.002 A 
ATOM     18  C   UNL     1     -10.467  19.150  66.046  0.00  0.00    +0.021 A 
ATOM     19  N   UNL     1      -9.121  16.139  67.181  0.00  0.00    -0.218 NA
ENDBRANCH   9  11
ENDBRANCH   8   9
ENDBRANCH   4   8
BRANCH   1  20
ATOM     20  O   UNL     1     -12.283  13.518  71.247  0.00  0.00    -0.476 OA
BRANCH  20  21
ATOM     21  C   UNL     1     -13.403  13.342  72.088  0.00  0.00    +0.208 C 
BRANCH  21  22
ATOM     22  C   UNL     1     -14.296  14.559  71.881  0.00  0.00    +0.079 C 
BRANCH  22  23
ATOM     23  C   UNL     1     -13.760  15.686  72.748  0.00  0.00    +0.146 C 
BRANCH  23  25
ATOM     24  C   UNL     1     -12.410  16.004  74.581  0.00  0.00    +0.174 C 
ATOM     25  O   UNL     1     -13.108  15.097  73.818  0.00  0.00    -0.351 OA
ENDBRANCH  23  25
ENDBRANCH  22  23
ENDBRANCH  21  22
ENDBRANCH  20  21
ENDBRANCH   1  20
TORSDOF 8
ENDMDL
MODEL 2
REMARK VINA RESULT:      -6.9      2.527      3.272
REMARK  Name = 
REMARK  8 active torsions:
REMARK  status: ('A' for Active; 'I' for Inactive)
REMARK    1  A    between atoms: O_2  and  C_3
REMARK    2  A    between atoms: C_3  and  C_4
REMARK    3  A    between atoms: C_4  and  C_5
REMARK    4  A    between atoms: C_5  and  O_6
REMARK    5  A    between atoms: O_6  and  C_7
REMARK    6  A    between atoms: C_11  and  C_12
REMARK    7  A    between atoms: C_12  and  S_13
REMARK    8  A    between atoms: S_13  and  C_15
REMARK                            x       y       z     vdW  Elec       q    Type
REMARK                         _______ _______ _______ _____ _____    ______ ____
ROOT
ATOM      1  C   UNL     1     -11.162  11.073  68.522  0.00  0.00    +0.137 A 
ATOM      2  C   UNL     1     -11.628  12.325  68.180  0.00  0.00    +0.027 A 
ATOM      3  C   UNL     1     -11.943  13.321  69.237  0.00  0.00    +0.035 C 
ATOM      4  C   UNL     1     -11.738  12.611  66.838  0.00  0.00    +0.072 A 
ATOM      5  N   UNL     1     -11.157  11.854  65.876  0.00  0.00    -0.247 NA
ATOM      6  C   UNL     1     -10.535  10.721  66.256  0.00  0.00    +0.102 A 
ATOM      7  C   UNL     1     -10.574  10.276  67.561  0.00  0.00    +0.057 A 
ENDROOT
BRANCH   4   8
ATOM      8  C   UNL     1     -12.302  13.926  66.415  0.00  0.00    +0.145 C 
BRANCH   8   9
ATOM      9  S   UNL     1     -11.260  14.534  65.023  0.00  0.00    +0.107 S 
ATOM     10  O   UNL     1     -12.368  15.162  64.124  0.00  0.00    -0.248 OA
BRANCH   9  11
ATOM     11  C   UNL     1     -10.547  16.044  65.720  0.00  0.00    +0.221 A 
ATOM     12  N   UNL     1     -10.562  17.276  65.222  0.00  0.00    -0.218 NA
ATOM     13  C   UNL     1     -10.227  18.183  66.155  0.00  0.00    +0.101 A 
ATOM     14  C   UNL     1     -10.093  17.467  67.335  0.00  0.00    +0.101 A 
ATOM     15  C   UNL     1      -9.803  18.179  68.478  0.00  0.00    +0.021 A 
ATOM     16  C   UNL     1      -9.855  19.565  68.491  0.00  0.00    +0.002 A 
ATOM     17  C   UNL     1     -10.085  20.254  67.325  0.00  0.00    +0.002 A 
ATOM     18  C   UNL     1     -10.187  19.554  66.151  0.00  0.00    +0.021 A 
ATOM     19  N   UNL     1     -10.493  16.202  67.065  0.00  0.00    -0.218 NA
ENDBRANCH   9  11
ENDBRANCH   8   9
ENDBRANCH   4   8
BRANCH   1  20
ATOM     20  O   UNL     1     -11.031  10.763  69.870  0.00  0.00    -0.476 OA
BRANCH  20  21
ATOM     21  C   UNL     1     -11.644   9.622  70.432  0.00  0.00    +0.208 C 
BRANCH  21  22
ATOM     22  C   UNL     1     -12.795  10.126  71.292  0.00  0.00    +0.079 C 
BRANCH  22  23
ATOM     23  C   UNL     1     -12.989   9.145  72.436  0.00  0.00    +0.146 C 
BRANCH  23  25
ATOM     24  C   UNL     1     -14.765   7.857  71.751  0.00  0.00    +0.174 C 
ATOM     25  O   UNL     1     -14.349   8.906  72.537  0.00  0.00    -0.351 OA
ENDBRANCH  23  25
ENDBRANCH  22  23
ENDBRANCH  21  22
ENDBRANCH  20  21
ENDBRANCH   1  20
TORSDOF 8
ENDMDL
MODEL 3
REMARK VINA RESULT:      -6.5      3.324      7.289
REMARK  Name = 
REMARK  8 active torsions:
REMARK  status: ('A' for Active; 'I' for Inactive)
REMARK    1  A    between atoms: O_2  and  C_3
REMARK    2  A    between atoms: C_3  and  C_4
REMARK    3  A    between atoms: C_4  and  C_5
REMARK    4  A    between atoms: C_5  and  O_6
REMARK    5  A    between atoms: O_6  and  C_7
REMARK    6  A    between atoms: C_11  and  C_12
REMARK    7  A    between atoms: C_12  and  S_13
REMARK    8  A    between atoms: S_13  and  C_15
REMARK                            x       y       z     vdW  Elec       q    Type
REMARK                         _______ _______ _______ _____ _____    ______ ____
ROOT
ATOM      1  C   UNL     1      -8.458  19.263  67.357  0.00  0.00    +0.137 A 
ATOM      2  C   UNL     1      -8.481  17.891  67.497  0.00  0.00    +0.027 A 
ATOM      3  C   UNL     1      -7.637  17.230  68.526  0.00  0.00    +0.035 C 
ATOM      4  C   UNL     1      -9.342  17.190  66.684  0.00  0.00    +0.072 A 
ATOM      5  N   UNL     1     -10.339  17.783  65.986  0.00  0.00    -0.247 NA
ATOM      6  C   UNL     1     -10.416  19.127  66.016  0.00  0.00    +0.102 A 
ATOM      7  C   UNL     1      -9.456  19.894  66.642  0.00  0.00    +0.057 A 
ENDROOT
BRANCH   4   8
ATOM      8  C   UNL     1      -9.355  15.698  66.748  0.00  0.00    +0.145 C 
BRANCH   8   9
ATOM      9  S   UNL     1     -11.121  15.176  66.713  0.00  0.00    +0.107 S 
ATOM     10  O   UNL     1     -10.940  13.679  66.318  0.00  0.00    -0.248 OA
BRANCH   9  11
ATOM     11  C   UNL     1     -11.489  14.980  68.474  0.00  0.00    +0.221 A 
ATOM     12  N   UNL     1     -11.958  15.882  69.330  0.00  0.00    -0.218 NA
ATOM     13  C   UNL     1     -12.409  15.299  70.454  0.00  0.00    +0.101 A 
ATOM     14  C   UNL     1     -12.300  13.935  70.231  0.00  0.00    +0.101 A 
ATOM     15  C   UNL     1     -12.753  13.093  71.224  0.00  0.00    +0.021 A 
ATOM     16  C   UNL     1     -13.482  13.581  72.298  0.00  0.00    +0.002 A 
ATOM     17  C   UNL     1     -13.662  14.935  72.448  0.00  0.00    +0.002 A 
ATOM     18  C   UNL     1     -13.049  15.786  71.564  0.00  0.00    +0.021 A 
ATOM     19  N   UNL     1     -11.923  13.784  68.939  0.00  0.00    -0.218 NA
ENDBRANCH   9  11
ENDBRANCH   8   9
ENDBRANCH   4   8
BRANCH   1  20
ATOM     20  O   UNL     1      -7.605  19.995  68.174  0.00  0.00    -0.476 OA
BRANCH  20  21
ATOM     21  C   UNL     1      -6.639  20.874  67.638  0.00  0.00    +0.208 C 
BRANCH  21  22
ATOM     22  C   UNL     1      -5.474  20.889  68.620  0.00  0.00    +0.079 C 
BRANCH  22  23
ATOM     23  C   UNL     1      -5.968  20.323  69.941  0.00  0.00    +0.146 C 
BRANCH  23  25
ATOM     24  C   UNL     1      -4.533  20.357  71.736  0.00  0.00    +0.174 C 
ATOM     25  O   UNL     1      -5.394  21.083  70.946  0.00  0.00    -0.351 OA
ENDBRANCH  23  25
ENDBRANCH  22  23
ENDBRANCH  21  22
ENDBRANCH  20  21
ENDBRANCH   1  20
TORSDOF 8
ENDMDL
MODEL 4
REMARK VINA RESULT:      -6.4      1.514      2.263
REMARK  Name = 
REMARK  8 active torsions:
REMARK  status: ('A' for Active; 'I' for Inactive)
REMARK    1  A    between atoms: O_2  and  C_3
REMARK    2  A    between atoms: C_3  and  C_4
REMARK    3  A    between atoms: C_4  and  C_5
REMARK    4  A    between atoms: C_5  and  O_6
REMARK    5  A    between atoms: O_6  and  C_7
REMARK    6  A    between atoms: C_11  and  C_12
REMARK    7  A    between atoms: C_12  and  S_13
REMARK    8  A    between atoms: S_13  and  C_15
REMARK                            x       y       z     vdW  Elec       q    Type
REMARK                         _______ _______ _______ _____ _____    ______ ____
ROOT
ATOM      1  C   UNL     1     -11.700  12.283  68.508  0.00  0.00    +0.137 A 
ATOM      2  C   UNL     1     -11.995  13.481  67.892  0.00  0.00    +0.027 A 
ATOM      3  C   UNL     1     -12.196  14.710  68.702  0.00  0.00    +0.035 C 
ATOM      4  C   UNL     1     -12.046  13.485  66.516  0.00  0.00    +0.072 A 
ATOM      5  N   UNL     1     -11.552  12.476  65.760  0.00  0.00    -0.247 NA
ATOM      6  C   UNL     1     -11.087  11.383  66.395  0.00  0.00    +0.102 A 
ATOM      7  C   UNL     1     -11.204  11.234  67.761  0.00  0.00    +0.057 A 
ENDROOT
BRANCH   4   8
ATOM      8  C   UNL     1     -12.430  14.740  65.804  0.00  0.00    +0.145 C 
BRANCH   8   9
ATOM      9  S   UNL     1     -10.928  15.332  64.916  0.00  0.00    +0.107 S 
ATOM     10  O   UNL     1     -11.598  16.293  63.887  0.00  0.00    -0.248 OA
BRANCH   9  11
ATOM     11  C   UNL     1     -10.263  16.551  66.076  0.00  0.00    +0.221 A 
ATOM     12  N   UNL     1      -9.278  16.408  66.956  0.00  0.00    -0.218 NA
ATOM     13  C   UNL     1      -8.849  17.600  67.405  0.00  0.00    +0.101 A 
ATOM     14  C   UNL     1      -9.553  18.545  66.675  0.00  0.00    +0.101 A 
ATOM     15  C   UNL     1      -9.258  19.871  66.905  0.00  0.00    +0.021 A 
ATOM     16  C   UNL     1      -8.161  20.239  67.669  0.00  0.00    +0.002 A 
ATOM     17  C   UNL     1      -7.415  19.277  68.307  0.00  0.00    +0.002 A 
ATOM     18  C   UNL     1      -7.820  17.968  68.234  0.00  0.00    +0.021 A 
ATOM     19  N   UNL     1     -10.255  17.863  65.739  0.00  0.00    -0.218 NA
ENDBRANCH   9  11
ENDBRANCH   8   9
ENDBRANCH   4   8
BRANCH   1  20
ATOM     20  O   UNL     1     -11.631  12.254  69.895  0.00  0.00    -0.476 OA
BRANCH  20  21
ATOM     21  C   UNL     1     -12.022  11.116  70.633  0.00  0.00    +0.208 C 
BRANCH  21  22
ATOM     22  C   UNL     1     -13.126  11.570  71.580  0.00  0.00    +0.079 C 
BRANCH  22  23
ATOM     23  C   UNL     1     -12.911  13.045  71.878  0.00  0.00    +0.146 C 
BRANCH  23  25
ATOM     24  C   UNL     1     -14.648  14.548  71.846  0.00  0.00    +0.174 C 
ATOM     25  O   UNL     1     -14.055  13.500  72.510  0.00  0.00    -0.351 OA
ENDBRANCH  23  25
ENDBRANCH  22  23
ENDBRANCH  21  22
ENDBRANCH  20  21
ENDBRANCH   1  20
TORSDOF 8
ENDMDL
MODEL 5
REMARK VINA RESULT:      -6.2      2.518      6.142
REMARK  Name = 
REMARK  8 active torsions:
REMARK  status: ('A' for Active; 'I' for Inactive)
REMARK    1  A    between atoms: O_2  and  C_3
REMARK    2  A    between atoms: C_3  and  C_4
REMARK    3  A    between atoms: C_4  and  C_5
REMARK    4  A    between atoms: C_5  and  O_6
REMARK    5  A    between atoms: O_6  and  C_7
REMARK    6  A    between atoms: C_11  and  C_12
REMARK    7  A    between atoms: C_12  and  S_13
REMARK    8  A    between atoms: S_13  and  C_15
REMARK                            x       y       z     vdW  Elec       q    Type
REMARK                         _______ _______ _______ _____ _____    ______ ____
ROOT
ATOM      1  C   UNL     1     -10.035  15.887  65.804  0.00  0.00    +0.137 A 
ATOM      2  C   UNL     1      -9.652  15.039  66.822  0.00  0.00    +0.027 A 
ATOM      3  C   UNL     1      -8.776  15.531  67.917  0.00  0.00    +0.035 C 
ATOM      4  C   UNL     1     -10.153  13.757  66.795  0.00  0.00    +0.072 A 
ATOM      5  N   UNL     1     -11.192  13.391  66.007  0.00  0.00    -0.247 NA
ATOM      6  C   UNL     1     -11.681  14.303  65.146  0.00  0.00    +0.102 A 
ATOM      7  C   UNL     1     -11.085  15.536  64.979  0.00  0.00    +0.057 A 
ENDROOT
BRANCH   4   8
ATOM      8  C   UNL     1      -9.715  12.780  67.835  0.00  0.00    +0.145 C 
BRANCH   8   9
ATOM      9  S   UNL     1     -11.222  11.876  68.389  0.00  0.00    +0.107 S 
ATOM     10  O   UNL     1     -10.567  10.859  69.372  0.00  0.00    -0.248 OA
BRANCH   9  11
ATOM     11  C   UNL     1     -11.935  13.033  69.584  0.00  0.00    +0.221 A 
ATOM     12  N   UNL     1     -12.602  12.765  70.701  0.00  0.00    -0.218 NA
ATOM     13  C   UNL     1     -12.690  13.852  71.488  0.00  0.00    +0.101 A 
ATOM     14  C   UNL     1     -11.938  14.829  70.854  0.00  0.00    +0.101 A 
ATOM     15  C   UNL     1     -11.815  16.045  71.490  0.00  0.00    +0.021 A 
ATOM     16  C   UNL     1     -12.241  16.215  72.798  0.00  0.00    +0.002 A 
ATOM     17  C   UNL     1     -12.901  15.197  73.444  0.00  0.00    +0.002 A 
ATOM     18  C   UNL     1     -13.192  14.052  72.748  0.00  0.00    +0.021 A 
ATOM     19  N   UNL     1     -11.332  14.227  69.803  0.00  0.00    -0.218 NA
ENDBRANCH   9  11
ENDBRANCH   8   9
ENDBRANCH   4   8
BRANCH   1  20
ATOM     20  O   UNL     1      -9.552  17.190  65.814  0.00  0.00    -0.476 OA
BRANCH  20  21
ATOM     21  C   UNL     1     -10.420  18.301  65.887  0.00  0.00    +0.208 C 
BRANCH  21  22
ATOM     22  C   UNL     1     -10.596  18.618  67.367  0.00  0.00    +0.079 C 
BRANCH  22  23
ATOM     23  C   UNL     1      -9.692  19.792  67.705  0.00  0.00    +0.146 C 
BRANCH  23  25
ATOM     24  C   UNL     1      -7.590  19.113  68.340  0.00  0.00    +0.174 C 
ATOM     25  O   UNL     1      -8.876  19.385  68.746  0.00  0.00    -0.351 OA
ENDBRANCH  23  25
ENDBRANCH  22  23
ENDBRANCH  21  22
ENDBRANCH  20  21
ENDBRANCH   1  20
TORSDOF 8
ENDMDL
MODEL 6
REMARK VINA RESULT:      -6.2      2.562      3.523
REMARK  Name = 
REMARK  8 active torsions:
REMARK  status: ('A' for Active; 'I' for Inactive)
REMARK    1  A    between atoms: O_2  and  C_3
REMARK    2  A    between atoms: C_3  and  C_4
REMARK    3  A    between atoms: C_4  and  C_5
REMARK    4  A    between atoms: C_5  and  O_6
REMARK    5  A    between atoms: O_6  and  C_7
REMARK    6  A    between atoms: C_11  and  C_12
REMARK    7  A    between atoms: C_12  and  S_13
REMARK    8  A    between atoms: S_13  and  C_15
REMARK                            x       y       z     vdW  Elec       q    Type
REMARK                         _______ _______ _______ _____ _____    ______ ____
ROOT
ATOM      1  C   UNL     1     -11.087  11.336  68.260  0.00  0.00    +0.137 A 
ATOM      2  C   UNL     1     -11.614  12.540  67.844  0.00  0.00    +0.027 A 
ATOM      3  C   UNL     1     -11.920  13.607  68.832  0.00  0.00    +0.035 C 
ATOM      4  C   UNL     1     -11.792  12.714  66.490  0.00  0.00    +0.072 A 
ATOM      5  N   UNL     1     -11.226  11.903  65.564  0.00  0.00    -0.247 NA
ATOM      6  C   UNL     1     -10.546  10.826  66.002  0.00  0.00    +0.102 A 
ATOM      7  C   UNL     1     -10.512  10.485  67.338  0.00  0.00    +0.057 A 
ENDROOT
BRANCH   4   8
ATOM      8  C   UNL     1     -12.423  13.972  65.991  0.00  0.00    +0.145 C 
BRANCH   8   9
ATOM      9  S   UNL     1     -11.164  14.829  64.956  0.00  0.00    +0.107 S 
ATOM     10  O   UNL     1     -12.107  15.548  63.943  0.00  0.00    -0.248 OA
BRANCH   9  11
ATOM     11  C   UNL     1     -10.716  16.238  66.000  0.00  0.00    +0.221 A 
ATOM     12  N   UNL     1      -9.965  16.253  67.096  0.00  0.00    -0.218 NA
ATOM     13  C   UNL     1      -9.587  17.504  67.410  0.00  0.00    +0.101 A 
ATOM     14  C   UNL     1     -10.057  18.302  66.378  0.00  0.00    +0.101 A 
ATOM     15  C   UNL     1      -9.752  19.645  66.427  0.00  0.00    +0.021 A 
ATOM     16  C   UNL     1      -8.839  20.139  67.346  0.00  0.00    +0.002 A 
ATOM     17  C   UNL     1      -8.309  19.307  68.303  0.00  0.00    +0.002 A 
ATOM     18  C   UNL     1      -8.756  18.012  68.375  0.00  0.00    +0.021 A 
ATOM     19  N   UNL     1     -10.563  17.464  65.443  0.00  0.00    -0.218 NA
ENDBRANCH   9  11
ENDBRANCH   8   9
ENDBRANCH   4   8
BRANCH   1  20
ATOM     20  O   UNL     1     -10.886  11.140  69.621  0.00  0.00    -0.476 OA
BRANCH  20  21
ATOM     21  C   UNL     1     -11.404  10.011  70.292  0.00  0.00    +0.208 C 
BRANCH  21  22
ATOM     22  C   UNL     1     -12.527  10.515  71.189  0.00  0.00    +0.079 C 
BRANCH  22  23
ATOM     23  C   UNL     1     -13.444   9.342  71.494  0.00  0.00    +0.146 C 
BRANCH  23  25
ATOM     24  C   UNL     1     -12.998   7.088  71.528  0.00  0.00    +0.174 C 
ATOM     25  O   UNL     1     -12.649   8.330  72.003  0.00  0.00    -0.351 OA
ENDBRANCH  23  25
ENDBRANCH  22  23
ENDBRANCH  21  22
ENDBRANCH  20  21
ENDBRANCH   1  20
TORSDOF 8
ENDMDL
MODEL 7
REMARK VINA RESULT:      -6.1      2.068      2.469
REMARK  Name = 
REMARK  8 active torsions:
REMARK  status: ('A' for Active; 'I' for Inactive)
REMARK    1  A    between atoms: O_2  and  C_3
REMARK    2  A    between atoms: C_3  and  C_4
REMARK    3  A    between atoms: C_4  and  C_5
REMARK    4  A    between atoms: C_5  and  O_6
REMARK    5  A    between atoms: O_6  and  C_7
REMARK    6  A    between atoms: C_11  and  C_12
REMARK    7  A    between atoms: C_12  and  S_13
REMARK    8  A    between atoms: S_13  and  C_15
REMARK                            x       y       z     vdW  Elec       q    Type
REMARK                         _______ _______ _______ _____ _____    ______ ____
ROOT
ATOM      1  C   UNL     1     -11.862  13.660  69.755  0.00  0.00    +0.137 A 
ATOM      2  C   UNL     1     -11.372  14.898  69.395  0.00  0.00    +0.027 A 
ATOM      3  C   UNL     1     -11.093  15.924  70.433  0.00  0.00    +0.035 C 
ATOM      4  C   UNL     1     -11.117  15.109  68.059  0.00  0.00    +0.072 A 
ATOM      5  N   UNL     1     -11.051  14.102  67.156  0.00  0.00    -0.247 NA
ATOM      6  C   UNL     1     -11.351  12.858  67.577  0.00  0.00    +0.102 A 
ATOM      7  C   UNL     1     -11.817  12.617  68.853  0.00  0.00    +0.057 A 
ENDROOT
BRANCH   4   8
ATOM      8  C   UNL     1     -10.651  16.454  67.608  0.00  0.00    +0.145 C 
BRANCH   8   9
ATOM      9  S   UNL     1      -9.581  16.183  66.133  0.00  0.00    +0.107 S 
ATOM     10  O   UNL     1     -10.398  16.979  65.071  0.00  0.00    -0.248 OA
BRANCH   9  11
ATOM     11  C   UNL     1      -8.237  17.360  66.423  0.00  0.00    +0.221 A 
ATOM     12  N   UNL     1      -7.703  18.234  65.578  0.00  0.00    -0.218 NA
ATOM     13  C   UNL     1      -6.964  19.150  66.227  0.00  0.00    +0.101 A 
ATOM     14  C   UNL     1      -7.138  18.877  67.575  0.00  0.00    +0.101 A 
ATOM     15  C   UNL     1      -6.521  19.718  68.476  0.00  0.00    +0.021 A 
ATOM     16  C   UNL     1      -5.934  20.904  68.062  0.00  0.00    +0.002 A 
ATOM     17  C   UNL     1      -5.858  21.202  66.723  0.00  0.00    +0.002 A 
ATOM     18  C   UNL     1      -6.302  20.278  65.813  0.00  0.00    +0.021 A 
ATOM     19  N   UNL     1      -8.079  17.906  67.653  0.00  0.00    -0.218 NA
ENDBRANCH   9  11
ENDBRANCH   8   9
ENDBRANCH   4   8
BRANCH   1  20
ATOM     20  O   UNL     1     -12.117  13.418  71.100  0.00  0.00    -0.476 OA
BRANCH  20  21
ATOM     21  C   UNL     1     -13.261  12.706  71.520  0.00  0.00    +0.208 C 
BRANCH  21  22
ATOM     22  C   UNL     1     -14.026  13.629  72.461  0.00  0.00    +0.079 C 
BRANCH  22  23
ATOM     23  C   UNL     1     -14.368  14.897  71.696  0.00  0.00    +0.146 C 
BRANCH  23  25
ATOM     24  C   UNL     1     -13.191  16.025  73.315  0.00  0.00    +0.174 C 
ATOM     25  O   UNL     1     -14.370  15.934  72.613  0.00  0.00    -0.351 OA
ENDBRANCH  23  25
ENDBRANCH  22  23
ENDBRANCH  21  22
ENDBRANCH  20  21
ENDBRANCH   1  20
TORSDOF 8
ENDMDL
MODEL 8
REMARK VINA RESULT:      -6.0      3.175      4.932
REMARK  Name = 
REMARK  8 active torsions:
REMARK  status: ('A' for Active; 'I' for Inactive)
REMARK    1  A    between atoms: O_2  and  C_3
REMARK    2  A    between atoms: C_3  and  C_4
REMARK    3  A    between atoms: C_4  and  C_5
REMARK    4  A    between atoms: C_5  and  O_6
REMARK    5  A    between atoms: O_6  and  C_7
REMARK    6  A    between atoms: C_11  and  C_12
REMARK    7  A    between atoms: C_12  and  S_13
REMARK    8  A    between atoms: S_13  and  C_15
REMARK                            x       y       z     vdW  Elec       q    Type
REMARK                         _______ _______ _______ _____ _____    ______ ____
ROOT
ATOM      1  C   UNL     1     -10.902  10.310  67.624  0.00  0.00    +0.137 A 
ATOM      2  C   UNL     1     -11.394  11.598  67.582  0.00  0.00    +0.027 A 
ATOM      3  C   UNL     1     -11.732  12.312  68.840  0.00  0.00    +0.035 C 
ATOM      4  C   UNL     1     -11.507  12.188  66.343  0.00  0.00    +0.072 A 
ATOM      5  N   UNL     1     -10.908  11.689  65.235  0.00  0.00    -0.247 NA
ATOM      6  C   UNL     1     -10.264  10.512  65.343  0.00  0.00    +0.102 A 
ATOM      7  C   UNL     1     -10.296   9.772  66.507  0.00  0.00    +0.057 A 
ENDROOT
BRANCH   4   8
ATOM      8  C   UNL     1     -12.098  13.554  66.236  0.00  0.00    +0.145 C 
BRANCH   8   9
ATOM      9  S   UNL     1     -11.312  14.365  64.781  0.00  0.00    +0.107 S 
ATOM     10  O   UNL     1     -12.580  14.970  64.105  0.00  0.00    -0.248 OA
BRANCH   9  11
ATOM     11  C   UNL     1     -10.619  15.867  65.517  0.00  0.00    +0.221 A 
ATOM     12  N   UNL     1     -10.692  17.117  65.075  0.00  0.00    -0.218 NA
ATOM     13  C   UNL     1     -10.348  17.993  66.035  0.00  0.00    +0.101 A 
ATOM     14  C   UNL     1     -10.146  17.231  67.176  0.00  0.00    +0.101 A 
ATOM     15  C   UNL     1      -9.833  17.903  68.338  0.00  0.00    +0.021 A 
ATOM     16  C   UNL     1      -9.928  19.284  68.415  0.00  0.00    +0.002 A 
ATOM     17  C   UNL     1     -10.225  20.016  67.291  0.00  0.00    +0.002 A 
ATOM     18  C   UNL     1     -10.351  19.364  66.090  0.00  0.00    +0.021 A 
ATOM     19  N   UNL     1     -10.517  15.967  66.864  0.00  0.00    -0.218 NA
ENDBRANCH   9  11
ENDBRANCH   8   9
ENDBRANCH   4   8
BRANCH   1  20
ATOM     20  O   UNL     1     -10.768   9.696  68.863  0.00  0.00    -0.476 OA
BRANCH  20  21
ATOM     21  C   UNL     1      -9.845   8.649  69.076  0.00  0.00    +0.208 C 
BRANCH  21  22
ATOM     22  C   UNL     1     -10.610   7.530  69.770  0.00  0.00    +0.079 C 
BRANCH  22  23
ATOM     23  C   UNL     1      -9.784   6.259  69.658  0.00  0.00    +0.146 C 
BRANCH  23  25
ATOM     24  C   UNL     1      -9.905   4.349  70.930  0.00  0.00    +0.174 C 
ATOM     25  O   UNL     1     -10.580   5.220  70.108  0.00  0.00    -0.351 OA
ENDBRANCH  23  25
ENDBRANCH  22  23
ENDBRANCH  21  22
ENDBRANCH  20  21
ENDBRANCH   1  20
TORSDOF 8
ENDMDL
MODEL 9
REMARK VINA RESULT:      -5.9      3.091      8.185
REMARK  Name = 
REMARK  8 active torsions:
REMARK  status: ('A' for Active; 'I' for Inactive)
REMARK    1  A    between atoms: O_2  and  C_3
REMARK    2  A    between atoms: C_3  and  C_4
REMARK    3  A    between atoms: C_4  and  C_5
REMARK    4  A    between atoms: C_5  and  O_6
REMARK    5  A    between atoms: O_6  and  C_7
REMARK    6  A    between atoms: C_11  and  C_12
REMARK    7  A    between atoms: C_12  and  S_13
REMARK    8  A    between atoms: S_13  and  C_15
REMARK                            x       y       z     vdW  Elec       q    Type
REMARK                         _______ _______ _______ _____ _____    ______ ____
ROOT
ATOM      1  C   UNL     1      -8.599  18.603  66.209  0.00  0.00    +0.137 A 
ATOM      2  C   UNL     1      -8.715  17.543  67.084  0.00  0.00    +0.027 A 
ATOM      3  C   UNL     1      -7.622  16.543  67.198  0.00  0.00    +0.035 C 
ATOM      4  C   UNL     1      -9.850  17.490  67.860  0.00  0.00    +0.072 A 
ATOM      5  N   UNL     1     -10.688  18.544  68.009  0.00  0.00    -0.247 NA
ATOM      6  C   UNL     1     -10.444  19.650  67.281  0.00  0.00    +0.102 A 
ATOM      7  C   UNL     1      -9.445  19.687  66.331  0.00  0.00    +0.057 A 
ENDROOT
BRANCH   4   8
ATOM      8  C   UNL     1     -10.057  16.327  68.773  0.00  0.00    +0.145 C 
BRANCH   8   9
ATOM      9  S   UNL     1     -11.588  15.471  68.213  0.00  0.00    +0.107 S 
ATOM     10  O   UNL     1     -11.039  14.765  66.936  0.00  0.00    -0.248 OA
BRANCH   9  11
ATOM     11  C   UNL     1     -11.658  14.053  69.334  0.00  0.00    +0.221 A 
ATOM     12  N   UNL     1     -12.377  13.904  70.441  0.00  0.00    -0.218 NA
ATOM     13  C   UNL     1     -12.421  12.616  70.824  0.00  0.00    +0.101 A 
ATOM     14  C   UNL     1     -11.764  11.912  69.827  0.00  0.00    +0.101 A 
ATOM     15  C   UNL     1     -11.714  10.540  69.949  0.00  0.00    +0.021 A 
ATOM     16  C   UNL     1     -12.468   9.878  70.907  0.00  0.00    +0.002 A 
ATOM     17  C   UNL     1     -13.191  10.597  71.828  0.00  0.00    +0.002 A 
ATOM     18  C   UNL     1     -13.092  11.965  71.827  0.00  0.00    +0.021 A 
ATOM     19  N   UNL     1     -11.493  12.801  68.842  0.00  0.00    -0.218 NA
ENDBRANCH   9  11
ENDBRANCH   8   9
ENDBRANCH   4   8
BRANCH   1  20
ATOM     20  O   UNL     1      -7.457  18.686  65.422  0.00  0.00    -0.476 OA
BRANCH  20  21
ATOM     21  C   UNL     1      -6.816  19.919  65.172  0.00  0.00    +0.208 C 
BRANCH  21  22
ATOM     22  C   UNL     1      -5.556  19.935  66.028  0.00  0.00    +0.079 C 
BRANCH  22  23
ATOM     23  C   UNL     1      -5.464  21.296  66.699  0.00  0.00    +0.146 C 
BRANCH  23  25
ATOM     24  C   UNL     1      -6.377  20.573  68.680  0.00  0.00    +0.174 C 
ATOM     25  O   UNL     1      -6.527  21.385  67.580  0.00  0.00    -0.351 OA
ENDBRANCH  23  25
ENDBRANCH  22  23
ENDBRANCH  21  22
ENDBRANCH  20  21
ENDBRANCH   1  20
TORSDOF 8
ENDMDL
