MODEL 1
REMARK VINA RESULT:      -6.1      0.000      0.000
REMARK  Name = 
REMARK  6 active torsions:
REMARK  status: ('A' for Active; 'I' for Inactive)
REMARK    1  A    between atoms: C_2  and  N_4
REMARK    2  A    between atoms: C_11  and  O_12
REMARK    3  A    between atoms: O_12  and  C_13
REMARK    4  A    between atoms: C_13  and  C_15
REMARK    5  A    between atoms: C_15  and  C_16
REMARK    6  A    between atoms: C_15  and  C_18
REMARK                            x       y       z     vdW  Elec       q    Type
REMARK                         _______ _______ _______ _____ _____    ______ ____
ROOT
ATOM      1  N   UNL     1     -10.635  11.495  65.583  0.00  0.00    +0.289 N 
ATOM      2  C   UNL     1     -12.016  12.261  65.815  0.00  0.00    +0.062 C 
ATOM      3  C   UNL     1     -11.636  13.833  66.257  0.00  0.00    +0.099 C 
ATOM      4  C   UNL     1     -11.380  14.632  64.877  0.00  0.00    +0.180 C 
ATOM      5  C   UNL     1     -10.547  13.301  64.566  0.00  0.00    +0.099 C 
ATOM      6  C   UNL     1     -11.618  11.925  67.394  0.00  0.00    +0.061 C 
ATOM      7  C   UNL     1     -10.439  12.952  67.288  0.00  0.00    +0.061 C 
ATOM      8  C   UNL     1      -9.678  12.720  65.840  0.00  0.00    +0.062 C 
ATOM      9  C   UNL     1     -10.326  10.566  66.484  0.00  0.00    +0.170 C 
ENDROOT
BRANCH   1  11
ATOM     10  C   UNL     1     -10.592  11.089  64.059  0.00  0.00    +0.061 C 
ATOM     11  C   UNL     1     -10.530  11.050  64.289  0.00  0.00    +0.058 C 
ATOM     12  C   UNL     1      -9.524   9.916  64.057  0.00  0.00    +0.061 C 
ENDBRANCH   1  11
BRANCH   4  13
ATOM     13  O   UNL     1     -10.033  15.386  65.166  0.00  0.00    -0.452 OA
BRANCH  13  14
ATOM     14  C   UNL     1     -10.408  16.668  65.476  0.00  0.00    +0.323 C 
ATOM     15  O   UNL     1     -11.083  17.358  64.704  0.00  0.00    -0.250 OA
BRANCH  14  16
ATOM     16  C   UNL     1      -9.540  17.626  66.440  0.00  0.00    +0.154 C 
BRANCH  16  17
ATOM     17  C   UNL     1      -9.843  16.732  67.755  0.00  0.00    -0.009 A 
ATOM     18  C   UNL     1      -8.820  16.203  68.412  0.00  0.00    -0.004 A 
ATOM     19  C   UNL     1      -9.114  15.459  69.546  0.00  0.00    -0.000 A 
ATOM     20  C   UNL     1     -10.418  15.317  69.956  0.00  0.00    -0.000 A 
ATOM     21  C   UNL     1     -11.420  16.039  69.321  0.00  0.00    -0.000 A 
ATOM     22  C   UNL     1     -11.034  16.974  68.371  0.00  0.00    -0.004 A 
ENDBRANCH  16  17
BRANCH  16  23
ATOM     23  C   UNL     1      -8.113  16.865  66.119  0.00  0.00    +0.198 C 
ATOM     24  O   UNL     1      -7.351  17.861  65.542  0.00  0.00    -0.219 OA
ENDBRANCH  16  23
ENDBRANCH  14  16
ENDBRANCH  13  14
ENDBRANCH   4  13
TORSDOF 6
ENDMDL
MODEL 2
REMARK VINA RESULT:      -6.0      1.821      2.914
REMARK  Name = 
REMARK  6 active torsions:
REMARK  status: ('A' for Active; 'I' for Inactive)
REMARK    1  A    between atoms: C_2  and  N_4
REMARK    2  A    between atoms: C_11  and  O_12
REMARK    3  A    between atoms: O_12  and  C_13
REMARK    4  A    between atoms: C_13  and  C_15
REMARK    5  A    between atoms: C_15  and  C_16
REMARK    6  A    between atoms: C_15  and  C_18
REMARK                            x       y       z     vdW  Elec       q    Type
REMARK                         _______ _______ _______ _____ _____    ______ ____
ROOT
ATOM      1  N   UNL     1     -11.172  12.552  65.302  0.00  0.00    +0.289 N 
ATOM      2  C   UNL     1     -11.238  12.130  66.840  0.00  0.00    +0.062 C 
ATOM      3  C   UNL     1     -10.682  13.438  67.730  0.00  0.00    +0.099 C 
ATOM      4  C   UNL     1     -11.948  14.426  67.906  0.00  0.00    +0.180 C 
ATOM      5  C   UNL     1     -12.096  14.085  66.350  0.00  0.00    +0.099 C 
ATOM      6  C   UNL     1      -9.619  11.881  66.556  0.00  0.00    +0.061 C 
ATOM      7  C   UNL     1      -9.430  13.431  66.425  0.00  0.00    +0.061 C 
ATOM      8  C   UNL     1     -10.674  14.030  65.518  0.00  0.00    +0.062 C 
ATOM      9  C   UNL     1     -10.248  11.935  64.569  0.00  0.00    +0.170 C 
ENDROOT
BRANCH   1  11
ATOM     10  C   UNL     1     -12.647  12.608  64.746  0.00  0.00    +0.061 C 
ATOM     11  C   UNL     1     -12.420  12.528  64.731  0.00  0.00    +0.058 C 
ATOM     12  C   UNL     1     -12.506  11.864  63.352  0.00  0.00    +0.061 C 
ENDBRANCH   1  11
BRANCH   4  13
ATOM     13  O   UNL     1     -11.343  15.824  67.524  0.00  0.00    -0.452 OA
BRANCH  13  14
ATOM     14  C   UNL     1     -10.980  16.387  68.721  0.00  0.00    +0.323 C 
ATOM     15  O   UNL     1     -11.703  16.323  69.722  0.00  0.00    -0.250 OA
BRANCH  14  16
ATOM     16  C   UNL     1     -10.027  17.685  68.825  0.00  0.00    +0.154 C 
BRANCH  16  17
ATOM     17  C   UNL     1      -8.698  16.853  68.420  0.00  0.00    -0.009 A 
ATOM     18  C   UNL     1      -8.325  15.839  69.189  0.00  0.00    -0.004 A 
ATOM     19  C   UNL     1      -7.194  15.135  68.803  0.00  0.00    -0.000 A 
ATOM     20  C   UNL     1      -6.525  15.486  67.654  0.00  0.00    -0.000 A 
ATOM     21  C   UNL     1      -7.068  16.444  66.808  0.00  0.00    -0.000 A 
ATOM     22  C   UNL     1      -8.338  16.918  67.108  0.00  0.00    -0.004 A 
ENDBRANCH  16  17
BRANCH  16  23
ATOM     23  C   UNL     1     -10.319  18.178  67.279  0.00  0.00    +0.198 C 
ATOM     24  O   UNL     1     -11.093  19.308  67.453  0.00  0.00    -0.219 OA
ENDBRANCH  16  23
ENDBRANCH  14  16
ENDBRANCH  13  14
ENDBRANCH   4  13
TORSDOF 6
ENDMDL
MODEL 3
REMARK VINA RESULT:      -5.9      3.833      6.575
REMARK  Name = 
REMARK  6 active torsions:
REMARK  status: ('A' for Active; 'I' for Inactive)
REMARK    1  A    between atoms: C_2  and  N_4
REMARK    2  A    between atoms: C_11  and  O_12
REMARK    3  A    between atoms: O_12  and  C_13
REMARK    4  A    between atoms: C_13  and  C_15
REMARK    5  A    between atoms: C_15  and  C_16
REMARK    6  A    between atoms: C_15  and  C_18
REMARK                            x       y       z     vdW  Elec       q    Type
REMARK                         _______ _______ _______ _____ _____    ______ ____
ROOT
ATOM      1  N   UNL     1      -9.099  18.008  67.280  0.00  0.00    +0.289 N 
ATOM      2  C   UNL     1     -10.196  17.032  66.654  0.00  0.00    +0.062 C 
ATOM      3  C   UNL     1     -10.295  15.696  67.661  0.00  0.00    +0.099 C 
ATOM      4  C   UNL     1     -11.295  16.116  68.859  0.00  0.00    +0.180 C 
ATOM      5  C   UNL     1     -10.392  17.435  68.798  0.00  0.00    +0.099 C 
ATOM      6  C   UNL     1      -8.816  16.281  66.111  0.00  0.00    +0.061 C 
ATOM      7  C   UNL     1      -8.495  15.862  67.587  0.00  0.00    +0.061 C 
ATOM      8  C   UNL     1      -8.783  17.159  68.568  0.00  0.00    +0.062 C 
ATOM      9  C   UNL     1      -7.961  18.118  66.600  0.00  0.00    +0.170 C 
ENDROOT
BRANCH   1  11
ATOM     10  C   UNL     1      -9.675  19.389  67.783  0.00  0.00    +0.061 C 
ATOM     11  C   UNL     1      -9.651  19.221  67.611  0.00  0.00    +0.058 C 
ATOM     12  C   UNL     1     -10.297  19.993  66.455  0.00  0.00    +0.061 C 
ENDBRANCH   1  11
BRANCH   4  13
ATOM     13  O   UNL     1     -10.507  15.656  70.137  0.00  0.00    -0.452 OA
BRANCH  13  14
ATOM     14  C   UNL     1     -11.464  15.524  71.110  0.00  0.00    +0.323 C 
ATOM     15  O   UNL     1     -11.183  15.183  72.264  0.00  0.00    -0.250 OA
BRANCH  14  16
ATOM     16  C   UNL     1     -12.994  15.129  70.786  0.00  0.00    +0.154 C 
BRANCH  16  17
ATOM     17  C   UNL     1     -12.700  13.539  70.884  0.00  0.00    -0.009 A 
ATOM     18  C   UNL     1     -13.342  12.831  71.804  0.00  0.00    -0.004 A 
ATOM     19  C   UNL     1     -13.082  11.469  71.848  0.00  0.00    -0.000 A 
ATOM     20  C   UNL     1     -12.209  10.906  70.947  0.00  0.00    -0.000 A 
ATOM     21  C   UNL     1     -11.707  11.675  69.905  0.00  0.00    -0.000 A 
ATOM     22  C   UNL     1     -12.214  12.958  69.752  0.00  0.00    -0.004 A 
ENDBRANCH  16  17
BRANCH  16  23
ATOM     23  C   UNL     1     -13.488  15.244  72.355  0.00  0.00    +0.198 C 
ATOM     24  O   UNL     1     -14.643  15.994  72.264  0.00  0.00    -0.219 OA
ENDBRANCH  16  23
ENDBRANCH  14  16
ENDBRANCH  13  14
ENDBRANCH   4  13
TORSDOF 6
ENDMDL
MODEL 4
REMARK VINA RESULT:      -5.8      2.561      6.018
REMARK  Name = 
REMARK  6 active torsions:
REMARK  status: ('A' for Active; 'I' for Inactive)
REMARK    1  A    between atoms: C_2  and  N_4
REMARK    2  A    between atoms: C_11  and  O_12
REMARK    3  A    between atoms: O_12  and  C_13
REMARK    4  A    between atoms: C_13  and  C_15
REMARK    5  A    between atoms: C_15  and  C_16
REMARK    6  A    between atoms: C_15  and  C_18
REMARK                            x       y       z     vdW  Elec       q    Type
REMARK                         _______ _______ _______ _____ _____    ______ ____
ROOT
ATOM      1  N   UNL     1      -8.918  19.061  66.997  0.00  0.00    +0.289 N 
ATOM      2  C   UNL     1      -8.368  18.176  68.205  0.00  0.00    +0.062 C 
ATOM      3  C   UNL     1      -9.078  16.664  68.068  0.00  0.00    +0.099 C 
ATOM      4  C   UNL     1      -8.178  15.845  67.006  0.00  0.00    +0.180 C 
ATOM      5  C   UNL     1      -8.298  17.237  66.227  0.00  0.00    +0.099 C 
ATOM      6  C   UNL     1      -9.848  18.603  68.829  0.00  0.00    +0.061 C 
ATOM      7  C   UNL     1     -10.534  17.691  67.756  0.00  0.00    +0.061 C 
ATOM      8  C   UNL     1      -9.786  17.944  66.305  0.00  0.00    +0.062 C 
ATOM      9  C   UNL     1      -9.749  20.046  67.328  0.00  0.00    +0.170 C 
ENDROOT
BRANCH   1  11
ATOM     10  C   UNL     1      -7.806  19.467  65.954  0.00  0.00    +0.061 C 
ATOM     11  C   UNL     1      -7.894  19.469  66.178  0.00  0.00    +0.058 C 
ATOM     12  C   UNL     1      -6.907  20.465  66.798  0.00  0.00    +0.061 C 
ENDBRANCH   1  11
BRANCH   4  13
ATOM     13  O   UNL     1      -9.259  15.233  66.045  0.00  0.00    -0.452 OA
BRANCH  13  14
ATOM     14  C   UNL     1      -9.541  14.000  66.574  0.00  0.00    +0.323 C 
ATOM     15  O   UNL     1      -8.651  13.203  66.891  0.00  0.00    -0.250 OA
BRANCH  14  16
ATOM     16  C   UNL     1     -10.897  13.193  66.238  0.00  0.00    +0.154 C 
BRANCH  16  17
ATOM     17  C   UNL     1     -11.343  13.113  67.792  0.00  0.00    -0.009 A 
ATOM     18  C   UNL     1     -11.790  14.213  68.382  0.00  0.00    -0.004 A 
ATOM     19  C   UNL     1     -12.183  14.105  69.708  0.00  0.00    -0.000 A 
ATOM     20  C   UNL     1     -12.121  12.889  70.347  0.00  0.00    -0.000 A 
ATOM     21  C   UNL     1     -11.807  11.747  69.621  0.00  0.00    -0.000 A 
ATOM     22  C   UNL     1     -11.690  11.875  68.243  0.00  0.00    -0.004 A 
ENDBRANCH  16  17
BRANCH  16  23
ATOM     23  C   UNL     1     -11.782  14.552  65.943  0.00  0.00    +0.198 C 
ATOM     24  O   UNL     1     -12.787  14.096  65.113  0.00  0.00    -0.219 OA
ENDBRANCH  16  23
ENDBRANCH  14  16
ENDBRANCH  13  14
ENDBRANCH   4  13
TORSDOF 6
ENDMDL
MODEL 5
REMARK VINA RESULT:      -5.7      1.989      3.458
REMARK  Name = 
REMARK  6 active torsions:
REMARK  status: ('A' for Active; 'I' for Inactive)
REMARK    1  A    between atoms: C_2  and  N_4
REMARK    2  A    between atoms: C_11  and  O_12
REMARK    3  A    between atoms: O_12  and  C_13
REMARK    4  A    between atoms: C_13  and  C_15
REMARK    5  A    between atoms: C_15  and  C_16
REMARK    6  A    between atoms: C_15  and  C_18
REMARK                            x       y       z     vdW  Elec       q    Type
REMARK                         _______ _______ _______ _____ _____    ______ ____
ROOT
ATOM      1  N   UNL     1     -11.336  12.378  65.133  0.00  0.00    +0.289 N 
ATOM      2  C   UNL     1     -10.473  13.562  64.500  0.00  0.00    +0.062 C 
ATOM      3  C   UNL     1     -10.377  14.771  65.657  0.00  0.00    +0.099 C 
ATOM      4  C   UNL     1      -9.161  14.355  66.635  0.00  0.00    +0.180 C 
ATOM      5  C   UNL     1      -9.900  12.940  66.521  0.00  0.00    +0.099 C 
ATOM      6  C   UNL     1     -11.999  14.176  64.262  0.00  0.00    +0.061 C 
ATOM      7  C   UNL     1     -12.134  14.371  65.811  0.00  0.00    +0.061 C 
ATOM      8  C   UNL     1     -11.546  13.019  66.556  0.00  0.00    +0.062 C 
ATOM      9  C   UNL     1     -12.545  12.195  64.608  0.00  0.00    +0.170 C 
ENDROOT
BRANCH   1  11
ATOM     10  C   UNL     1     -10.522  11.045  65.360  0.00  0.00    +0.061 C 
ATOM     11  C   UNL     1     -10.601  11.222  65.216  0.00  0.00    +0.058 C 
ATOM     12  C   UNL     1     -10.138  10.633  63.877  0.00  0.00    +0.061 C 
ENDBRANCH   1  11
BRANCH   4  13
ATOM     13  O   UNL     1      -9.790  14.549  68.061  0.00  0.00    -0.452 OA
BRANCH  13  14
ATOM     14  C   UNL     1      -9.266  15.731  68.517  0.00  0.00    +0.323 C 
ATOM     15  O   UNL     1      -8.066  15.856  68.786  0.00  0.00    -0.250 OA
BRANCH  14  16
ATOM     16  C   UNL     1     -10.124  16.799  69.368  0.00  0.00    +0.154 C 
BRANCH  16  17
ATOM     17  C   UNL     1      -9.992  17.947  68.234  0.00  0.00    -0.009 A 
ATOM     18  C   UNL     1     -10.625  17.775  67.081  0.00  0.00    -0.004 A 
ATOM     19  C   UNL     1     -10.507  18.787  66.139  0.00  0.00    -0.000 A 
ATOM     20  C   UNL     1      -9.778  19.915  66.429  0.00  0.00    -0.000 A 
ATOM     21  C   UNL     1      -9.287  20.104  67.714  0.00  0.00    -0.000 A 
ATOM     22  C   UNL     1      -9.667  19.190  68.687  0.00  0.00    -0.004 A 
ENDBRANCH  16  17
BRANCH  16  23
ATOM     23  C   UNL     1     -11.580  16.263  68.809  0.00  0.00    +0.198 C 
ATOM     24  O   UNL     1     -12.272  15.976  69.968  0.00  0.00    -0.219 OA
ENDBRANCH  16  23
ENDBRANCH  14  16
ENDBRANCH  13  14
ENDBRANCH   4  13
TORSDOF 6
ENDMDL
MODEL 6
REMARK VINA RESULT:      -5.7      2.685      6.533
REMARK  Name = 
REMARK  6 active torsions:
REMARK  status: ('A' for Active; 'I' for Inactive)
REMARK    1  A    between atoms: C_2  and  N_4
REMARK    2  A    between atoms: C_11  and  O_12
REMARK    3  A    between atoms: O_12  and  C_13
REMARK    4  A    between atoms: C_13  and  C_15
REMARK    5  A    between atoms: C_15  and  C_16
REMARK    6  A    between atoms: C_15  and  C_18
REMARK                            x       y       z     vdW  Elec       q    Type
REMARK                         _______ _______ _______ _____ _____    ______ ____
ROOT
ATOM      1  N   UNL     1      -8.558  18.439  67.440  0.00  0.00    +0.289 N 
ATOM      2  C   UNL     1      -9.825  18.300  68.400  0.00  0.00    +0.062 C 
ATOM      3  C   UNL     1     -10.628  16.897  67.954  0.00  0.00    +0.099 C 
ATOM      4  C   UNL     1      -9.870  15.691  68.714  0.00  0.00    +0.180 C 
ATOM      5  C   UNL     1      -8.598  16.499  68.176  0.00  0.00    +0.099 C 
ATOM      6  C   UNL     1     -10.569  18.926  67.052  0.00  0.00    +0.061 C 
ATOM      7  C   UNL     1     -10.301  17.573  66.308  0.00  0.00    +0.061 C 
ATOM      8  C   UNL     1      -8.757  17.093  66.646  0.00  0.00    +0.062 C 
ATOM      9  C   UNL     1      -8.609  19.425  66.548  0.00  0.00    +0.170 C 
ENDROOT
BRANCH   1  11
ATOM     10  C   UNL     1      -7.176  18.312  68.190  0.00  0.00    +0.061 C 
ATOM     11  C   UNL     1      -7.390  18.419  68.160  0.00  0.00    +0.058 C 
ATOM     12  C   UNL     1      -7.179  19.601  69.113  0.00  0.00    +0.061 C 
ENDBRANCH   1  11
BRANCH   4  13
ATOM     13  O   UNL     1      -9.666  14.640  67.566  0.00  0.00    -0.452 OA
BRANCH  13  14
ATOM     14  C   UNL     1     -10.125  13.457  68.087  0.00  0.00    +0.323 C 
ATOM     15  O   UNL     1      -9.417  12.445  68.139  0.00  0.00    -0.250 OA
BRANCH  14  16
ATOM     16  C   UNL     1     -11.680  13.029  68.051  0.00  0.00    +0.154 C 
BRANCH  16  17
ATOM     17  C   UNL     1     -11.757  13.102  66.435  0.00  0.00    -0.009 A 
ATOM     18  C   UNL     1     -11.576  11.986  65.740  0.00  0.00    -0.004 A 
ATOM     19  C   UNL     1     -11.669  12.080  64.360  0.00  0.00    -0.000 A 
ATOM     20  C   UNL     1     -11.960  13.288  63.770  0.00  0.00    -0.000 A 
ATOM     21  C   UNL     1     -12.307  14.373  64.564  0.00  0.00    -0.000 A 
ATOM     22  C   UNL     1     -12.463  14.149  65.925  0.00  0.00    -0.004 A 
ENDBRANCH  16  17
BRANCH  16  23
ATOM     23  C   UNL     1     -11.364  11.411  68.070  0.00  0.00    +0.198 C 
ATOM     24  O   UNL     1     -12.345  10.912  68.903  0.00  0.00    -0.219 OA
ENDBRANCH  16  23
ENDBRANCH  14  16
ENDBRANCH  13  14
ENDBRANCH   4  13
TORSDOF 6
ENDMDL
MODEL 7
REMARK VINA RESULT:      -5.6      2.756      6.205
REMARK  Name = 
REMARK  6 active torsions:
REMARK  status: ('A' for Active; 'I' for Inactive)
REMARK    1  A    between atoms: C_2  and  N_4
REMARK    2  A    between atoms: C_11  and  O_12
REMARK    3  A    between atoms: O_12  and  C_13
REMARK    4  A    between atoms: C_13  and  C_15
REMARK    5  A    between atoms: C_15  and  C_16
REMARK    6  A    between atoms: C_15  and  C_18
REMARK                            x       y       z     vdW  Elec       q    Type
REMARK                         _______ _______ _______ _____ _____    ______ ____
ROOT
ATOM      1  N   UNL     1      -7.620  19.088  68.123  0.00  0.00    +0.289 N 
ATOM      2  C   UNL     1      -6.741  17.942  67.444  0.00  0.00    +0.062 C 
ATOM      3  C   UNL     1      -7.758  16.635  67.184  0.00  0.00    +0.099 C 
ATOM      4  C   UNL     1      -8.518  16.933  65.789  0.00  0.00    +0.180 C 
ATOM      5  C   UNL     1      -8.660  18.371  66.477  0.00  0.00    +0.099 C 
ATOM      6  C   UNL     1      -6.749  17.391  69.011  0.00  0.00    +0.061 C 
ATOM      7  C   UNL     1      -8.274  17.066  68.862  0.00  0.00    +0.061 C 
ATOM      8  C   UNL     1      -9.001  18.332  68.090  0.00  0.00    +0.062 C 
ATOM      9  C   UNL     1      -7.351  19.348  69.400  0.00  0.00    +0.170 C 
ENDROOT
BRANCH   1  11
ATOM     10  C   UNL     1      -7.795  20.371  67.220  0.00  0.00    +0.061 C 
ATOM     11  C   UNL     1      -7.654  20.214  67.337  0.00  0.00    +0.058 C 
ATOM     12  C   UNL     1      -6.317  20.945  67.168  0.00  0.00    +0.061 C 
ENDBRANCH   1  11
BRANCH   4  13
ATOM     13  O   UNL     1     -10.016  16.632  66.148  0.00  0.00    -0.452 OA
BRANCH  13  14
ATOM     14  C   UNL     1     -10.544  16.075  65.011  0.00  0.00    +0.323 C 
ATOM     15  O   UNL     1     -11.364  16.674  64.307  0.00  0.00    -0.250 OA
BRANCH  14  16
ATOM     16  C   UNL     1     -10.726  14.484  64.819  0.00  0.00    +0.154 C 
BRANCH  16  17
ATOM     17  C   UNL     1     -10.820  14.210  66.412  0.00  0.00    -0.009 A 
ATOM     18  C   UNL     1     -12.014  14.232  66.990  0.00  0.00    -0.004 A 
ATOM     19  C   UNL     1     -12.061  13.973  68.352  0.00  0.00    -0.000 A 
ATOM     20  C   UNL     1     -10.904  13.686  69.038  0.00  0.00    -0.000 A 
ATOM     21  C   UNL     1      -9.717  13.510  68.340  0.00  0.00    -0.000 A 
ATOM     22  C   UNL     1      -9.782  13.512  66.953  0.00  0.00    -0.004 A 
ENDBRANCH  16  17
BRANCH  16  23
ATOM     23  C   UNL     1     -12.361  14.568  64.628  0.00  0.00    +0.198 C 
ATOM     24  O   UNL     1     -12.579  13.833  63.480  0.00  0.00    -0.219 OA
ENDBRANCH  16  23
ENDBRANCH  14  16
ENDBRANCH  13  14
ENDBRANCH   4  13
TORSDOF 6
ENDMDL
MODEL 8
REMARK VINA RESULT:      -5.5      2.375      4.258
REMARK  Name = 
REMARK  6 active torsions:
REMARK  status: ('A' for Active; 'I' for Inactive)
REMARK    1  A    between atoms: C_2  and  N_4
REMARK    2  A    between atoms: C_11  and  O_12
REMARK    3  A    between atoms: O_12  and  C_13
REMARK    4  A    between atoms: C_13  and  C_15
REMARK    5  A    between atoms: C_15  and  C_16
REMARK    6  A    between atoms: C_15  and  C_18
REMARK                            x       y       z     vdW  Elec       q    Type
REMARK                         _______ _______ _______ _____ _____    ______ ____
ROOT
ATOM      1  N   UNL     1     -10.479  14.098  67.167  0.00  0.00    +0.289 N 
ATOM      2  C   UNL     1      -9.496  14.411  68.385  0.00  0.00    +0.062 C 
ATOM      3  C   UNL     1      -9.146  16.050  68.322  0.00  0.00    +0.099 C 
ATOM      4  C   UNL     1     -10.370  16.794  69.068  0.00  0.00    +0.180 C 
ATOM      5  C   UNL     1     -11.201  15.769  68.162  0.00  0.00    +0.099 C 
ATOM      6  C   UNL     1      -8.386  14.323  67.151  0.00  0.00    +0.061 C 
ATOM      7  C   UNL     1      -8.969  15.655  66.566  0.00  0.00    +0.061 C 
ATOM      8  C   UNL     1     -10.617  15.572  66.633  0.00  0.00    +0.062 C 
ATOM      9  C   UNL     1      -9.965  13.373  66.177  0.00  0.00    +0.170 C 
ENDROOT
BRANCH   1  11
ATOM     10  C   UNL     1     -11.922  13.661  67.633  0.00  0.00    +0.061 C 
ATOM     11  C   UNL     1     -11.684  13.620  67.618  0.00  0.00    +0.058 C 
ATOM     12  C   UNL     1     -11.672  12.181  68.148  0.00  0.00    +0.061 C 
ENDBRANCH   1  11
BRANCH   4  13
ATOM     13  O   UNL     1     -10.730  17.946  68.063  0.00  0.00    -0.452 OA
BRANCH  13  14
ATOM     14  C   UNL     1      -9.884  18.974  68.391  0.00  0.00    +0.323 C 
ATOM     15  O   UNL     1      -9.930  19.535  69.491  0.00  0.00    -0.250 OA
BRANCH  14  16
ATOM     16  C   UNL     1      -9.265  19.982  67.294  0.00  0.00    +0.154 C 
BRANCH  16  17
ATOM     17  C   UNL     1      -7.889  19.140  67.162  0.00  0.00    -0.009 A 
ATOM     18  C   UNL     1      -7.423  18.871  65.949  0.00  0.00    -0.004 A 
ATOM     19  C   UNL     1      -6.231  18.165  65.873  0.00  0.00    -0.000 A 
ATOM     20  C   UNL     1      -5.575  17.796  67.023  0.00  0.00    -0.000 A 
ATOM     21  C   UNL     1      -6.029  18.259  68.251  0.00  0.00    -0.000 A 
ATOM     22  C   UNL     1      -7.064  19.184  68.246  0.00  0.00    -0.004 A 
ENDBRANCH  16  17
BRANCH  16  23
ATOM     23  C   UNL     1      -9.977  19.226  66.013  0.00  0.00    +0.198 C 
ATOM     24  O   UNL     1     -10.811  20.199  65.501  0.00  0.00    -0.219 OA
ENDBRANCH  16  23
ENDBRANCH  14  16
ENDBRANCH  13  14
ENDBRANCH   4  13
TORSDOF 6
ENDMDL
MODEL 9
REMARK VINA RESULT:      -5.5      1.627      2.962
REMARK  Name = 
REMARK  6 active torsions:
REMARK  status: ('A' for Active; 'I' for Inactive)
REMARK    1  A    between atoms: C_2  and  N_4
REMARK    2  A    between atoms: C_11  and  O_12
REMARK    3  A    between atoms: O_12  and  C_13
REMARK    4  A    between atoms: C_13  and  C_15
REMARK    5  A    between atoms: C_15  and  C_16
REMARK    6  A    between atoms: C_15  and  C_18
REMARK                            x       y       z     vdW  Elec       q    Type
REMARK                         _______ _______ _______ _____ _____    ______ ____
ROOT
ATOM      1  N   UNL     1     -10.845  11.929  65.745  0.00  0.00    +0.289 N 
ATOM      2  C   UNL     1     -12.125  12.862  65.942  0.00  0.00    +0.062 C 
ATOM      3  C   UNL     1     -11.560  14.390  66.337  0.00  0.00    +0.099 C 
ATOM      4  C   UNL     1     -11.204  15.109  64.935  0.00  0.00    +0.180 C 
ATOM      5  C   UNL     1     -10.537  13.678  64.672  0.00  0.00    +0.099 C 
ATOM      6  C   UNL     1     -11.776  12.532  67.534  0.00  0.00    +0.061 C 
ATOM      7  C   UNL     1     -10.482  13.406  67.404  0.00  0.00    +0.061 C 
ATOM      8  C   UNL     1      -9.749  13.037  65.970  0.00  0.00    +0.062 C 
ATOM      9  C   UNL     1     -10.654  10.999  66.677  0.00  0.00    +0.170 C 
ENDROOT
BRANCH   1  11
ATOM     10  C   UNL     1     -10.854  11.467  64.236  0.00  0.00    +0.061 C 
ATOM     11  C   UNL     1     -10.790  11.433  64.466  0.00  0.00    +0.058 C 
ATOM     12  C   UNL     1      -9.854  10.236  64.259  0.00  0.00    +0.061 C 
ENDBRANCH   1  11
BRANCH   4  13
ATOM     13  O   UNL     1      -9.778  15.704  65.210  0.00  0.00    -0.452 OA
BRANCH  13  14
ATOM     14  C   UNL     1      -9.995  16.753  66.066  0.00  0.00    +0.323 C 
ATOM     15  O   UNL     1     -10.379  17.857  65.666  0.00  0.00    -0.250 OA
BRANCH  14  16
ATOM     16  C   UNL     1      -9.194  16.930  67.455  0.00  0.00    +0.154 C 
BRANCH  16  17
ATOM     17  C   UNL     1      -8.278  18.135  66.880  0.00  0.00    -0.009 A 
ATOM     18  C   UNL     1      -8.324  19.313  67.487  0.00  0.00    -0.004 A 
ATOM     19  C   UNL     1      -7.512  20.316  66.981  0.00  0.00    -0.000 A 
ATOM     20  C   UNL     1      -6.689  20.061  65.909  0.00  0.00    -0.000 A 
ATOM     21  C   UNL     1      -6.565  18.762  65.433  0.00  0.00    -0.000 A 
ATOM     22  C   UNL     1      -7.192  17.753  66.151  0.00  0.00    -0.004 A 
ENDBRANCH  16  17
BRANCH  16  23
ATOM     23  C   UNL     1     -10.310  17.949  68.114  0.00  0.00    +0.198 C 
ATOM     24  O   UNL     1     -11.190  17.087  68.737  0.00  0.00    -0.219 OA
ENDBRANCH  16  23
ENDBRANCH  14  16
ENDBRANCH  13  14
ENDBRANCH   4  13
TORSDOF 6
ENDMDL
