MODEL 1
REMARK VINA RESULT:      -4.6      0.000      0.000
REMARK  Name = 
REMARK  3 active torsions:
REMARK  status: ('A' for Active; 'I' for Inactive)
REMARK    1  A    between atoms: CA_2  and  CB_3
REMARK    2  A    between atoms: CA_2  and  C_9
REMARK    3  A    between atoms: CB_3  and  CG_4
REMARK                            x       y       z     vdW  Elec       q    Type
REMARK                         _______ _______ _______ _____ _____    ______ ____
ROOT
ATOM      1  CB  HIS A   1     -11.186  14.949  66.649  0.00  0.00    +0.078 C 
ENDROOT
BRANCH   1   2
ATOM      2  CG  HIS A   1     -11.014  13.542  67.130  0.00  0.00    +0.082 A 
ATOM      3  ND1 HIS A   1     -10.454  12.611  66.330  0.00  0.00    -0.227 NA
ATOM      4  CE1 HIS A   1     -11.066  11.441  66.420  0.00  0.00    +0.199 A 
ATOM      5  NE2 HIS A   1     -11.861  11.550  67.508  0.00  0.00    -0.221 NA
ATOM      6  CD2 HIS A   1     -11.757  12.804  68.017  0.00  0.00    +0.115 A 
ENDBRANCH   1   2
BRANCH   1   8
ATOM      7  N   HIS A   1      -9.898  16.508  65.530  0.00  0.00    -0.120 NA
ATOM      8  CA  HIS A   1     -10.362  15.027  65.224  0.00  0.00    +0.200 C 
BRANCH   8   9
ATOM      9  C   HIS A   1     -11.648  15.535  64.400  0.00  0.00    +0.382 C 
ATOM     10  OXT HIS A   1     -12.589  14.669  63.992  0.00  0.00    -0.244 OA
ATOM     11  O   HIS A   1     -11.604  16.675  63.940  0.00  0.00    -0.244 OA
ENDBRANCH   8   9
ENDBRANCH   1   8
TORSDOF 3
ENDMDL
MODEL 2
REMARK VINA RESULT:      -4.5      5.702      6.850
REMARK  Name = 
REMARK  3 active torsions:
REMARK  status: ('A' for Active; 'I' for Inactive)
REMARK    1  A    between atoms: CA_2  and  CB_3
REMARK    2  A    between atoms: CA_2  and  C_9
REMARK    3  A    between atoms: CB_3  and  CG_4
REMARK                            x       y       z     vdW  Elec       q    Type
REMARK                         _______ _______ _______ _____ _____    ______ ____
ROOT
ATOM      1  CB  HIS A   1     -13.195  15.258  70.966  0.00  0.00    +0.078 C 
ENDROOT
BRANCH   1   2
ATOM      2  CG  HIS A   1     -12.048  15.239  70.005  0.00  0.00    +0.082 A 
ATOM      3  ND1 HIS A   1     -11.469  16.393  69.609  0.00  0.00    -0.227 NA
ATOM      4  CE1 HIS A   1     -11.169  16.387  68.320  0.00  0.00    +0.199 A 
ATOM      5  NE2 HIS A   1     -11.305  15.096  67.941  0.00  0.00    -0.221 NA
ATOM      6  CD2 HIS A   1     -11.742  14.362  68.995  0.00  0.00    +0.115 A 
ENDBRANCH   1   2
BRANCH   1   8
ATOM      7  N   HIS A   1     -13.881  13.771  72.596  0.00  0.00    -0.120 NA
ATOM      8  CA  HIS A   1     -12.592  14.661  72.378  0.00  0.00    +0.200 C 
BRANCH   8   9
ATOM      9  C   HIS A   1     -13.199  15.865  73.256  0.00  0.00    +0.382 C 
ATOM     10  OXT HIS A   1     -12.642  16.212  74.426  0.00  0.00    -0.244 OA
ATOM     11  O   HIS A   1     -14.321  16.269  72.953  0.00  0.00    -0.244 OA
ENDBRANCH   8   9
ENDBRANCH   1   8
TORSDOF 3
ENDMDL
MODEL 3
REMARK VINA RESULT:      -4.5      2.553      2.898
REMARK  Name = 
REMARK  3 active torsions:
REMARK  status: ('A' for Active; 'I' for Inactive)
REMARK    1  A    between atoms: CA_2  and  CB_3
REMARK    2  A    between atoms: CA_2  and  C_9
REMARK    3  A    between atoms: CB_3  and  CG_4
REMARK                            x       y       z     vdW  Elec       q    Type
REMARK                         _______ _______ _______ _____ _____    ______ ____
ROOT
ATOM      1  CB  HIS A   1     -10.147  14.568  64.968  0.00  0.00    +0.078 C 
ENDROOT
BRANCH   1   2
ATOM      2  CG  HIS A   1     -11.052  13.377  64.902  0.00  0.00    +0.082 A 
ATOM      3  ND1 HIS A   1     -11.112  12.627  63.781  0.00  0.00    -0.227 NA
ATOM      4  CE1 HIS A   1     -12.349  12.253  63.495  0.00  0.00    +0.199 A 
ATOM      5  NE2 HIS A   1     -13.062  12.537  64.609  0.00  0.00    -0.221 NA
ATOM      6  CD2 HIS A   1     -12.251  13.131  65.522  0.00  0.00    +0.115 A 
ENDBRANCH   1   2
BRANCH   1   8
ATOM      7  N   HIS A   1     -11.264  16.470  64.282  0.00  0.00    -0.120 NA
ATOM      8  CA  HIS A   1     -11.040  15.757  65.676  0.00  0.00    +0.200 C 
BRANCH   8   9
ATOM      9  C   HIS A   1      -9.750  16.662  66.002  0.00  0.00    +0.382 C 
ATOM     10  OXT HIS A   1      -9.798  17.997  65.879  0.00  0.00    -0.244 OA
ATOM     11  O   HIS A   1      -8.671  16.081  66.106  0.00  0.00    -0.244 OA
ENDBRANCH   8   9
ENDBRANCH   1   8
TORSDOF 3
ENDMDL
MODEL 4
REMARK VINA RESULT:      -4.5      1.822      2.306
REMARK  Name = 
REMARK  3 active torsions:
REMARK  status: ('A' for Active; 'I' for Inactive)
REMARK    1  A    between atoms: CA_2  and  CB_3
REMARK    2  A    between atoms: CA_2  and  C_9
REMARK    3  A    between atoms: CB_3  and  CG_4
REMARK                            x       y       z     vdW  Elec       q    Type
REMARK                         _______ _______ _______ _____ _____    ______ ____
ROOT
ATOM      1  CB  HIS A   1     -10.660  13.465  64.764  0.00  0.00    +0.078 C 
ENDROOT
BRANCH   1   2
ATOM      2  CG  HIS A   1     -10.955  12.129  65.370  0.00  0.00    +0.082 A 
ATOM      3  ND1 HIS A   1     -11.757  12.032  66.451  0.00  0.00    -0.227 NA
ATOM      4  CE1 HIS A   1     -11.311  11.145  67.327  0.00  0.00    +0.199 A 
ATOM      5  NE2 HIS A   1     -10.352  10.459  66.666  0.00  0.00    -0.221 NA
ATOM      6  CD2 HIS A   1     -10.198  10.985  65.424  0.00  0.00    +0.115 A 
ENDBRANCH   1   2
BRANCH   1   8
ATOM      7  N   HIS A   1     -12.595  14.376  63.889  0.00  0.00    -0.120 NA
ATOM      8  CA  HIS A   1     -11.864  14.459  65.289  0.00  0.00    +0.200 C 
BRANCH   8   9
ATOM      9  C   HIS A   1     -11.073  15.795  64.866  0.00  0.00    +0.382 C 
ATOM     10  OXT HIS A   1     -11.563  16.615  63.923  0.00  0.00    -0.244 OA
ATOM     11  O   HIS A   1      -9.904  15.896  65.237  0.00  0.00    -0.244 OA
ENDBRANCH   8   9
ENDBRANCH   1   8
TORSDOF 3
ENDMDL
MODEL 5
REMARK VINA RESULT:      -4.4      1.992      3.344
REMARK  Name = 
REMARK  3 active torsions:
REMARK  status: ('A' for Active; 'I' for Inactive)
REMARK    1  A    between atoms: CA_2  and  CB_3
REMARK    2  A    between atoms: CA_2  and  C_9
REMARK    3  A    between atoms: CB_3  and  CG_4
REMARK                            x       y       z     vdW  Elec       q    Type
REMARK                         _______ _______ _______ _____ _____    ______ ____
ROOT
ATOM      1  CB  HIS A   1     -10.914  14.153  66.131  0.00  0.00    +0.078 C 
ENDROOT
BRANCH   1   2
ATOM      2  CG  HIS A   1     -10.723  15.030  67.329  0.00  0.00    +0.082 A 
ATOM      3  ND1 HIS A   1     -11.293  14.706  68.509  0.00  0.00    -0.227 NA
ATOM      4  CE1 HIS A   1     -11.784  15.764  69.135  0.00  0.00    +0.199 A 
ATOM      5  NE2 HIS A   1     -11.273  16.826  68.471  0.00  0.00    -0.221 NA
ATOM      6  CD2 HIS A   1     -10.532  16.386  67.422  0.00  0.00    +0.115 A 
ENDBRANCH   1   2
BRANCH   1   8
ATOM      7  N   HIS A   1     -12.526  12.673  65.388  0.00  0.00    -0.120 NA
ATOM      8  CA  HIS A   1     -12.528  14.198  65.808  0.00  0.00    +0.200 C 
BRANCH   8   9
ATOM      9  C   HIS A   1     -12.306  14.680  64.289  0.00  0.00    +0.382 C 
ATOM     10  OXT HIS A   1     -12.148  15.980  63.997  0.00  0.00    -0.244 OA
ATOM     11  O   HIS A   1     -12.548  13.864  63.401  0.00  0.00    -0.244 OA
ENDBRANCH   8   9
ENDBRANCH   1   8
TORSDOF 3
ENDMDL
MODEL 6
REMARK VINA RESULT:      -4.4      5.537      6.525
REMARK  Name = 
REMARK  3 active torsions:
REMARK  status: ('A' for Active; 'I' for Inactive)
REMARK    1  A    between atoms: CA_2  and  CB_3
REMARK    2  A    between atoms: CA_2  and  C_9
REMARK    3  A    between atoms: CB_3  and  CG_4
REMARK                            x       y       z     vdW  Elec       q    Type
REMARK                         _______ _______ _______ _____ _____    ______ ____
ROOT
ATOM      1  CB  HIS A   1     -12.156  15.915  71.643  0.00  0.00    +0.078 C 
ENDROOT
BRANCH   1   2
ATOM      2  CG  HIS A   1     -11.422  15.975  70.340  0.00  0.00    +0.082 A 
ATOM      3  ND1 HIS A   1     -12.101  16.100  69.180  0.00  0.00    -0.227 NA
ATOM      4  CE1 HIS A   1     -11.591  15.349  68.217  0.00  0.00    +0.199 A 
ATOM      5  NE2 HIS A   1     -10.391  14.946  68.694  0.00  0.00    -0.221 NA
ATOM      6  CD2 HIS A   1     -10.230  15.413  69.959  0.00  0.00    +0.115 A 
ENDBRANCH   1   2
BRANCH   1   8
ATOM      7  N   HIS A   1     -14.349  15.966  72.370  0.00  0.00    -0.120 NA
ATOM      8  CA  HIS A   1     -13.547  15.092  71.324  0.00  0.00    +0.200 C 
BRANCH   8   9
ATOM      9  C   HIS A   1     -13.236  13.955  72.420  0.00  0.00    +0.382 C 
ATOM     10  OXT HIS A   1     -13.518  12.666  72.173  0.00  0.00    -0.244 OA
ATOM     11  O   HIS A   1     -12.984  14.332  73.563  0.00  0.00    -0.244 OA
ENDBRANCH   8   9
ENDBRANCH   1   8
TORSDOF 3
ENDMDL
MODEL 7
REMARK VINA RESULT:      -4.4      2.031      2.500
REMARK  Name = 
REMARK  3 active torsions:
REMARK  status: ('A' for Active; 'I' for Inactive)
REMARK    1  A    between atoms: CA_2  and  CB_3
REMARK    2  A    between atoms: CA_2  and  C_9
REMARK    3  A    between atoms: CB_3  and  CG_4
REMARK                            x       y       z     vdW  Elec       q    Type
REMARK                         _______ _______ _______ _____ _____    ______ ____
ROOT
ATOM      1  CB  HIS A   1     -12.159  14.289  65.284  0.00  0.00    +0.078 C 
ENDROOT
BRANCH   1   2
ATOM      2  CG  HIS A   1     -12.053  12.889  64.764  0.00  0.00    +0.082 A 
ATOM      3  ND1 HIS A   1     -11.369  11.954  65.457  0.00  0.00    -0.227 NA
ATOM      4  CE1 HIS A   1     -10.653  11.170  64.667  0.00  0.00    +0.199 A 
ATOM      5  NE2 HIS A   1     -11.105  11.432  63.420  0.00  0.00    -0.221 NA
ATOM      6  CD2 HIS A   1     -12.042  12.412  63.478  0.00  0.00    +0.115 A 
ENDBRANCH   1   2
BRANCH   1   8
ATOM      7  N   HIS A   1     -10.884  15.194  66.985  0.00  0.00    -0.120 NA
ATOM      8  CA  HIS A   1     -10.606  14.801  65.478  0.00  0.00    +0.200 C 
BRANCH   8   9
ATOM      9  C   HIS A   1     -10.935  16.291  64.965  0.00  0.00    +0.382 C 
ATOM     10  OXT HIS A   1     -11.670  16.491  63.860  0.00  0.00    -0.244 OA
ATOM     11  O   HIS A   1     -10.282  17.210  65.457  0.00  0.00    -0.244 OA
ENDBRANCH   8   9
ENDBRANCH   1   8
TORSDOF 3
ENDMDL
MODEL 8
REMARK VINA RESULT:      -4.4      2.315      2.545
REMARK  Name = 
REMARK  3 active torsions:
REMARK  status: ('A' for Active; 'I' for Inactive)
REMARK    1  A    between atoms: CA_2  and  CB_3
REMARK    2  A    between atoms: CA_2  and  C_9
REMARK    3  A    between atoms: CB_3  and  CG_4
REMARK                            x       y       z     vdW  Elec       q    Type
REMARK                         _______ _______ _______ _____ _____    ______ ____
ROOT
ATOM      1  CB  HIS A   1     -12.572  13.407  65.781  0.00  0.00    +0.078 C 
ENDROOT
BRANCH   1   2
ATOM      2  CG  HIS A   1     -11.767  12.885  66.930  0.00  0.00    +0.082 A 
ATOM      3  ND1 HIS A   1     -11.764  11.566  67.218  0.00  0.00    -0.227 NA
ATOM      4  CE1 HIS A   1     -11.806  11.338  68.521  0.00  0.00    +0.199 A 
ATOM      5  NE2 HIS A   1     -11.550  12.538  69.090  0.00  0.00    -0.221 NA
ATOM      6  CD2 HIS A   1     -11.419  13.477  68.118  0.00  0.00    +0.115 A 
ENDBRANCH   1   2
BRANCH   1   8
ATOM      7  N   HIS A   1     -12.550  14.831  63.961  0.00  0.00    -0.120 NA
ATOM      8  CA  HIS A   1     -11.467  13.927  64.675  0.00  0.00    +0.200 C 
BRANCH   8   9
ATOM      9  C   HIS A   1     -11.747  12.696  63.677  0.00  0.00    +0.382 C 
ATOM     10  OXT HIS A   1     -12.982  12.189  63.541  0.00  0.00    -0.244 OA
ATOM     11  O   HIS A   1     -10.768  12.080  63.258  0.00  0.00    -0.244 OA
ENDBRANCH   8   9
ENDBRANCH   1   8
TORSDOF 3
ENDMDL
MODEL 9
REMARK VINA RESULT:      -4.3      1.672      3.952
REMARK  Name = 
REMARK  3 active torsions:
REMARK  status: ('A' for Active; 'I' for Inactive)
REMARK    1  A    between atoms: CA_2  and  CB_3
REMARK    2  A    between atoms: CA_2  and  C_9
REMARK    3  A    between atoms: CB_3  and  CG_4
REMARK                            x       y       z     vdW  Elec       q    Type
REMARK                         _______ _______ _______ _____ _____    ______ ____
ROOT
ATOM      1  CB  HIS A   1     -10.451  13.814  65.949  0.00  0.00    +0.078 C 
ENDROOT
BRANCH   1   2
ATOM      2  CG  HIS A   1      -9.904  15.126  66.418  0.00  0.00    +0.082 A 
ATOM      3  ND1 HIS A   1     -10.736  16.153  66.694  0.00  0.00    -0.227 NA
ATOM      4  CE1 HIS A   1     -10.257  17.312  66.271  0.00  0.00    +0.199 A 
ATOM      5  NE2 HIS A   1      -8.964  17.060  65.965  0.00  0.00    -0.221 NA
ATOM      6  CD2 HIS A   1      -8.706  15.741  66.153  0.00  0.00    +0.115 A 
ENDBRANCH   1   2
BRANCH   1   8
ATOM      7  N   HIS A   1     -11.988  12.268  66.714  0.00  0.00    -0.120 NA
ATOM      8  CA  HIS A   1     -12.036  13.816  66.396  0.00  0.00    +0.200 C 
BRANCH   8   9
ATOM      9  C   HIS A   1     -12.556  13.554  64.895  0.00  0.00    +0.382 C 
ATOM     10  OXT HIS A   1     -12.566  14.543  63.989  0.00  0.00    -0.244 OA
ATOM     11  O   HIS A   1     -13.178  12.512  64.692  0.00  0.00    -0.244 OA
ENDBRANCH   8   9
ENDBRANCH   1   8
TORSDOF 3
ENDMDL
