MODEL 1
REMARK VINA RESULT:      -8.1      0.000      0.000
REMARK  Name = 
REMARK  3 active torsions:
REMARK  status: ('A' for Active; 'I' for Inactive)
REMARK    1  A    between atoms: C_17  and  O_18
REMARK    2  A    between atoms: O_18  and  C_19
REMARK    3  A    between atoms: C_32  and  C_33
REMARK                            x       y       z     vdW  Elec       q    Type
REMARK                         _______ _______ _______ _____ _____    ______ ____
ROOT
ATOM      1  C   UNL     1     -10.856   1.139  73.184  0.00  0.00    +0.007 C 
ATOM      2  C   UNL     1      -9.339   1.187  72.612  0.00  0.00    +0.053 C 
ATOM      3  C   UNL     1      -9.650  -0.016  71.445  0.00  0.00    +0.159 C 
ATOM      4  O   UNL     1     -10.095  -0.996  72.492  0.00  0.00    -0.223 OA
ATOM      5  C   UNL     1      -8.068  -0.614  71.527  0.00  0.00    +0.071 C 
ATOM      6  C   UNL     1      -8.525  -2.054  70.983  0.00  0.00    +0.006 C 
ATOM      7  C   UNL     1      -7.656   0.158  70.069  0.00  0.00    +0.171 C 
ATOM      8  C   UNL     1      -6.062  -0.124  70.331  0.00  0.00    +0.047 C 
ATOM      9  O   UNL     1      -7.781  -1.056  69.144  0.00  0.00    -0.452 OA
ATOM     10  C   UNL     1      -7.991  -0.814  67.815  0.00  0.00    +0.319 C 
ATOM     11  O   UNL     1      -9.102  -0.765  67.218  0.00  0.00    -0.250 OA
ATOM     12  C   UNL     1      -6.913   0.037  67.294  0.00  0.00    +0.142 C 
ATOM     13  C   UNL     1      -5.615  -0.967  67.172  0.00  0.00    +0.166 C 
ATOM     14  O   UNL     1      -6.363  -1.937  66.276  0.00  0.00    -0.222 OA
ATOM     15  C   UNL     1      -4.969  -0.110  65.929  0.00  0.00    +0.066 C 
ATOM     16  C   UNL     1      -6.214  -0.050  64.860  0.00  0.00    +0.157 C 
ATOM     17  O   UNL     1      -6.623   1.336  65.319  0.00  0.00    -0.223 OA
ATOM     18  C   UNL     1      -5.230   0.574  63.695  0.00  0.00    +0.066 C 
ATOM     19  C   UNL     1      -6.437   1.148  62.732  0.00  0.00    +0.155 C 
ATOM     20  O   UNL     1      -6.424   2.497  63.424  0.00  0.00    -0.223 OA
ATOM     21  C   UNL     1      -5.350   1.647  61.598  0.00  0.00    +0.036 C 
ATOM     22  C   UNL     1      -5.881   2.961  61.120  0.00  0.00    +0.038 C 
ATOM     23  C   UNL     1      -5.021   4.014  62.027  0.00  0.00    +0.183 C 
ATOM     24  O   UNL     1      -3.812   3.838  61.142  0.00  0.00    -0.220 OA
ATOM     25  C   UNL     1      -5.446   5.462  61.202  0.00  0.00    +0.189 C 
ATOM     26  O   UNL     1      -6.573   4.923  60.369  0.00  0.00    -0.220 OA
ATOM     27  C   UNL     1      -6.492   5.903  62.390  0.00  0.00    +0.100 C 
ATOM     28  C   UNL     1      -6.229   7.326  62.633  0.00  0.00    +0.156 C 
ATOM     29  O   UNL     1      -5.096   7.707  62.330  0.00  0.00    -0.296 OA
ATOM     30  C   UNL     1      -7.162   8.453  62.412  0.00  0.00    +0.098 C 
ATOM     31  C   UNL     1      -6.551   9.541  63.480  0.00  0.00    +0.172 C 
ATOM     32  O   UNL     1      -5.666  10.187  62.439  0.00  0.00    -0.222 OA
ATOM     33  C   UNL     1      -7.849  10.650  63.316  0.00  0.00    +0.164 C 
ATOM     34  C   UNL     1      -9.074   9.460  63.380  0.00  0.00    +0.168 C 
ATOM     35  O   UNL     1      -8.510   8.854  64.642  0.00  0.00    -0.222 OA
ATOM     36  C   UNL     1     -10.180  10.385  64.150  0.00  0.00    +0.068 C 
ATOM     37  C   UNL     1      -9.421  10.923  65.499  0.00  0.00    +0.142 C 
ATOM     38  C   UNL     1     -10.063   9.757  66.431  0.00  0.00    +0.003 C 
ATOM     39  C   UNL     1      -9.344   9.328  67.411  0.00  0.00    -0.002 C 
ATOM     40  C   UNL     1      -9.156   9.831  68.729  0.00  0.00    -0.000 C 
ATOM     41  C   UNL     1     -10.082  10.707  69.130  0.00  0.00    -0.000 C 
ATOM     42  C   UNL     1     -10.967  10.285  70.229  0.00  0.00    -0.000 C 
ATOM     43  C   UNL     1     -11.159   8.962  70.250  0.00  0.00    -0.000 C 
ATOM     44  C   UNL     1     -10.249   8.429  71.281  0.00  0.00    -0.005 C 
ATOM     45  C   UNL     1     -10.899   8.449  72.447  0.00  0.00    -0.026 C 
ATOM     46  C   UNL     1     -11.461   7.121  72.854  0.00  0.00    +0.031 C 
ATOM     47  C   UNL     1     -10.633   6.076  72.165  0.00  0.00    +0.031 C 
ATOM     48  C   UNL     1     -10.580   4.891  72.990  0.00  0.00    -0.026 C 
ATOM     49  C   UNL     1     -10.793   3.691  72.865  0.00  0.00    -0.005 C 
ATOM     50  C   UNL     1      -9.795   3.498  71.781  0.00  0.00    -0.005 C 
ATOM     51  C   UNL     1      -9.701   2.341  71.587  0.00  0.00    -0.024 C 
ENDROOT
BRANCH  33  52
ATOM     52  C   UNL     1      -7.822  10.770  61.749  0.00  0.00    +0.369 C 
ATOM     53  O   UNL     1      -7.098  11.863  61.287  0.00  0.00    -0.245 OA
ATOM     54  O   UNL     1      -8.471  10.091  60.990  0.00  0.00    -0.245 OA
ENDBRANCH  33  52
BRANCH  37  55
ATOM     55  O   UNL     1     -10.606  11.805  65.843  0.00  0.00    -0.327 OA
BRANCH  55  56
ATOM     56  C   UNL     1      -9.970  13.188  65.871  0.00  0.00    +0.268 C 
ATOM     57  C   UNL     1     -11.481  14.011  65.908  0.00  0.00    +0.228 C 
ATOM     58  O   UNL     1     -12.172  13.111  66.899  0.00  0.00    -0.216 OA
ATOM     59  C   UNL     1     -11.185  15.241  67.041  0.00  0.00    +0.160 C 
ATOM     60  N   UNL     1     -11.064  14.469  68.390  0.00  0.00    -0.127 NA
ATOM     61  C   UNL     1      -9.553  15.615  66.787  0.00  0.00    +0.199 C 
ATOM     62  O   UNL     1      -9.672  15.508  65.286  0.00  0.00    -0.219 OA
ATOM     63  C   UNL     1      -8.707  14.148  66.951  0.00  0.00    +0.150 C 
ATOM     64  C   UNL     1      -8.291  14.505  68.500  0.00  0.00    +0.035 C 
ATOM     65  O   UNL     1      -9.812  13.222  67.379  0.00  0.00    -0.328 OA
ENDBRANCH  55  56
ENDBRANCH  37  55
TORSDOF 3
ENDMDL
MODEL 2
REMARK VINA RESULT:      -7.5      4.743     12.643
REMARK  Name = 
REMARK  3 active torsions:
REMARK  status: ('A' for Active; 'I' for Inactive)
REMARK    1  A    between atoms: C_17  and  O_18
REMARK    2  A    between atoms: O_18  and  C_19
REMARK    3  A    between atoms: C_32  and  C_33
REMARK                            x       y       z     vdW  Elec       q    Type
REMARK                         _______ _______ _______ _____ _____    ______ ____
ROOT
ATOM      1  C   UNL     1      -7.006  20.961  67.247  0.00  0.00    +0.007 C 
ATOM      2  C   UNL     1      -7.171  20.456  65.714  0.00  0.00    +0.053 C 
ATOM      3  C   UNL     1      -5.486  20.355  65.476  0.00  0.00    +0.159 C 
ATOM      4  O   UNL     1      -5.292  21.799  65.840  0.00  0.00    -0.223 OA
ATOM      5  C   UNL     1      -5.616  20.765  63.838  0.00  0.00    +0.071 C 
ATOM      6  C   UNL     1      -4.102  21.297  63.794  0.00  0.00    +0.006 C 
ATOM      7  C   UNL     1      -5.395  19.145  63.373  0.00  0.00    +0.171 C 
ATOM      8  C   UNL     1      -5.867  19.485  61.839  0.00  0.00    +0.047 C 
ATOM      9  O   UNL     1      -3.912  19.231  63.000  0.00  0.00    -0.452 OA
ATOM     10  C   UNL     1      -3.193  18.070  63.011  0.00  0.00    +0.319 C 
ATOM     11  O   UNL     1      -2.501  17.612  63.963  0.00  0.00    -0.250 OA
ATOM     12  C   UNL     1      -3.823  17.092  62.112  0.00  0.00    +0.142 C 
ATOM     13  C   UNL     1      -3.445  17.618  60.599  0.00  0.00    +0.166 C 
ATOM     14  O   UNL     1      -1.955  17.584  60.886  0.00  0.00    -0.222 OA
ATOM     15  C   UNL     1      -3.493  16.099  59.976  0.00  0.00    +0.066 C 
ATOM     16  C   UNL     1      -2.473  15.279  60.968  0.00  0.00    +0.157 C 
ATOM     17  O   UNL     1      -3.619  14.741  61.802  0.00  0.00    -0.223 OA
ATOM     18  C   UNL     1      -2.511  13.963  59.978  0.00  0.00    +0.066 C 
ATOM     19  C   UNL     1      -1.938  12.890  61.088  0.00  0.00    +0.155 C 
ATOM     20  O   UNL     1      -3.337  12.541  61.557  0.00  0.00    -0.223 OA
ATOM     21  C   UNL     1      -1.938  11.675  59.974  0.00  0.00    +0.036 C 
ATOM     22  C   UNL     1      -2.411  10.473  60.728  0.00  0.00    +0.038 C 
ATOM     23  C   UNL     1      -4.005  10.458  60.358  0.00  0.00    +0.183 C 
ATOM     24  O   UNL     1      -3.715   9.867  59.000  0.00  0.00    -0.220 OA
ATOM     25  C   UNL     1      -4.391   8.902  60.981  0.00  0.00    +0.189 C 
ATOM     26  O   UNL     1      -3.127   8.647  61.750  0.00  0.00    -0.220 OA
ATOM     27  C   UNL     1      -5.110   9.547  62.311  0.00  0.00    +0.100 C 
ATOM     28  C   UNL     1      -6.362   8.801  62.478  0.00  0.00    +0.156 C 
ATOM     29  O   UNL     1      -6.810   8.294  61.447  0.00  0.00    -0.296 OA
ATOM     30  C   UNL     1      -6.733   7.927  63.612  0.00  0.00    +0.098 C 
ATOM     31  C   UNL     1      -8.370   8.017  63.518  0.00  0.00    +0.172 C 
ATOM     32  O   UNL     1      -8.469   6.784  62.652  0.00  0.00    -0.222 OA
ATOM     33  C   UNL     1      -8.646   7.207  65.005  0.00  0.00    +0.164 C 
ATOM     34  C   UNL     1      -7.442   8.060  65.867  0.00  0.00    +0.168 C 
ATOM     35  O   UNL     1      -7.973   9.398  65.414  0.00  0.00    -0.222 OA
ATOM     36  C   UNL     1      -8.227   8.074  67.301  0.00  0.00    +0.068 C 
ATOM     37  C   UNL     1      -9.693   8.732  66.977  0.00  0.00    +0.142 C 
ATOM     38  C   UNL     1      -9.232  10.214  67.458  0.00  0.00    +0.003 C 
ATOM     39  C   UNL     1      -9.763  11.219  66.851  0.00  0.00    -0.002 C 
ATOM     40  C   UNL     1     -11.003  11.890  67.053  0.00  0.00    -0.000 C 
ATOM     41  C   UNL     1     -11.581  11.651  68.234  0.00  0.00    -0.000 C 
ATOM     42  C   UNL     1     -11.678  12.785  69.169  0.00  0.00    -0.000 C 
ATOM     43  C   UNL     1     -10.684  13.663  69.011  0.00  0.00    -0.000 C 
ATOM     44  C   UNL     1     -11.234  14.769  68.206  0.00  0.00    -0.005 C 
ATOM     45  C   UNL     1     -11.764  15.661  69.048  0.00  0.00    -0.026 C 
ATOM     46  C   UNL     1     -10.887  16.846  69.312  0.00  0.00    +0.031 C 
ATOM     47  C   UNL     1      -9.976  16.978  68.126  0.00  0.00    +0.031 C 
ATOM     48  C   UNL     1      -9.658  18.373  67.924  0.00  0.00    -0.026 C 
ATOM     49  C   UNL     1      -8.653  19.061  67.790  0.00  0.00    -0.005 C 
ATOM     50  C   UNL     1      -8.162  18.336  66.590  0.00  0.00    -0.005 C 
ATOM     51  C   UNL     1      -7.244  18.937  66.163  0.00  0.00    -0.024 C 
ENDROOT
BRANCH  33  52
ATOM     52  C   UNL     1      -7.767   5.937  64.714  0.00  0.00    +0.369 C 
ATOM     53  O   UNL     1      -8.453   4.927  64.049  0.00  0.00    -0.245 OA
ATOM     54  O   UNL     1      -6.651   5.755  65.136  0.00  0.00    -0.245 OA
ENDBRANCH  33  52
BRANCH  37  55
ATOM     55  O   UNL     1     -10.158   8.452  68.394  0.00  0.00    -0.327 OA
BRANCH  55  56
ATOM     56  C   UNL     1      -9.191   7.361  68.832  0.00  0.00    +0.268 C 
ATOM     57  C   UNL     1      -9.320   7.755  70.502  0.00  0.00    +0.228 C 
ATOM     58  O   UNL     1     -10.810   7.967  70.541  0.00  0.00    -0.216 OA
ATOM     59  C   UNL     1      -9.392   6.218  71.222  0.00  0.00    +0.160 C 
ATOM     60  N   UNL     1     -10.787   5.679  70.782  0.00  0.00    -0.127 NA
ATOM     61  C   UNL     1      -8.401   5.277  70.222  0.00  0.00    +0.199 C 
ATOM     62  O   UNL     1      -7.373   6.370  70.066  0.00  0.00    -0.219 OA
ATOM     63  C   UNL     1      -9.019   5.459  68.647  0.00  0.00    +0.150 C 
ATOM     64  C   UNL     1      -9.839   4.039  68.753  0.00  0.00    +0.035 C 
ATOM     65  O   UNL     1     -10.251   6.280  68.912  0.00  0.00    -0.328 OA
ENDBRANCH  55  56
ENDBRANCH  37  55
TORSDOF 3
ENDMDL
MODEL 3
REMARK VINA RESULT:      -7.2      2.476      8.613
REMARK  Name = 
REMARK  3 active torsions:
REMARK  status: ('A' for Active; 'I' for Inactive)
REMARK    1  A    between atoms: C_17  and  O_18
REMARK    2  A    between atoms: O_18  and  C_19
REMARK    3  A    between atoms: C_32  and  C_33
REMARK                            x       y       z     vdW  Elec       q    Type
REMARK                         _______ _______ _______ _____ _____    ______ ____
ROOT
ATOM      1  C   UNL     1      -3.329   3.212  59.083  0.00  0.00    +0.007 C 
ATOM      2  C   UNL     1      -4.545   2.365  59.745  0.00  0.00    +0.053 C 
ATOM      3  C   UNL     1      -3.505   1.554  60.825  0.00  0.00    +0.159 C 
ATOM      4  O   UNL     1      -2.661   1.023  59.702  0.00  0.00    -0.223 OA
ATOM      5  C   UNL     1      -4.453   0.151  60.804  0.00  0.00    +0.071 C 
ATOM      6  C   UNL     1      -3.207  -0.763  61.242  0.00  0.00    +0.006 C 
ATOM      7  C   UNL     1      -5.116   0.526  62.324  0.00  0.00    +0.171 C 
ATOM      8  C   UNL     1      -6.271  -0.624  62.142  0.00  0.00    +0.047 C 
ATOM      9  O   UNL     1      -4.241  -0.400  63.173  0.00  0.00    -0.452 OA
ATOM     10  C   UNL     1      -4.104  -0.095  64.498  0.00  0.00    +0.319 C 
ATOM     11  O   UNL     1      -3.181   0.584  65.030  0.00  0.00    -0.250 OA
ATOM     12  C   UNL     1      -5.429  -0.031  65.128  0.00  0.00    +0.142 C 
ATOM     13  C   UNL     1      -5.896  -1.602  65.271  0.00  0.00    +0.166 C 
ATOM     14  O   UNL     1      -4.656  -1.968  66.068  0.00  0.00    -0.222 OA
ATOM     15  C   UNL     1      -6.816  -1.290  66.595  0.00  0.00    +0.066 C 
ATOM     16  C   UNL     1      -5.753  -0.531  67.590  0.00  0.00    +0.157 C 
ATOM     17  O   UNL     1      -6.257   0.840  67.183  0.00  0.00    -0.223 OA
ATOM     18  C   UNL     1      -6.820  -0.604  68.844  0.00  0.00    +0.066 C 
ATOM     19  C   UNL     1      -6.094   0.553  69.763  0.00  0.00    +0.155 C 
ATOM     20  O   UNL     1      -6.938   1.652  69.147  0.00  0.00    -0.223 OA
ATOM     21  C   UNL     1      -7.174   0.319  70.985  0.00  0.00    +0.036 C 
ATOM     22  C   UNL     1      -7.463   1.693  71.501  0.00  0.00    +0.038 C 
ATOM     23  C   UNL     1      -8.843   2.062  70.705  0.00  0.00    +0.183 C 
ATOM     24  O   UNL     1      -9.653   1.209  71.650  0.00  0.00    -0.220 OA
ATOM     25  C   UNL     1      -9.266   3.480  71.581  0.00  0.00    +0.189 C 
ATOM     26  O   UNL     1      -7.973   3.685  72.316  0.00  0.00    -0.220 OA
ATOM     27  C   UNL     1      -8.765   4.457  70.358  0.00  0.00    +0.100 C 
ATOM     28  C   UNL     1      -9.819   5.467  70.210  0.00  0.00    +0.156 C 
ATOM     29  O   UNL     1     -10.936   5.118  70.599  0.00  0.00    -0.296 OA
ATOM     30  C   UNL     1      -9.694   6.924  70.436  0.00  0.00    +0.098 C 
ATOM     31  C   UNL     1     -10.903   7.468  69.467  0.00  0.00    +0.172 C 
ATOM     32  O   UNL     1     -11.912   7.470  70.591  0.00  0.00    -0.222 OA
ATOM     33  C   UNL     1     -10.475   9.122  69.613  0.00  0.00    +0.164 C 
ATOM     34  C   UNL     1      -8.798   8.862  69.412  0.00  0.00    +0.168 C 
ATOM     35  O   UNL     1      -9.008   8.054  68.155  0.00  0.00    -0.222 OA
ATOM     36  C   UNL     1      -8.493  10.265  68.630  0.00  0.00    +0.068 C 
ATOM     37  C   UNL     1      -9.528  10.277  67.359  0.00  0.00    +0.142 C 
ATOM     38  C   UNL     1      -8.408   9.708  66.329  0.00  0.00    +0.003 C 
ATOM     39  C   UNL     1      -8.823   8.951  65.371  0.00  0.00    -0.002 C 
ATOM     40  C   UNL     1      -9.372   9.265  64.096  0.00  0.00    -0.000 C 
ATOM     41  C   UNL     1      -9.156  10.520  63.689  0.00  0.00    -0.000 C 
ATOM     42  C   UNL     1      -8.281  10.699  62.518  0.00  0.00    -0.000 C 
ATOM     43  C   UNL     1      -7.363   9.733  62.414  0.00  0.00    -0.000 C 
ATOM     44  C   UNL     1      -7.878   8.781  61.411  0.00  0.00    -0.005 C 
ATOM     45  C   UNL     1      -7.453   9.186  60.212  0.00  0.00    -0.026 C 
ATOM     46  C   UNL     1      -6.262   8.434  59.701  0.00  0.00    +0.031 C 
ATOM     47  C   UNL     1      -6.278   7.095  60.380  0.00  0.00    +0.031 C 
ATOM     48  C   UNL     1      -5.703   6.107  59.496  0.00  0.00    -0.026 C 
ATOM     49  C   UNL     1      -4.827   5.251  59.544  0.00  0.00    -0.005 C 
ATOM     50  C   UNL     1      -5.441   4.505  60.672  0.00  0.00    -0.005 C 
ATOM     51  C   UNL     1      -4.835   3.505  60.808  0.00  0.00    -0.024 C 
ENDROOT
BRANCH  33  52
ATOM     52  C   UNL     1     -10.441   9.188  71.183  0.00  0.00    +0.369 C 
ATOM     53  O   UNL     1     -11.652   9.569  71.750  0.00  0.00    -0.245 OA
ATOM     54  O   UNL     1      -9.448   9.072  71.861  0.00  0.00    -0.245 OA
ENDBRANCH  33  52
BRANCH  37  55
ATOM     55  O   UNL     1      -9.102  11.686  66.994  0.00  0.00    -0.327 OA
BRANCH  55  56
ATOM     56  C   UNL     1     -10.428  12.432  67.021  0.00  0.00    +0.268 C 
ATOM     57  C   UNL     1      -9.749  13.852  67.715  0.00  0.00    +0.228 C 
ATOM     58  O   UNL     1      -8.492  13.897  66.886  0.00  0.00    -0.216 OA
ATOM     59  C   UNL     1     -10.524  15.081  66.835  0.00  0.00    +0.160 C 
ATOM     60  N   UNL     1      -9.910  14.945  65.408  0.00  0.00    -0.127 NA
ATOM     61  C   UNL     1     -12.061  14.434  66.540  0.00  0.00    +0.199 C 
ATOM     62  O   UNL     1     -12.169  13.835  67.921  0.00  0.00    -0.219 OA
ATOM     63  C   UNL     1     -11.798  12.937  65.775  0.00  0.00    +0.150 C 
ATOM     64  C   UNL     1     -12.063  13.593  64.292  0.00  0.00    +0.035 C 
ATOM     65  O   UNL     1     -10.304  12.957  65.603  0.00  0.00    -0.328 OA
ENDBRANCH  55  56
ENDBRANCH  37  55
TORSDOF 3
ENDMDL
MODEL 4
REMARK VINA RESULT:      -6.4      1.953      2.237
REMARK  Name = 
REMARK  3 active torsions:
REMARK  status: ('A' for Active; 'I' for Inactive)
REMARK    1  A    between atoms: C_17  and  O_18
REMARK    2  A    between atoms: O_18  and  C_19
REMARK    3  A    between atoms: C_32  and  C_33
REMARK                            x       y       z     vdW  Elec       q    Type
REMARK                         _______ _______ _______ _____ _____    ______ ____
ROOT
ATOM      1  C   UNL     1      -8.099   0.794  74.544  0.00  0.00    +0.007 C 
ATOM      2  C   UNL     1      -6.637   1.147  73.936  0.00  0.00    +0.053 C 
ATOM      3  C   UNL     1      -6.670  -0.177  72.862  0.00  0.00    +0.159 C 
ATOM      4  O   UNL     1      -6.871  -1.154  73.984  0.00  0.00    -0.223 OA
ATOM      5  C   UNL     1      -4.992  -0.389  72.950  0.00  0.00    +0.071 C 
ATOM      6  C   UNL     1      -5.109  -1.931  72.517  0.00  0.00    +0.006 C 
ATOM      7  C   UNL     1      -4.778   0.349  71.433  0.00  0.00    +0.171 C 
ATOM      8  C   UNL     1      -3.160   0.460  71.678  0.00  0.00    +0.047 C 
ATOM      9  O   UNL     1      -4.625  -0.925  70.597  0.00  0.00    -0.452 OA
ATOM     10  C   UNL     1      -4.893  -0.835  69.260  0.00  0.00    +0.319 C 
ATOM     11  O   UNL     1      -5.989  -1.085  68.686  0.00  0.00    -0.250 OA
ATOM     12  C   UNL     1      -4.043   0.200  68.657  0.00  0.00    +0.142 C 
ATOM     13  C   UNL     1      -2.549  -0.486  68.576  0.00  0.00    +0.166 C 
ATOM     14  O   UNL     1      -3.060  -1.664  67.766  0.00  0.00    -0.222 OA
ATOM     15  C   UNL     1      -2.126   0.404  67.262  0.00  0.00    +0.066 C 
ATOM     16  C   UNL     1      -3.358   0.099  66.219  0.00  0.00    +0.157 C 
ATOM     17  O   UNL     1      -4.072   1.384  66.591  0.00  0.00    -0.223 OA
ATOM     18  C   UNL     1      -2.551   0.845  64.992  0.00  0.00    +0.066 C 
ATOM     19  C   UNL     1      -3.863   1.056  64.020  0.00  0.00    +0.155 C 
ATOM     20  O   UNL     1      -4.157   2.419  64.616  0.00  0.00    -0.223 OA
ATOM     21  C   UNL     1      -2.927   1.707  62.830  0.00  0.00    +0.036 C 
ATOM     22  C   UNL     1      -3.750   2.827  62.273  0.00  0.00    +0.038 C 
ATOM     23  C   UNL     1      -3.149   4.112  63.086  0.00  0.00    +0.183 C 
ATOM     24  O   UNL     1      -1.938   4.154  62.188  0.00  0.00    -0.220 OA
ATOM     25  C   UNL     1      -3.901   5.360  62.173  0.00  0.00    +0.189 C 
ATOM     26  O   UNL     1      -4.878   4.518  61.404  0.00  0.00    -0.220 OA
ATOM     27  C   UNL     1      -5.014   5.635  63.351  0.00  0.00    +0.100 C 
ATOM     28  C   UNL     1      -5.084   7.094  63.488  0.00  0.00    +0.156 C 
ATOM     29  O   UNL     1      -4.071   7.701  63.134  0.00  0.00    -0.296 OA
ATOM     30  C   UNL     1      -6.252   7.958  63.210  0.00  0.00    +0.098 C 
ATOM     31  C   UNL     1      -5.902   9.232  64.186  0.00  0.00    +0.172 C 
ATOM     32  O   UNL     1      -5.196   9.985  63.084  0.00  0.00    -0.222 OA
ATOM     33  C   UNL     1      -7.422   9.999  63.975  0.00  0.00    +0.164 C 
ATOM     34  C   UNL     1      -8.339   8.567  64.150  0.00  0.00    +0.168 C 
ATOM     35  O   UNL     1      -7.643   8.201  65.437  0.00  0.00    -0.222 OA
ATOM     36  C   UNL     1      -9.624   9.268  64.878  0.00  0.00    +0.068 C 
ATOM     37  C   UNL     1      -9.001  10.062  66.169  0.00  0.00    +0.142 C 
ATOM     38  C   UNL     1      -9.352   8.851  67.194  0.00  0.00    +0.003 C 
ATOM     39  C   UNL     1      -8.547   8.670  68.185  0.00  0.00    -0.002 C 
ATOM     40  C   UNL     1      -8.472   9.298  69.460  0.00  0.00    -0.000 C 
ATOM     41  C   UNL     1      -9.573   9.965  69.820  0.00  0.00    -0.000 C 
ATOM     42  C   UNL     1     -10.330   9.431  70.966  0.00  0.00    -0.000 C 
ATOM     43  C   UNL     1     -10.212   8.105  71.083  0.00  0.00    -0.000 C 
ATOM     44  C   UNL     1      -9.198   7.871  72.127  0.00  0.00    -0.005 C 
ATOM     45  C   UNL     1      -9.828   7.826  73.303  0.00  0.00    -0.026 C 
ATOM     46  C   UNL     1     -10.067   6.438  73.814  0.00  0.00    +0.031 C 
ATOM     47  C   UNL     1      -9.024   5.563  73.181  0.00  0.00    +0.031 C 
ATOM     48  C   UNL     1      -8.695   4.485  74.085  0.00  0.00    -0.026 C 
ATOM     49  C   UNL     1      -8.627   3.262  74.047  0.00  0.00    -0.005 C 
ATOM     50  C   UNL     1      -7.618   3.225  72.957  0.00  0.00    -0.005 C 
ATOM     51  C   UNL     1      -7.261   2.109  72.842  0.00  0.00    -0.024 C 
ENDROOT
BRANCH  33  52
ATOM     52  C   UNL     1      -7.432  10.007  62.404  0.00  0.00    +0.369 C 
ATOM     53  O   UNL     1      -7.026  11.217  61.851  0.00  0.00    -0.245 OA
ATOM     54  O   UNL     1      -7.880   9.128  61.709  0.00  0.00    -0.245 OA
ENDBRANCH  33  52
BRANCH  37  55
ATOM     55  O   UNL     1     -10.355  10.672  66.478  0.00  0.00    -0.327 OA
BRANCH  55  56
ATOM     56  C   UNL     1     -10.112  12.144  66.177  0.00  0.00    +0.268 C 
ATOM     57  C   UNL     1     -11.772  12.570  66.334  0.00  0.00    +0.228 C 
ATOM     58  O   UNL     1     -12.073  11.746  67.558  0.00  0.00    -0.216 OA
ATOM     59  C   UNL     1     -11.680  14.036  67.189  0.00  0.00    +0.160 C 
ATOM     60  N   UNL     1     -11.196  13.598  68.605  0.00  0.00    -0.127 NA
ATOM     61  C   UNL     1     -10.250  14.732  66.609  0.00  0.00    +0.199 C 
ATOM     62  O   UNL     1     -10.516  14.304  65.186  0.00  0.00    -0.219 OA
ATOM     63  C   UNL     1      -9.030  13.573  66.861  0.00  0.00    +0.150 C 
ATOM     64  C   UNL     1      -8.540  14.319  68.241  0.00  0.00    +0.035 C 
ATOM     65  O   UNL     1      -9.788  12.513  67.612  0.00  0.00    -0.328 OA
ENDBRANCH  55  56
ENDBRANCH  37  55
TORSDOF 3
ENDMDL
MODEL 5
REMARK VINA RESULT:      -5.6      4.467     10.021
REMARK  Name = 
REMARK  3 active torsions:
REMARK  status: ('A' for Active; 'I' for Inactive)
REMARK    1  A    between atoms: C_17  and  O_18
REMARK    2  A    between atoms: O_18  and  C_19
REMARK    3  A    between atoms: C_32  and  C_33
REMARK                            x       y       z     vdW  Elec       q    Type
REMARK                         _______ _______ _______ _____ _____    ______ ____
ROOT
ATOM      1  C   UNL     1      -7.713   5.287  60.563  0.00  0.00    +0.007 C 
ATOM      2  C   UNL     1      -8.961   4.659  61.387  0.00  0.00    +0.053 C 
ATOM      3  C   UNL     1      -8.238   3.117  61.475  0.00  0.00    +0.159 C 
ATOM      4  O   UNL     1      -8.121   3.026  59.980  0.00  0.00    -0.223 OA
ATOM      5  C   UNL     1      -9.735   2.327  61.427  0.00  0.00    +0.071 C 
ATOM      6  C   UNL     1      -9.067   0.980  60.862  0.00  0.00    +0.006 C 
ATOM      7  C   UNL     1      -9.678   2.030  63.099  0.00  0.00    +0.171 C 
ATOM      8  C   UNL     1     -11.257   1.589  63.110  0.00  0.00    +0.047 C 
ATOM      9  O   UNL     1      -9.209   0.573  63.041  0.00  0.00    -0.452 OA
ATOM     10  C   UNL     1      -8.586   0.068  64.147  0.00  0.00    +0.319 C 
ATOM     11  O   UNL     1      -7.344   0.026  64.367  0.00  0.00    -0.250 OA
ATOM     12  C   UNL     1      -9.467   0.207  65.314  0.00  0.00    +0.142 C 
ATOM     13  C   UNL     1     -10.613  -0.956  65.108  0.00  0.00    +0.166 C 
ATOM     14  O   UNL     1      -9.575  -2.060  65.027  0.00  0.00    -0.222 OA
ATOM     15  C   UNL     1     -10.851  -1.118  66.726  0.00  0.00    +0.066 C 
ATOM     16  C   UNL     1      -9.328  -1.387  67.279  0.00  0.00    +0.157 C 
ATOM     17  O   UNL     1      -9.148   0.068  67.670  0.00  0.00    -0.223 OA
ATOM     18  C   UNL     1      -9.901  -1.768  68.776  0.00  0.00    +0.066 C 
ATOM     19  C   UNL     1      -8.470  -1.576  69.568  0.00  0.00    +0.155 C 
ATOM     20  O   UNL     1      -8.763  -0.117  69.860  0.00  0.00    -0.223 OA
ATOM     21  C   UNL     1      -9.145  -2.062  70.990  0.00  0.00    +0.036 C 
ATOM     22  C   UNL     1      -8.540  -1.164  72.022  0.00  0.00    +0.038 C 
ATOM     23  C   UNL     1      -9.692  -0.012  72.172  0.00  0.00    +0.183 C 
ATOM     24  O   UNL     1     -10.536  -0.925  73.027  0.00  0.00    -0.220 OA
ATOM     25  C   UNL     1      -9.078   0.774  73.574  0.00  0.00    +0.189 C 
ATOM     26  O   UNL     1      -7.720   0.134  73.614  0.00  0.00    -0.220 OA
ATOM     27  C   UNL     1      -8.496   2.030  72.687  0.00  0.00    +0.100 C 
ATOM     28  C   UNL     1      -8.880   3.238  73.426  0.00  0.00    +0.156 C 
ATOM     29  O   UNL     1      -9.867   3.114  74.155  0.00  0.00    -0.296 OA
ATOM     30  C   UNL     1      -7.973   4.224  74.052  0.00  0.00    +0.098 C 
ATOM     31  C   UNL     1      -8.942   5.550  74.043  0.00  0.00    +0.172 C 
ATOM     32  O   UNL     1      -9.463   5.278  75.434  0.00  0.00    -0.222 OA
ATOM     33  C   UNL     1      -7.707   6.636  74.529  0.00  0.00    +0.164 C 
ATOM     34  C   UNL     1      -6.524   6.004  73.469  0.00  0.00    +0.168 C 
ATOM     35  O   UNL     1      -7.445   6.101  72.278  0.00  0.00    -0.222 OA
ATOM     36  C   UNL     1      -5.768   7.424  73.180  0.00  0.00    +0.068 C 
ATOM     37  C   UNL     1      -6.947   8.436  72.659  0.00  0.00    +0.142 C 
ATOM     38  C   UNL     1      -6.599   8.177  71.094  0.00  0.00    +0.003 C 
ATOM     39  C   UNL     1      -7.581   8.221  70.259  0.00  0.00    -0.002 C 
ATOM     40  C   UNL     1      -8.210   9.319  69.606  0.00  0.00    -0.000 C 
ATOM     41  C   UNL     1      -7.501  10.452  69.611  0.00  0.00    -0.000 C 
ATOM     42  C   UNL     1      -7.009  10.934  68.308  0.00  0.00    -0.000 C 
ATOM     43  C   UNL     1      -6.781   9.936  67.448  0.00  0.00    -0.000 C 
ATOM     44  C   UNL     1      -7.956   9.883  66.558  0.00  0.00    -0.005 C 
ATOM     45  C   UNL     1      -7.724  10.701  65.528  0.00  0.00    -0.026 C 
ATOM     46  C   UNL     1      -7.273  10.001  64.283  0.00  0.00    +0.031 C 
ATOM     47  C   UNL     1      -7.788   8.594  64.372  0.00  0.00    +0.031 C 
ATOM     48  C   UNL     1      -8.060   8.101  63.042  0.00  0.00    -0.026 C 
ATOM     49  C   UNL     1      -7.771   7.124  62.362  0.00  0.00    -0.005 C 
ATOM     50  C   UNL     1      -8.351   6.136  63.307  0.00  0.00    -0.005 C 
ATOM     51  C   UNL     1      -8.330   5.084  62.778  0.00  0.00    -0.024 C 
ENDROOT
BRANCH  33  52
ATOM     52  C   UNL     1      -7.225   5.846  75.799  0.00  0.00    +0.369 C 
ATOM     53  O   UNL     1      -7.585   6.450  76.999  0.00  0.00    -0.245 OA
ATOM     54  O   UNL     1      -6.490   4.889  75.783  0.00  0.00    -0.245 OA
ENDBRANCH  33  52
BRANCH  37  55
ATOM     55  O   UNL     1      -5.976   9.602  72.649  0.00  0.00    -0.327 OA
BRANCH  55  56
ATOM     56  C   UNL     1      -5.252   9.418  73.975  0.00  0.00    +0.268 C 
ATOM     57  C   UNL     1      -4.039  10.581  73.608  0.00  0.00    +0.228 C 
ATOM     58  O   UNL     1      -4.940  11.621  72.996  0.00  0.00    -0.216 OA
ATOM     59  C   UNL     1      -3.881  11.405  75.085  0.00  0.00    +0.160 C 
ATOM     60  N   UNL     1      -5.225  12.186  75.208  0.00  0.00    -0.127 NA
ATOM     61  C   UNL     1      -4.156  10.192  76.234  0.00  0.00    +0.199 C 
ATOM     62  O   UNL     1      -3.371   9.161  75.462  0.00  0.00    -0.219 OA
ATOM     63  C   UNL     1      -5.668   9.516  75.845  0.00  0.00    +0.150 C 
ATOM     64  C   UNL     1      -6.423  10.425  76.988  0.00  0.00    +0.035 C 
ATOM     65  O   UNL     1      -6.111  10.417  74.726  0.00  0.00    -0.328 OA
ENDBRANCH  55  56
ENDBRANCH  37  55
TORSDOF 3
ENDMDL
MODEL 6
REMARK VINA RESULT:      -5.4      4.562      9.880
REMARK  Name = 
REMARK  3 active torsions:
REMARK  status: ('A' for Active; 'I' for Inactive)
REMARK    1  A    between atoms: C_17  and  O_18
REMARK    2  A    between atoms: O_18  and  C_19
REMARK    3  A    between atoms: C_32  and  C_33
REMARK                            x       y       z     vdW  Elec       q    Type
REMARK                         _______ _______ _______ _____ _____    ______ ____
ROOT
ATOM      1  C   UNL     1     -12.950  -1.602  62.472  0.00  0.00    +0.007 C 
ATOM      2  C   UNL     1     -11.498  -0.988  62.088  0.00  0.00    +0.053 C 
ATOM      3  C   UNL     1     -12.182   0.309  61.218  0.00  0.00    +0.159 C 
ATOM      4  O   UNL     1     -12.937  -0.622  60.314  0.00  0.00    -0.223 OA
ATOM      5  C   UNL     1     -10.890   0.357  60.125  0.00  0.00    +0.071 C 
ATOM      6  C   UNL     1     -11.796   1.061  59.001  0.00  0.00    +0.006 C 
ATOM      7  C   UNL     1     -10.232   1.721  60.898  0.00  0.00    +0.171 C 
ATOM      8  C   UNL     1      -8.825   1.553  60.073  0.00  0.00    +0.047 C 
ATOM      9  O   UNL     1     -10.746   2.786  59.925  0.00  0.00    -0.452 OA
ATOM     10  C   UNL     1     -10.852   4.065  60.393  0.00  0.00    +0.319 C 
ATOM     11  O   UNL     1     -11.878   4.612  60.885  0.00  0.00    -0.250 OA
ATOM     12  C   UNL     1      -9.547   4.514  60.899  0.00  0.00    +0.142 C 
ATOM     13  C   UNL     1      -8.657   4.805  59.546  0.00  0.00    +0.166 C 
ATOM     14  O   UNL     1      -9.677   5.790  59.004  0.00  0.00    -0.222 OA
ATOM     15  C   UNL     1      -7.752   5.954  60.295  0.00  0.00    +0.066 C 
ATOM     16  C   UNL     1      -8.897   6.963  60.902  0.00  0.00    +0.157 C 
ATOM     17  O   UNL     1      -8.824   6.319  62.273  0.00  0.00    -0.223 OA
ATOM     18  C   UNL     1      -7.751   8.074  61.310  0.00  0.00    +0.066 C 
ATOM     19  C   UNL     1      -8.689   8.915  62.371  0.00  0.00    +0.155 C 
ATOM     20  O   UNL     1      -8.233   8.060  63.538  0.00  0.00    -0.223 OA
ATOM     21  C   UNL     1      -7.489  10.015  62.624  0.00  0.00    +0.036 C 
ATOM     22  C   UNL     1      -7.547  10.306  64.090  0.00  0.00    +0.038 C 
ATOM     23  C   UNL     1      -6.393   9.304  64.672  0.00  0.00    +0.183 C 
ATOM     24  O   UNL     1      -5.304  10.247  64.222  0.00  0.00    -0.220 OA
ATOM     25  C   UNL     1      -6.305   9.926  66.273  0.00  0.00    +0.189 C 
ATOM     26  O   UNL     1      -7.539  10.781  66.250  0.00  0.00    -0.220 OA
ATOM     27  C   UNL     1      -7.154   8.656  66.878  0.00  0.00    +0.100 C 
ATOM     28  C   UNL     1      -6.435   8.247  68.089  0.00  0.00    +0.156 C 
ATOM     29  O   UNL     1      -5.237   8.540  68.109  0.00  0.00    -0.296 OA
ATOM     30  C   UNL     1      -6.937   8.293  69.480  0.00  0.00    +0.098 C 
ATOM     31  C   UNL     1      -6.008   7.119  70.156  0.00  0.00    +0.172 C 
ATOM     32  O   UNL     1      -4.950   8.101  70.601  0.00  0.00    -0.222 OA
ATOM     33  C   UNL     1      -6.861   7.097  71.644  0.00  0.00    +0.164 C 
ATOM     34  C   UNL     1      -8.413   7.139  70.929  0.00  0.00    +0.168 C 
ATOM     35  O   UNL     1      -8.093   5.984  70.012  0.00  0.00    -0.222 OA
ATOM     36  C   UNL     1      -9.155   6.222  72.060  0.00  0.00    +0.068 C 
ATOM     37  C   UNL     1      -8.271   4.843  72.137  0.00  0.00    +0.142 C 
ATOM     38  C   UNL     1      -9.273   4.043  71.139  0.00  0.00    +0.003 C 
ATOM     39  C   UNL     1      -8.747   3.150  70.372  0.00  0.00    -0.002 C 
ATOM     40  C   UNL     1      -8.413   1.787  70.610  0.00  0.00    -0.000 C 
ATOM     41  C   UNL     1      -8.998   1.247  71.683  0.00  0.00    -0.000 C 
ATOM     42  C   UNL     1      -9.982   0.179  71.439  0.00  0.00    -0.000 C 
ATOM     43  C   UNL     1     -10.604   0.317  70.263  0.00  0.00    -0.000 C 
ATOM     44  C   UNL     1      -9.933  -0.606  69.330  0.00  0.00    -0.005 C 
ATOM     45  C   UNL     1     -10.550  -1.788  69.413  0.00  0.00    -0.026 C 
ATOM     46  C   UNL     1     -11.525  -2.045  68.306  0.00  0.00    +0.031 C 
ATOM     47  C   UNL     1     -11.087  -1.202  67.143  0.00  0.00    +0.031 C 
ATOM     48  C   UNL     1     -11.439  -1.870  65.912  0.00  0.00    -0.026 C 
ATOM     49  C   UNL     1     -12.037  -1.603  64.877  0.00  0.00    -0.005 C 
ATOM     50  C   UNL     1     -11.151  -0.469  64.507  0.00  0.00    -0.005 C 
ATOM     51  C   UNL     1     -11.446  -0.129  63.419  0.00  0.00    -0.024 C 
ENDROOT
BRANCH  33  52
ATOM     52  C   UNL     1      -6.782   8.637  71.950  0.00  0.00    +0.369 C 
ATOM     53  O   UNL     1      -6.000   8.944  73.057  0.00  0.00    -0.245 OA
ATOM     54  O   UNL     1      -7.436   9.488  71.397  0.00  0.00    -0.245 OA
ENDBRANCH  33  52
BRANCH  37  55
ATOM     55  O   UNL     1      -9.098   4.350  73.309  0.00  0.00    -0.327 OA
BRANCH  55  56
ATOM     56  C   UNL     1      -8.477   5.111  74.472  0.00  0.00    +0.268 C 
ATOM     57  C   UNL     1      -9.928   5.114  75.397  0.00  0.00    +0.228 C 
ATOM     58  O   UNL     1     -10.340   3.691  75.125  0.00  0.00    -0.216 OA
ATOM     59  C   UNL     1      -9.351   4.780  76.960  0.00  0.00    +0.160 C 
ATOM     60  N   UNL     1      -8.886   3.295  76.864  0.00  0.00    -0.127 NA
ATOM     61  C   UNL     1      -7.839   5.544  76.984  0.00  0.00    +0.199 C 
ATOM     62  O   UNL     1      -8.341   6.753  76.233  0.00  0.00    -0.219 OA
ATOM     63  C   UNL     1      -6.979   4.919  75.656  0.00  0.00    +0.150 C 
ATOM     64  C   UNL     1      -6.178   3.852  76.615  0.00  0.00    +0.035 C 
ATOM     65  O   UNL     1      -7.935   3.871  75.157  0.00  0.00    -0.328 OA
ENDBRANCH  55  56
ENDBRANCH  37  55
TORSDOF 3
ENDMDL
MODEL 7
REMARK VINA RESULT:      -5.4      2.618      8.475
REMARK  Name = 
REMARK  3 active torsions:
REMARK  status: ('A' for Active; 'I' for Inactive)
REMARK    1  A    between atoms: C_17  and  O_18
REMARK    2  A    between atoms: O_18  and  C_19
REMARK    3  A    between atoms: C_32  and  C_33
REMARK                            x       y       z     vdW  Elec       q    Type
REMARK                         _______ _______ _______ _____ _____    ______ ____
ROOT
ATOM      1  C   UNL     1      -3.343   3.275  61.787  0.00  0.00    +0.007 C 
ATOM      2  C   UNL     1      -4.644   2.575  62.458  0.00  0.00    +0.053 C 
ATOM      3  C   UNL     1      -3.781   2.107  63.851  0.00  0.00    +0.159 C 
ATOM      4  O   UNL     1      -2.774   1.344  63.039  0.00  0.00    -0.223 OA
ATOM      5  C   UNL     1      -4.711   0.707  64.052  0.00  0.00    +0.071 C 
ATOM      6  C   UNL     1      -3.546  -0.015  64.888  0.00  0.00    +0.006 C 
ATOM      7  C   UNL     1      -5.600   1.428  65.309  0.00  0.00    +0.171 C 
ATOM      8  C   UNL     1      -6.712   0.223  65.261  0.00  0.00    +0.047 C 
ATOM      9  O   UNL     1      -4.863   0.784  66.487  0.00  0.00    -0.452 OA
ATOM     10  C   UNL     1      -4.931   1.420  67.694  0.00  0.00    +0.319 C 
ATOM     11  O   UNL     1      -4.102   2.249  68.164  0.00  0.00    -0.250 OA
ATOM     12  C   UNL     1      -6.338   1.588  68.084  0.00  0.00    +0.142 C 
ATOM     13  C   UNL     1      -6.818   0.086  68.555  0.00  0.00    +0.166 C 
ATOM     14  O   UNL     1      -5.714  -0.015  69.593  0.00  0.00    -0.222 OA
ATOM     15  C   UNL     1      -7.930   0.686  69.605  0.00  0.00    +0.066 C 
ATOM     16  C   UNL     1      -7.033   1.716  70.517  0.00  0.00    +0.157 C 
ATOM     17  O   UNL     1      -7.471   2.917  69.702  0.00  0.00    -0.223 OA
ATOM     18  C   UNL     1      -8.279   1.919  71.576  0.00  0.00    +0.066 C 
ATOM     19  C   UNL     1      -7.704   3.300  72.263  0.00  0.00    +0.155 C 
ATOM     20  O   UNL     1      -8.446   4.171  71.269  0.00  0.00    -0.223 OA
ATOM     21  C   UNL     1      -8.958   3.339  73.331  0.00  0.00    +0.036 C 
ATOM     22  C   UNL     1      -9.325   4.786  73.430  0.00  0.00    +0.038 C 
ATOM     23  C   UNL     1     -10.567   4.884  72.371  0.00  0.00    +0.183 C 
ATOM     24  O   UNL     1     -11.511   4.266  73.373  0.00  0.00    -0.220 OA
ATOM     25  C   UNL     1     -11.122   6.460  72.781  0.00  0.00    +0.189 C 
ATOM     26  O   UNL     1      -9.957   6.897  73.621  0.00  0.00    -0.220 OA
ATOM     27  C   UNL     1     -10.442   7.115  71.436  0.00  0.00    +0.100 C 
ATOM     28  C   UNL     1     -11.462   8.010  70.880  0.00  0.00    +0.156 C 
ATOM     29  O   UNL     1     -12.625   7.726  71.177  0.00  0.00    -0.296 OA
ATOM     30  C   UNL     1     -11.375   9.480  70.740  0.00  0.00    +0.098 C 
ATOM     31  C   UNL     1     -12.423   9.711  69.496  0.00  0.00    +0.172 C 
ATOM     32  O   UNL     1     -13.591   9.958  70.421  0.00  0.00    -0.222 OA
ATOM     33  C   UNL     1     -12.024  11.364  69.275  0.00  0.00    +0.164 C 
ATOM     34  C   UNL     1     -10.336  11.131  69.396  0.00  0.00    +0.168 C 
ATOM     35  O   UNL     1     -10.350  10.023  68.372  0.00  0.00    -0.222 OA
ATOM     36  C   UNL     1      -9.918  12.301  68.334  0.00  0.00    +0.068 C 
ATOM     37  C   UNL     1     -10.746  11.948  66.964  0.00  0.00    +0.142 C 
ATOM     38  C   UNL     1      -9.481  11.183  66.292  0.00  0.00    +0.003 C 
ATOM     39  C   UNL     1      -9.743  10.191  65.510  0.00  0.00    -0.002 C 
ATOM     40  C   UNL     1     -10.091  10.150  64.131  0.00  0.00    -0.000 C 
ATOM     41  C   UNL     1      -9.818  11.268  63.452  0.00  0.00    -0.000 C 
ATOM     42  C   UNL     1      -8.774  11.180  62.416  0.00  0.00    -0.000 C 
ATOM     43  C   UNL     1      -7.850  10.257  62.700  0.00  0.00    -0.000 C 
ATOM     44  C   UNL     1      -8.203   9.062  61.911  0.00  0.00    -0.005 C 
ATOM     45  C   UNL     1      -7.600   9.167  60.724  0.00  0.00    -0.026 C 
ATOM     46  C   UNL     1      -6.345   8.359  60.604  0.00  0.00    +0.031 C 
ATOM     47  C   UNL     1      -6.461   7.236  61.594  0.00  0.00    +0.031 C 
ATOM     48  C   UNL     1      -5.756   6.081  61.088  0.00  0.00    -0.026 C 
ATOM     49  C   UNL     1      -4.897   5.301  61.483  0.00  0.00    -0.005 C 
ATOM     50  C   UNL     1      -5.676   4.841  62.662  0.00  0.00    -0.005 C 
ATOM     51  C   UNL     1      -5.095   3.934  63.138  0.00  0.00    -0.024 C 
ENDROOT
BRANCH  33  52
ATOM     52  C   UNL     1     -12.231  11.828  70.762  0.00  0.00    +0.369 C 
ATOM     53  O   UNL     1     -12.437  13.196  70.895  0.00  0.00    -0.245 OA
ATOM     54  O   UNL     1     -12.087  11.125  71.734  0.00  0.00    -0.245 OA
ENDBRANCH  33  52
BRANCH  37  55
ATOM     55  O   UNL     1     -10.271  13.235  66.317  0.00  0.00    -0.327 OA
BRANCH  55  56
ATOM     56  C   UNL     1      -9.800  14.037  67.522  0.00  0.00    +0.268 C 
ATOM     57  C   UNL     1      -8.721  15.009  66.600  0.00  0.00    +0.228 C 
ATOM     58  O   UNL     1      -9.627  15.248  65.421  0.00  0.00    -0.216 OA
ATOM     59  C   UNL     1      -8.975  16.550  67.268  0.00  0.00    +0.160 C 
ATOM     60  N   UNL     1     -10.416  16.914  66.798  0.00  0.00    -0.127 NA
ATOM     61  C   UNL     1      -9.289  16.215  68.898  0.00  0.00    +0.199 C 
ATOM     62  O   UNL     1      -8.227  15.146  68.974  0.00  0.00    -0.219 OA
ATOM     63  C   UNL     1     -10.582  15.109  68.907  0.00  0.00    +0.150 C 
ATOM     64  C   UNL     1     -11.668  16.307  69.200  0.00  0.00    +0.035 C 
ATOM     65  O   UNL     1     -10.925  15.051  67.444  0.00  0.00    -0.328 OA
ENDBRANCH  55  56
ENDBRANCH  37  55
TORSDOF 3
ENDMDL
MODEL 8
REMARK VINA RESULT:      -5.3      3.029     10.363
REMARK  Name = 
REMARK  3 active torsions:
REMARK  status: ('A' for Active; 'I' for Inactive)
REMARK    1  A    between atoms: C_17  and  O_18
REMARK    2  A    between atoms: O_18  and  C_19
REMARK    3  A    between atoms: C_32  and  C_33
REMARK                            x       y       z     vdW  Elec       q    Type
REMARK                         _______ _______ _______ _____ _____    ______ ____
ROOT
ATOM      1  C   UNL     1      -9.068  11.990  63.587  0.00  0.00    +0.007 C 
ATOM      2  C   UNL     1      -9.718  10.605  63.048  0.00  0.00    +0.053 C 
ATOM      3  C   UNL     1      -8.240  10.069  62.389  0.00  0.00    +0.159 C 
ATOM      4  O   UNL     1      -8.112  11.295  61.533  0.00  0.00    -0.223 OA
ATOM      5  C   UNL     1      -9.013   9.243  61.129  0.00  0.00    +0.071 C 
ATOM      6  C   UNL     1      -7.701   9.314  60.205  0.00  0.00    +0.006 C 
ATOM      7  C   UNL     1      -8.773   7.750  61.904  0.00  0.00    +0.171 C 
ATOM      8  C   UNL     1      -9.813   7.009  60.875  0.00  0.00    +0.047 C 
ATOM      9  O   UNL     1      -7.553   7.287  61.101  0.00  0.00    -0.452 OA
ATOM     10  C   UNL     1      -6.739   6.354  61.677  0.00  0.00    +0.319 C 
ATOM     11  O   UNL     1      -5.694   6.570  62.352  0.00  0.00    -0.250 OA
ATOM     12  C   UNL     1      -7.524   5.161  62.024  0.00  0.00    +0.142 C 
ATOM     13  C   UNL     1      -7.798   4.413  60.584  0.00  0.00    +0.166 C 
ATOM     14  O   UNL     1      -6.315   4.322  60.272  0.00  0.00    -0.222 OA
ATOM     15  C   UNL     1      -7.877   2.928  61.282  0.00  0.00    +0.066 C 
ATOM     16  C   UNL     1      -6.468   2.860  62.124  0.00  0.00    +0.157 C 
ATOM     17  O   UNL     1      -7.150   3.267  63.416  0.00  0.00    -0.223 OA
ATOM     18  C   UNL     1      -6.698   1.262  62.449  0.00  0.00    +0.066 C 
ATOM     19  C   UNL     1      -5.626   1.178  63.696  0.00  0.00    +0.155 C 
ATOM     20  O   UNL     1      -6.699   1.509  64.715  0.00  0.00    -0.223 OA
ATOM     21  C   UNL     1      -5.880  -0.442  63.859  0.00  0.00    +0.036 C 
ATOM     22  C   UNL     1      -5.886  -0.675  65.337  0.00  0.00    +0.038 C 
ATOM     23  C   UNL     1      -7.488  -0.657  65.667  0.00  0.00    +0.183 C 
ATOM     24  O   UNL     1      -7.644  -2.062  65.139  0.00  0.00    -0.220 OA
ATOM     25  C   UNL     1      -7.417  -1.244  67.282  0.00  0.00    +0.189 C 
ATOM     26  O   UNL     1      -5.938  -1.115  67.504  0.00  0.00    -0.220 OA
ATOM     27  C   UNL     1      -7.674   0.256  67.901  0.00  0.00    +0.100 C 
ATOM     28  C   UNL     1      -8.672   0.075  68.962  0.00  0.00    +0.156 C 
ATOM     29  O   UNL     1      -9.398  -0.914  68.832  0.00  0.00    -0.296 OA
ATOM     30  C   UNL     1      -8.486   0.316  70.409  0.00  0.00    +0.098 C 
ATOM     31  C   UNL     1     -10.040   0.607  70.852  0.00  0.00    +0.172 C 
ATOM     32  O   UNL     1     -10.292  -0.838  71.215  0.00  0.00    -0.222 OA
ATOM     33  C   UNL     1      -9.646   1.120  72.440  0.00  0.00    +0.164 C 
ATOM     34  C   UNL     1      -8.329   2.098  71.961  0.00  0.00    +0.168 C 
ATOM     35  O   UNL     1      -9.155   2.814  70.921  0.00  0.00    -0.222 OA
ATOM     36  C   UNL     1      -8.529   3.241  73.112  0.00  0.00    +0.068 C 
ATOM     37  C   UNL     1     -10.083   3.738  72.953  0.00  0.00    +0.142 C 
ATOM     38  C   UNL     1      -9.670   5.025  72.050  0.00  0.00    +0.003 C 
ATOM     39  C   UNL     1     -10.511   5.402  71.148  0.00  0.00    -0.002 C 
ATOM     40  C   UNL     1     -11.665   6.232  71.229  0.00  0.00    -0.000 C 
ATOM     41  C   UNL     1     -11.735   6.986  72.330  0.00  0.00    -0.000 C 
ATOM     42  C   UNL     1     -11.626   8.444  72.147  0.00  0.00    -0.000 C 
ATOM     43  C   UNL     1     -10.879   8.770  71.087  0.00  0.00    -0.000 C 
ATOM     44  C   UNL     1     -11.823   9.084  69.998  0.00  0.00    -0.005 C 
ATOM     45  C   UNL     1     -12.116  10.384  70.076  0.00  0.00    -0.026 C 
ATOM     46  C   UNL     1     -11.362  11.239  69.104  0.00  0.00    +0.031 C 
ATOM     47  C   UNL     1     -10.975  10.347  67.960  0.00  0.00    +0.031 C 
ATOM     48  C   UNL     1     -10.934  11.125  66.743  0.00  0.00    -0.026 C 
ATOM     49  C   UNL     1     -10.145  11.333  65.829  0.00  0.00    -0.005 C 
ATOM     50  C   UNL     1     -10.040   9.907  65.425  0.00  0.00    -0.005 C 
ATOM     51  C   UNL     1      -9.427   9.867  64.421  0.00  0.00    -0.024 C 
ENDROOT
BRANCH  33  52
ATOM     52  C   UNL     1      -8.781  -0.127  72.851  0.00  0.00    +0.369 C 
ATOM     53  O   UNL     1      -9.470  -1.051  73.627  0.00  0.00    -0.245 OA
ATOM     54  O   UNL     1      -7.594  -0.240  72.659  0.00  0.00    -0.245 OA
ENDBRANCH  33  52
BRANCH  37  55
ATOM     55  O   UNL     1      -9.956   4.607  74.190  0.00  0.00    -0.327 OA
BRANCH  55  56
ATOM     56  C   UNL     1      -8.466   4.920  74.203  0.00  0.00    +0.268 C 
ATOM     57  C   UNL     1      -8.704   6.616  74.368  0.00  0.00    +0.228 C 
ATOM     58  O   UNL     1      -9.813   6.562  75.385  0.00  0.00    -0.216 OA
ATOM     59  C   UNL     1      -7.511   7.031  75.504  0.00  0.00    +0.160 C 
ATOM     60  N   UNL     1      -8.026   6.378  76.822  0.00  0.00    -0.127 NA
ATOM     61  C   UNL     1      -6.246   5.966  75.141  0.00  0.00    +0.199 C 
ATOM     62  O   UNL     1      -6.441   6.104  73.650  0.00  0.00    -0.219 OA
ATOM     63  C   UNL     1      -6.917   4.403  75.210  0.00  0.00    +0.150 C 
ATOM     64  C   UNL     1      -6.343   4.172  76.733  0.00  0.00    +0.035 C 
ATOM     65  O   UNL     1      -8.307   4.705  75.696  0.00  0.00    -0.328 OA
ENDBRANCH  55  56
ENDBRANCH  37  55
TORSDOF 3
ENDMDL
MODEL 9
REMARK VINA RESULT:      -5.2      3.175     10.812
REMARK  Name = 
REMARK  3 active torsions:
REMARK  status: ('A' for Active; 'I' for Inactive)
REMARK    1  A    between atoms: C_17  and  O_18
REMARK    2  A    between atoms: O_18  and  C_19
REMARK    3  A    between atoms: C_32  and  C_33
REMARK                            x       y       z     vdW  Elec       q    Type
REMARK                         _______ _______ _______ _____ _____    ______ ____
ROOT
ATOM      1  C   UNL     1      -9.817  11.785  64.312  0.00  0.00    +0.007 C 
ATOM      2  C   UNL     1     -10.000  10.310  63.663  0.00  0.00    +0.053 C 
ATOM      3  C   UNL     1      -8.503  10.388  62.850  0.00  0.00    +0.159 C 
ATOM      4  O   UNL     1      -8.895  11.648  62.132  0.00  0.00    -0.223 OA
ATOM      5  C   UNL     1      -9.068   9.450  61.558  0.00  0.00    +0.071 C 
ATOM      6  C   UNL     1      -7.963  10.058  60.563  0.00  0.00    +0.006 C 
ATOM      7  C   UNL     1      -8.248   8.080  62.141  0.00  0.00    +0.171 C 
ATOM      8  C   UNL     1      -9.068   7.107  61.106  0.00  0.00    +0.047 C 
ATOM      9  O   UNL     1      -7.033   8.148  61.210  0.00  0.00    -0.452 OA
ATOM     10  C   UNL     1      -5.891   7.520  61.621  0.00  0.00    +0.319 C 
ATOM     11  O   UNL     1      -4.922   8.035  62.245  0.00  0.00    -0.250 OA
ATOM     12  C   UNL     1      -6.176   6.102  61.882  0.00  0.00    +0.142 C 
ATOM     13  C   UNL     1      -6.320   5.427  60.388  0.00  0.00    +0.166 C 
ATOM     14  O   UNL     1      -4.938   5.894  59.969  0.00  0.00    -0.222 OA
ATOM     15  C   UNL     1      -5.809   3.958  60.916  0.00  0.00    +0.066 C 
ATOM     16  C   UNL     1      -4.385   4.324  61.649  0.00  0.00    +0.157 C 
ATOM     17  O   UNL     1      -5.029   4.354  63.021  0.00  0.00    -0.223 OA
ATOM     18  C   UNL     1      -4.014   2.727  61.804  0.00  0.00    +0.066 C 
ATOM     19  C   UNL     1      -2.857   2.925  62.959  0.00  0.00    +0.155 C 
ATOM     20  O   UNL     1      -3.868   2.769  64.078  0.00  0.00    -0.223 OA
ATOM     21  C   UNL     1      -2.517   1.313  62.953  0.00  0.00    +0.036 C 
ATOM     22  C   UNL     1      -2.291   0.971  64.392  0.00  0.00    +0.038 C 
ATOM     23  C   UNL     1      -3.757   0.392  64.828  0.00  0.00    +0.183 C 
ATOM     24  O   UNL     1      -3.471  -0.928  64.156  0.00  0.00    -0.220 OA
ATOM     25  C   UNL     1      -3.323  -0.263  66.358  0.00  0.00    +0.189 C 
ATOM     26  O   UNL     1      -1.965   0.363  66.493  0.00  0.00    -0.220 OA
ATOM     27  C   UNL     1      -4.017   0.992  67.160  0.00  0.00    +0.100 C 
ATOM     28  C   UNL     1      -4.777   0.381  68.257  0.00  0.00    +0.156 C 
ATOM     29  O   UNL     1      -5.125  -0.786  68.065  0.00  0.00    -0.296 OA
ATOM     30  C   UNL     1      -4.538   0.551  69.707  0.00  0.00    +0.098 C 
ATOM     31  C   UNL     1      -6.043   0.235  70.283  0.00  0.00    +0.172 C 
ATOM     32  O   UNL     1      -5.742  -1.230  70.495  0.00  0.00    -0.222 OA
ATOM     33  C   UNL     1      -5.690   0.721  71.889  0.00  0.00    +0.164 C 
ATOM     34  C   UNL     1      -4.849   2.138  71.437  0.00  0.00    +0.168 C 
ATOM     35  O   UNL     1      -5.974   2.598  70.543  0.00  0.00    -0.222 OA
ATOM     36  C   UNL     1      -5.312   3.037  72.721  0.00  0.00    +0.068 C 
ATOM     37  C   UNL     1      -6.950   2.962  72.724  0.00  0.00    +0.142 C 
ATOM     38  C   UNL     1      -7.103   4.381  71.948  0.00  0.00    +0.003 C 
ATOM     39  C   UNL     1      -8.110   4.510  71.154  0.00  0.00    -0.002 C 
ATOM     40  C   UNL     1      -9.465   4.867  71.405  0.00  0.00    -0.000 C 
ATOM     41  C   UNL     1      -9.677   5.454  72.587  0.00  0.00    -0.000 C 
ATOM     42  C   UNL     1     -10.099   6.865  72.563  0.00  0.00    -0.000 C 
ATOM     43  C   UNL     1      -9.624   7.522  71.500  0.00  0.00    -0.000 C 
ATOM     44  C   UNL     1     -10.724   7.570  70.520  0.00  0.00    -0.005 C 
ATOM     45  C   UNL     1     -11.439   8.671  70.765  0.00  0.00    -0.026 C 
ATOM     46  C   UNL     1     -11.131   9.815  69.848  0.00  0.00    +0.031 C 
ATOM     47  C   UNL     1     -10.579   9.216  68.586  0.00  0.00    +0.031 C 
ATOM     48  C   UNL     1     -10.934  10.057  67.466  0.00  0.00    -0.026 C 
ATOM     49  C   UNL     1     -10.364  10.606  66.531  0.00  0.00    -0.005 C 
ATOM     50  C   UNL     1      -9.815   9.348  65.961  0.00  0.00    -0.005 C 
ATOM     51  C   UNL     1      -9.332   9.612  64.920  0.00  0.00    -0.024 C 
ENDROOT
BRANCH  33  52
ATOM     52  C   UNL     1      -4.410  -0.168  72.096  0.00  0.00    +0.369 C 
ATOM     53  O   UNL     1      -4.659  -1.349  72.786  0.00  0.00    -0.245 OA
ATOM     54  O   UNL     1      -3.282   0.170  71.831  0.00  0.00    -0.245 OA
ENDBRANCH  33  52
BRANCH  37  55
ATOM     55  O   UNL     1      -7.006   3.714  74.041  0.00  0.00    -0.327 OA
BRANCH  55  56
ATOM     56  C   UNL     1      -7.648   2.685  74.962  0.00  0.00    +0.268 C 
ATOM     57  C   UNL     1      -7.716   3.759  76.305  0.00  0.00    +0.228 C 
ATOM     58  O   UNL     1      -8.172   4.984  75.557  0.00  0.00    -0.216 OA
ATOM     59  C   UNL     1      -9.253   3.424  76.946  0.00  0.00    +0.160 C 
ATOM     60  N   UNL     1     -10.225   3.994  75.870  0.00  0.00    -0.127 NA
ATOM     61  C   UNL     1      -9.444   1.768  76.646  0.00  0.00    +0.199 C 
ATOM     62  O   UNL     1      -8.012   1.450  77.000  0.00  0.00    -0.219 OA
ATOM     63  C   UNL     1      -9.207   1.567  74.973  0.00  0.00    +0.150 C 
ATOM     64  C   UNL     1     -10.827   1.551  74.696  0.00  0.00    +0.035 C 
ATOM     65  O   UNL     1      -9.067   2.996  74.526  0.00  0.00    -0.328 OA
ENDBRANCH  55  56
ENDBRANCH  37  55
TORSDOF 3
ENDMDL
