MODEL 1
REMARK VINA RESULT:      -4.9      0.000      0.000
REMARK  Name = 
REMARK  5 active torsions:
REMARK  status: ('A' for Active; 'I' for Inactive)
REMARK    1  A    between atoms: C_2  and  N_3
REMARK    2  A    between atoms: N_3  and  C_4
REMARK    3  A    between atoms: N_3  and  C_6
REMARK    4  A    between atoms: C_6  and  C_8
REMARK    5  A    between atoms: C_8  and  C_10
REMARK                            x       y       z     vdW  Elec       q    Type
REMARK                         _______ _______ _______ _____ _____    ______ ____
ROOT
ATOM      1  C   UNL     1     -11.566  15.343  69.409  0.00  0.00    +0.187 C 
ATOM      2  O   UNL     1     -11.800  16.450  68.911  0.00  0.00    -0.290 OA
ENDROOT
BRANCH   1   3
ATOM      3  C   UNL     1     -12.338  14.725  70.469  0.00  0.00    +0.036 A 
ATOM      4  C   UNL     1     -12.314  13.352  70.688  0.00  0.00    +0.003 A 
ATOM      5  C   UNL     1     -13.119  12.874  71.711  0.00  0.00    +0.000 A 
ATOM      6  C   UNL     1     -14.021  13.702  72.362  0.00  0.00    +0.000 A 
ATOM      7  C   UNL     1     -13.759  15.054  72.374  0.00  0.00    +0.000 A 
ATOM      8  C   UNL     1     -13.129  15.559  71.244  0.00  0.00    +0.003 A 
ENDBRANCH   1   3
BRANCH   1   9
ATOM      9  C   UNL     1     -10.727  14.300  68.473  0.00  0.00    +0.120 C 
ATOM     10  C   UNL     1      -9.374  15.279  68.478  0.00  0.00    +0.026 C 
BRANCH   9  11
ATOM     11  N   UNL     1     -11.330  14.909  67.127  0.00  0.00    -0.268 NA
BRANCH  11  13
ATOM     12  C   UNL     1     -11.536  12.481  67.081  0.00  0.00    +0.019 C 
ATOM     13  C   UNL     1     -12.186  13.775  66.767  0.00  0.00    +0.072 C 
ENDBRANCH  11  13
BRANCH  11  14
ATOM     14  C   UNL     1     -10.309  14.958  66.152  0.00  0.00    +0.072 C 
ATOM     15  C   UNL     1     -10.813  15.817  64.997  0.00  0.00    +0.019 C 
ENDBRANCH  11  14
ENDBRANCH   9  11
ENDBRANCH   1   9
TORSDOF 5
ENDMDL
MODEL 2
REMARK VINA RESULT:      -4.9      3.826      5.689
REMARK  Name = 
REMARK  5 active torsions:
REMARK  status: ('A' for Active; 'I' for Inactive)
REMARK    1  A    between atoms: C_2  and  N_3
REMARK    2  A    between atoms: N_3  and  C_4
REMARK    3  A    between atoms: N_3  and  C_6
REMARK    4  A    between atoms: C_6  and  C_8
REMARK    5  A    between atoms: C_8  and  C_10
REMARK                            x       y       z     vdW  Elec       q    Type
REMARK                         _______ _______ _______ _____ _____    ______ ____
ROOT
ATOM      1  C   UNL     1     -10.899  16.008  65.154  0.00  0.00    +0.187 C 
ATOM      2  O   UNL     1     -11.157  16.897  64.333  0.00  0.00    -0.290 OA
ENDROOT
BRANCH   1   3
ATOM      3  C   UNL     1     -11.202  14.601  64.984  0.00  0.00    +0.036 A 
ATOM      4  C   UNL     1     -12.500  14.113  65.088  0.00  0.00    +0.003 A 
ATOM      5  C   UNL     1     -12.661  12.744  64.938  0.00  0.00    +0.000 A 
ATOM      6  C   UNL     1     -11.567  11.897  64.859  0.00  0.00    +0.000 A 
ATOM      7  C   UNL     1     -10.378  12.424  64.405  0.00  0.00    +0.000 A 
ATOM      8  C   UNL     1     -10.136  13.750  64.741  0.00  0.00    +0.003 A 
ENDBRANCH   1   3
BRANCH   1   9
ATOM      9  C   UNL     1      -9.682  16.328  66.195  0.00  0.00    +0.120 C 
ATOM     10  C   UNL     1     -10.674  16.124  67.523  0.00  0.00    +0.026 C 
BRANCH   9  11
ATOM     11  N   UNL     1      -9.913  17.904  66.094  0.00  0.00    -0.268 NA
BRANCH  11  13
ATOM     12  C   UNL     1      -7.600  17.142  66.214  0.00  0.00    +0.019 C 
ATOM     13  C   UNL     1      -8.509  18.312  66.187  0.00  0.00    +0.072 C 
ENDBRANCH  11  13
BRANCH  11  14
ATOM     14  C   UNL     1     -10.532  18.350  67.284  0.00  0.00    +0.072 C 
ATOM     15  C   UNL     1     -10.166  19.819  67.473  0.00  0.00    +0.019 C 
ENDBRANCH  11  14
ENDBRANCH   9  11
ENDBRANCH   1   9
TORSDOF 5
ENDMDL
MODEL 3
REMARK VINA RESULT:      -4.8      3.444      5.036
REMARK  Name = 
REMARK  5 active torsions:
REMARK  status: ('A' for Active; 'I' for Inactive)
REMARK    1  A    between atoms: C_2  and  N_3
REMARK    2  A    between atoms: N_3  and  C_4
REMARK    3  A    between atoms: N_3  and  C_6
REMARK    4  A    between atoms: C_6  and  C_8
REMARK    5  A    between atoms: C_8  and  C_10
REMARK                            x       y       z     vdW  Elec       q    Type
REMARK                         _______ _______ _______ _____ _____    ______ ____
ROOT
ATOM      1  C   UNL     1     -10.609  16.718  65.629  0.00  0.00    +0.187 C 
ATOM      2  O   UNL     1     -11.131  16.825  64.513  0.00  0.00    -0.290 OA
ENDROOT
BRANCH   1   3
ATOM      3  C   UNL     1     -10.334  17.818  66.531  0.00  0.00    +0.036 A 
ATOM      4  C   UNL     1     -10.016  17.607  67.868  0.00  0.00    +0.003 A 
ATOM      5  C   UNL     1      -9.806  18.739  68.641  0.00  0.00    +0.000 A 
ATOM      6  C   UNL     1     -10.066  20.006  68.143  0.00  0.00    +0.000 A 
ATOM      7  C   UNL     1     -10.017  20.183  66.778  0.00  0.00    +0.000 A 
ATOM      8  C   UNL     1     -10.429  19.100  66.013  0.00  0.00    +0.003 A 
ENDBRANCH   1   3
BRANCH   1   9
ATOM      9  C   UNL     1     -10.755  15.259  66.348  0.00  0.00    +0.120 C 
ATOM     10  C   UNL     1      -9.181  14.843  65.979  0.00  0.00    +0.026 C 
BRANCH   9  11
ATOM     11  N   UNL     1     -11.382  14.595  65.039  0.00  0.00    -0.268 NA
BRANCH  11  13
ATOM     12  C   UNL     1     -12.277  13.707  67.126  0.00  0.00    +0.019 C 
ATOM     13  C   UNL     1     -12.522  13.936  65.682  0.00  0.00    +0.072 C 
ENDBRANCH  11  13
BRANCH  11  14
ATOM     14  C   UNL     1     -10.526  13.560  64.600  0.00  0.00    +0.072 C 
ATOM     15  C   UNL     1     -11.339  12.641  63.693  0.00  0.00    +0.019 C 
ENDBRANCH  11  14
ENDBRANCH   9  11
ENDBRANCH   1   9
TORSDOF 5
ENDMDL
MODEL 4
REMARK VINA RESULT:      -4.7      2.246      5.367
REMARK  Name = 
REMARK  5 active torsions:
REMARK  status: ('A' for Active; 'I' for Inactive)
REMARK    1  A    between atoms: C_2  and  N_3
REMARK    2  A    between atoms: N_3  and  C_4
REMARK    3  A    between atoms: N_3  and  C_6
REMARK    4  A    between atoms: C_6  and  C_8
REMARK    5  A    between atoms: C_8  and  C_10
REMARK                            x       y       z     vdW  Elec       q    Type
REMARK                         _______ _______ _______ _____ _____    ______ ____
ROOT
ATOM      1  C   UNL     1     -12.090  13.589  70.006  0.00  0.00    +0.187 C 
ATOM      2  O   UNL     1     -12.333  12.724  70.855  0.00  0.00    -0.290 OA
ENDROOT
BRANCH   1   3
ATOM      3  C   UNL     1     -11.930  13.344  68.587  0.00  0.00    +0.036 A 
ATOM      4  C   UNL     1     -12.042  14.366  67.650  0.00  0.00    +0.003 A 
ATOM      5  C   UNL     1     -11.902  14.004  66.319  0.00  0.00    +0.000 A 
ATOM      6  C   UNL     1     -11.824  12.671  65.941  0.00  0.00    +0.000 A 
ATOM      7  C   UNL     1     -11.361  11.766  66.871  0.00  0.00    +0.000 A 
ATOM      8  C   UNL     1     -11.688  12.038  68.194  0.00  0.00    +0.003 A 
ENDBRANCH   1   3
BRANCH   1   9
ATOM      9  C   UNL     1     -12.526  15.114  70.396  0.00  0.00    +0.120 C 
ATOM     10  C   UNL     1     -10.943  15.568  70.671  0.00  0.00    +0.026 C 
BRANCH   9  11
ATOM     11  N   UNL     1     -12.821  14.720  71.913  0.00  0.00    -0.268 NA
BRANCH  11  13
ATOM     12  C   UNL     1     -15.210  14.862  71.453  0.00  0.00    +0.019 C 
ATOM     13  C   UNL     1     -14.040  15.514  72.087  0.00  0.00    +0.072 C 
ENDBRANCH  11  13
BRANCH  11  14
ATOM     14  C   UNL     1     -11.841  15.319  72.737  0.00  0.00    +0.072 C 
ATOM     15  C   UNL     1     -12.466  15.541  74.112  0.00  0.00    +0.019 C 
ENDBRANCH  11  14
ENDBRANCH   9  11
ENDBRANCH   1   9
TORSDOF 5
ENDMDL
MODEL 5
REMARK VINA RESULT:      -4.6      1.327      2.042
REMARK  Name = 
REMARK  5 active torsions:
REMARK  status: ('A' for Active; 'I' for Inactive)
REMARK    1  A    between atoms: C_2  and  N_3
REMARK    2  A    between atoms: N_3  and  C_4
REMARK    3  A    between atoms: N_3  and  C_6
REMARK    4  A    between atoms: C_6  and  C_8
REMARK    5  A    between atoms: C_8  and  C_10
REMARK                            x       y       z     vdW  Elec       q    Type
REMARK                         _______ _______ _______ _____ _____    ______ ____
ROOT
ATOM      1  C   UNL     1     -11.798  15.697  69.254  0.00  0.00    +0.187 C 
ATOM      2  O   UNL     1     -11.460  16.738  68.677  0.00  0.00    -0.290 OA
ENDROOT
BRANCH   1   3
ATOM      3  C   UNL     1     -12.412  15.631  70.565  0.00  0.00    +0.036 A 
ATOM      4  C   UNL     1     -13.702  15.144  70.746  0.00  0.00    +0.003 A 
ATOM      5  C   UNL     1     -14.194  15.161  72.042  0.00  0.00    +0.000 A 
ATOM      6  C   UNL     1     -13.498  15.785  73.067  0.00  0.00    +0.000 A 
ATOM      7  C   UNL     1     -12.133  15.912  72.931  0.00  0.00    +0.000 A 
ATOM      8  C   UNL     1     -11.669  16.102  71.635  0.00  0.00    +0.003 A 
ENDBRANCH   1   3
BRANCH   1   9
ATOM      9  C   UNL     1     -12.090  14.410  68.292  0.00  0.00    +0.120 C 
ATOM     10  C   UNL     1     -11.221  13.386  69.284  0.00  0.00    +0.026 C 
BRANCH   9  11
ATOM     11  N   UNL     1     -10.859  14.752  67.336  0.00  0.00    -0.268 NA
BRANCH  11  13
ATOM     12  C   UNL     1     -11.281  15.146  64.968  0.00  0.00    +0.019 C 
ATOM     13  C   UNL     1     -11.413  14.197  66.099  0.00  0.00    +0.072 C 
ENDBRANCH  11  13
BRANCH  11  14
ATOM     14  C   UNL     1      -9.768  13.925  67.686  0.00  0.00    +0.072 C 
ATOM     15  C   UNL     1      -8.491  14.627  67.233  0.00  0.00    +0.019 C 
ENDBRANCH  11  14
ENDBRANCH   9  11
ENDBRANCH   1   9
TORSDOF 5
ENDMDL
MODEL 6
REMARK VINA RESULT:      -4.4      1.703      2.777
REMARK  Name = 
REMARK  5 active torsions:
REMARK  status: ('A' for Active; 'I' for Inactive)
REMARK    1  A    between atoms: C_2  and  N_3
REMARK    2  A    between atoms: N_3  and  C_4
REMARK    3  A    between atoms: N_3  and  C_6
REMARK    4  A    between atoms: C_6  and  C_8
REMARK    5  A    between atoms: C_8  and  C_10
REMARK                            x       y       z     vdW  Elec       q    Type
REMARK                         _______ _______ _______ _____ _____    ______ ____
ROOT
ATOM      1  C   UNL     1     -12.019  14.151  69.640  0.00  0.00    +0.187 C 
ATOM      2  O   UNL     1     -11.540  13.020  69.500  0.00  0.00    -0.290 OA
ENDROOT
BRANCH   1   3
ATOM      3  C   UNL     1     -12.520  14.698  70.885  0.00  0.00    +0.036 A 
ATOM      4  C   UNL     1     -13.881  14.856  71.122  0.00  0.00    +0.003 A 
ATOM      5  C   UNL     1     -14.237  15.420  72.337  0.00  0.00    +0.000 A 
ATOM      6  C   UNL     1     -13.281  15.951  73.190  0.00  0.00    +0.000 A 
ATOM      7  C   UNL     1     -11.997  15.462  73.098  0.00  0.00    +0.000 A 
ATOM      8  C   UNL     1     -11.581  15.088  71.827  0.00  0.00    +0.003 A 
ENDBRANCH   1   3
BRANCH   1   9
ATOM      9  C   UNL     1     -11.558  15.264  68.537  0.00  0.00    +0.120 C 
ATOM     10  C   UNL     1     -12.023  14.292  67.261  0.00  0.00    +0.026 C 
BRANCH   9  11
ATOM     11  N   UNL     1     -10.045  14.757  68.550  0.00  0.00    -0.268 NA
BRANCH  11  13
ATOM     12  C   UNL     1     -10.211  17.183  68.720  0.00  0.00    +0.019 C 
ATOM     13  C   UNL     1      -9.436  15.975  69.091  0.00  0.00    +0.072 C 
ENDBRANCH  11  13
BRANCH  11  14
ATOM     14  C   UNL     1      -9.591  14.647  67.217  0.00  0.00    +0.072 C 
ATOM     15  C   UNL     1      -8.091  14.367  67.261  0.00  0.00    +0.019 C 
ENDBRANCH  11  14
ENDBRANCH   9  11
ENDBRANCH   1   9
TORSDOF 5
ENDMDL
MODEL 7
REMARK VINA RESULT:      -4.4      1.871      3.009
REMARK  Name = 
REMARK  5 active torsions:
REMARK  status: ('A' for Active; 'I' for Inactive)
REMARK    1  A    between atoms: C_2  and  N_3
REMARK    2  A    between atoms: N_3  and  C_4
REMARK    3  A    between atoms: N_3  and  C_6
REMARK    4  A    between atoms: C_6  and  C_8
REMARK    5  A    between atoms: C_8  and  C_10
REMARK                            x       y       z     vdW  Elec       q    Type
REMARK                         _______ _______ _______ _____ _____    ______ ____
ROOT
ATOM      1  C   UNL     1     -12.029  13.568  67.802  0.00  0.00    +0.187 C 
ATOM      2  O   UNL     1     -12.038  12.341  67.653  0.00  0.00    -0.290 OA
ENDROOT
BRANCH   1   3
ATOM      3  C   UNL     1     -11.944  14.253  69.077  0.00  0.00    +0.036 A 
ATOM      4  C   UNL     1     -12.257  13.617  70.273  0.00  0.00    +0.003 A 
ATOM      5  C   UNL     1     -12.170  14.384  71.424  0.00  0.00    +0.000 A 
ATOM      6  C   UNL     1     -11.948  15.752  71.361  0.00  0.00    +0.000 A 
ATOM      7  C   UNL     1     -11.305  16.247  70.248  0.00  0.00    +0.000 A 
ATOM      8  C   UNL     1     -11.564  15.586  69.054  0.00  0.00    +0.003 A 
ENDBRANCH   1   3
BRANCH   1   9
ATOM      9  C   UNL     1     -11.523  14.441  66.518  0.00  0.00    +0.120 C 
ATOM     10  C   UNL     1     -12.769  13.880  65.559  0.00  0.00    +0.026 C 
BRANCH   9  11
ATOM     11  N   UNL     1     -10.486  13.314  66.068  0.00  0.00    -0.268 NA
BRANCH  11  13
ATOM     12  C   UNL     1      -9.293  15.440  66.038  0.00  0.00    +0.019 C 
ATOM     13  C   UNL     1      -9.258  14.016  66.449  0.00  0.00    +0.072 C 
ENDBRANCH  11  13
BRANCH  11  14
ATOM     14  C   UNL     1     -10.477  13.242  64.657  0.00  0.00    +0.072 C 
ATOM     15  C   UNL     1     -10.143  11.804  64.270  0.00  0.00    +0.019 C 
ENDBRANCH  11  14
ENDBRANCH   9  11
ENDBRANCH   1   9
TORSDOF 5
ENDMDL
MODEL 8
REMARK VINA RESULT:      -4.4      2.571      5.285
REMARK  Name = 
REMARK  5 active torsions:
REMARK  status: ('A' for Active; 'I' for Inactive)
REMARK    1  A    between atoms: C_2  and  N_3
REMARK    2  A    between atoms: N_3  and  C_4
REMARK    3  A    between atoms: N_3  and  C_6
REMARK    4  A    between atoms: C_6  and  C_8
REMARK    5  A    between atoms: C_8  and  C_10
REMARK                            x       y       z     vdW  Elec       q    Type
REMARK                         _______ _______ _______ _____ _____    ______ ____
ROOT
ATOM      1  C   UNL     1     -10.118  16.518  65.773  0.00  0.00    +0.187 C 
ATOM      2  O   UNL     1     -10.877  16.611  64.800  0.00  0.00    -0.290 OA
ENDROOT
BRANCH   1   3
ATOM      3  C   UNL     1      -9.786  17.600  66.678  0.00  0.00    +0.036 A 
ATOM      4  C   UNL     1     -10.588  18.730  66.796  0.00  0.00    +0.003 A 
ATOM      5  C   UNL     1     -10.149  19.712  67.671  0.00  0.00    +0.000 A 
ATOM      6  C   UNL     1      -8.897  19.641  68.261  0.00  0.00    +0.000 A 
ATOM      7  C   UNL     1      -8.326  18.396  68.407  0.00  0.00    +0.000 A 
ATOM      8  C   UNL     1      -8.613  17.477  67.406  0.00  0.00    +0.003 A 
ENDBRANCH   1   3
BRANCH   1   9
ATOM      9  C   UNL     1      -9.934  15.020  66.395  0.00  0.00    +0.120 C 
ATOM     10  C   UNL     1     -10.317  14.294  64.941  0.00  0.00    +0.026 C 
BRANCH   9  11
ATOM     11  N   UNL     1     -11.426  14.992  66.959  0.00  0.00    -0.268 NA
BRANCH  11  13
ATOM     12  C   UNL     1     -11.687  15.893  69.209  0.00  0.00    +0.019 C 
ATOM     13  C   UNL     1     -11.096  14.819  68.376  0.00  0.00    +0.072 C 
ENDBRANCH  11  13
BRANCH  11  14
ATOM     14  C   UNL     1     -12.044  13.789  66.549  0.00  0.00    +0.072 C 
ATOM     15  C   UNL     1     -11.766  12.738  67.620  0.00  0.00    +0.019 C 
ENDBRANCH  11  14
ENDBRANCH   9  11
ENDBRANCH   1   9
TORSDOF 5
ENDMDL
MODEL 9
REMARK VINA RESULT:      -4.3      1.968      3.025
REMARK  Name = 
REMARK  5 active torsions:
REMARK  status: ('A' for Active; 'I' for Inactive)
REMARK    1  A    between atoms: C_2  and  N_3
REMARK    2  A    between atoms: N_3  and  C_4
REMARK    3  A    between atoms: N_3  and  C_6
REMARK    4  A    between atoms: C_6  and  C_8
REMARK    5  A    between atoms: C_8  and  C_10
REMARK                            x       y       z     vdW  Elec       q    Type
REMARK                         _______ _______ _______ _____ _____    ______ ____
ROOT
ATOM      1  C   UNL     1     -11.695  14.326  67.040  0.00  0.00    +0.187 C 
ATOM      2  O   UNL     1     -12.655  14.039  66.315  0.00  0.00    -0.290 OA
ENDROOT
BRANCH   1   3
ATOM      3  C   UNL     1     -11.772  14.585  68.464  0.00  0.00    +0.036 A 
ATOM      4  C   UNL     1     -11.595  15.862  68.987  0.00  0.00    +0.003 A 
ATOM      5  C   UNL     1     -11.659  15.980  70.367  0.00  0.00    +0.000 A 
ATOM      6  C   UNL     1     -11.726  14.859  71.181  0.00  0.00    +0.000 A 
ATOM      7  C   UNL     1     -12.251  13.705  70.643  0.00  0.00    +0.000 A 
ATOM      8  C   UNL     1     -12.002  13.499  69.292  0.00  0.00    +0.003 A 
ENDBRANCH   1   3
BRANCH   1   9
ATOM      9  C   UNL     1     -10.228  13.845  66.507  0.00  0.00    +0.120 C 
ATOM     10  C   UNL     1     -10.306  14.850  65.176  0.00  0.00    +0.026 C 
BRANCH   9  11
ATOM     11  N   UNL     1     -10.836  12.576  65.756  0.00  0.00    -0.268 NA
BRANCH  11  13
ATOM     12  C   UNL     1     -11.021  10.634  67.218  0.00  0.00    +0.019 C 
ATOM     13  C   UNL     1     -10.103  11.543  66.492  0.00  0.00    +0.072 C 
ENDBRANCH  11  13
BRANCH  11  14
ATOM     14  C   UNL     1     -10.337  12.548  64.434  0.00  0.00    +0.072 C 
ATOM     15  C   UNL     1     -11.249  11.639  63.615  0.00  0.00    +0.019 C 
ENDBRANCH  11  14
ENDBRANCH   9  11
ENDBRANCH   1   9
TORSDOF 5
ENDMDL
