MODEL 1
REMARK VINA RESULT:      -5.8      0.000      0.000
REMARK  Name = 
REMARK  3 active torsions:
REMARK  status: ('A' for Active; 'I' for Inactive)
REMARK    1  A    between atoms: C_2  and  C_3
REMARK    2  A    between atoms: C_3  and  C_5
REMARK    3  A    between atoms: C_5  and  C_6
REMARK                            x       y       z     vdW  Elec       q    Type
REMARK                         _______ _______ _______ _____ _____    ______ ____
ROOT
ATOM      1  C   UNL     1     -11.080  12.909  65.500  0.00  0.00    +0.141 C 
ATOM      2  C   UNL     1     -10.266  14.077  65.891  0.00  0.00    +0.257 C 
ATOM      3  O   UNL     1      -9.162  13.854  66.472  0.00  0.00    -0.272 OA
ATOM      4  N   UNL     1     -10.246  15.187  64.986  0.00  0.00    -0.125 NA
ATOM      5  C   UNL     1     -11.449  15.567  64.354  0.00  0.00    +0.352 C 
ATOM      6  O   UNL     1     -11.626  16.754  63.965  0.00  0.00    -0.248 OA
ATOM      7  N   UNL     1     -12.511  14.616  64.297  0.00  0.00    -0.125 NA
ATOM      8  C   UNL     1     -12.235  13.258  64.664  0.00  0.00    +0.257 C 
ATOM      9  O   UNL     1     -13.262  12.513  64.638  0.00  0.00    -0.272 OA
ENDROOT
BRANCH   1  10
ATOM     10  C   UNL     1     -11.744  12.326  66.874  0.00  0.00    +0.017 C 
ATOM     11  C   UNL     1     -10.305  11.831  67.473  0.00  0.00    +0.001 C 
BRANCH  10  13
ATOM     12  C   UNL     1     -12.013  13.783  68.356  0.00  0.00    +0.000 C 
ATOM     13  C   UNL     1     -11.647  13.772  67.631  0.00  0.00    +0.001 C 
ENDBRANCH  10  13
ENDBRANCH   1  10
BRANCH   1  14
ATOM     14  C   UNL     1     -10.187  11.852  64.957  0.00  0.00    +0.018 C 
ATOM     15  C   UNL     1     -10.111  11.771  63.479  0.00  0.00    +0.001 C 
ENDBRANCH   1  14
TORSDOF 3
ENDMDL
MODEL 2
REMARK VINA RESULT:      -5.4      0.561      3.343
REMARK  Name = 
REMARK  3 active torsions:
REMARK  status: ('A' for Active; 'I' for Inactive)
REMARK    1  A    between atoms: C_2  and  C_3
REMARK    2  A    between atoms: C_3  and  C_5
REMARK    3  A    between atoms: C_5  and  C_6
REMARK                            x       y       z     vdW  Elec       q    Type
REMARK                         _______ _______ _______ _____ _____    ______ ____
ROOT
ATOM      1  C   UNL     1     -10.960  13.135  65.938  0.00  0.00    +0.141 C 
ATOM      2  C   UNL     1     -11.984  13.286  64.886  0.00  0.00    +0.257 C 
ATOM      3  O   UNL     1     -12.887  12.398  64.815  0.00  0.00    -0.272 OA
ATOM      4  N   UNL     1     -12.439  14.616  64.608  0.00  0.00    -0.125 NA
ATOM      5  C   UNL     1     -11.493  15.662  64.580  0.00  0.00    +0.352 C 
ATOM      6  O   UNL     1     -11.700  16.701  63.895  0.00  0.00    -0.248 OA
ATOM      7  N   UNL     1     -10.238  15.455  65.227  0.00  0.00    -0.125 NA
ATOM      8  C   UNL     1     -10.083  14.305  66.069  0.00  0.00    +0.257 C 
ATOM      9  O   UNL     1      -8.911  14.184  66.542  0.00  0.00    -0.272 OA
ENDROOT
BRANCH   1  10
ATOM     10  C   UNL     1      -9.961  11.941  65.444  0.00  0.00    +0.017 C 
ATOM     11  C   UNL     1     -11.055  10.766  65.757  0.00  0.00    +0.001 C 
BRANCH  10  13
ATOM     12  C   UNL     1      -9.944  11.698  63.363  0.00  0.00    +0.000 C 
ATOM     13  C   UNL     1     -10.438  12.075  63.886  0.00  0.00    +0.001 C 
ENDBRANCH  10  13
ENDBRANCH   1  10
BRANCH   1  14
ATOM     14  C   UNL     1     -11.612  12.676  67.192  0.00  0.00    +0.018 C 
ATOM     15  C   UNL     1     -11.951  13.739  68.169  0.00  0.00    +0.001 C 
ENDBRANCH   1  14
TORSDOF 3
ENDMDL
MODEL 3
REMARK VINA RESULT:      -5.0      1.618      3.531
REMARK  Name = 
REMARK  3 active torsions:
REMARK  status: ('A' for Active; 'I' for Inactive)
REMARK    1  A    between atoms: C_2  and  C_3
REMARK    2  A    between atoms: C_3  and  C_5
REMARK    3  A    between atoms: C_5  and  C_6
REMARK                            x       y       z     vdW  Elec       q    Type
REMARK                         _______ _______ _______ _____ _____    ______ ____
ROOT
ATOM      1  C   UNL     1     -10.795  14.058  65.535  0.00  0.00    +0.141 C 
ATOM      2  C   UNL     1     -11.039  15.290  64.760  0.00  0.00    +0.257 C 
ATOM      3  O   UNL     1     -12.156  15.398  64.169  0.00  0.00    -0.272 OA
ATOM      4  N   UNL     1     -10.538  16.514  65.310  0.00  0.00    -0.125 NA
ATOM      5  C   UNL     1      -9.263  16.512  65.913  0.00  0.00    +0.352 C 
ATOM      6  O   UNL     1      -8.574  17.568  65.966  0.00  0.00    -0.248 OA
ATOM      7  N   UNL     1      -8.716  15.263  66.331  0.00  0.00    -0.125 NA
ATOM      8  C   UNL     1      -9.568  14.110  66.339  0.00  0.00    +0.257 C 
ATOM      9  O   UNL     1      -8.964  13.042  66.666  0.00  0.00    -0.272 OA
ENDROOT
BRANCH   1  10
ATOM     10  C   UNL     1     -10.509  12.874  64.447  0.00  0.00    +0.017 C 
ATOM     11  C   UNL     1     -10.803  11.680  65.525  0.00  0.00    +0.001 C 
BRANCH  10  13
ATOM     12  C   UNL     1     -12.237  12.240  63.445  0.00  0.00    +0.000 C 
ATOM     13  C   UNL     1     -12.054  12.878  63.914  0.00  0.00    +0.001 C 
ENDBRANCH  10  13
ENDBRANCH   1  10
BRANCH   1  14
ATOM     14  C   UNL     1     -12.032  13.692  66.273  0.00  0.00    +0.018 C 
ATOM     15  C   UNL     1     -12.129  14.199  67.661  0.00  0.00    +0.001 C 
ENDBRANCH   1  14
TORSDOF 3
ENDMDL
MODEL 4
REMARK VINA RESULT:      -4.8      1.672      2.177
REMARK  Name = 
REMARK  3 active torsions:
REMARK  status: ('A' for Active; 'I' for Inactive)
REMARK    1  A    between atoms: C_2  and  C_3
REMARK    2  A    between atoms: C_3  and  C_5
REMARK    3  A    between atoms: C_5  and  C_6
REMARK                            x       y       z     vdW  Elec       q    Type
REMARK                         _______ _______ _______ _____ _____    ______ ____
ROOT
ATOM      1  C   UNL     1     -10.331  13.012  66.867  0.00  0.00    +0.141 C 
ATOM      2  C   UNL     1     -10.175  14.207  66.014  0.00  0.00    +0.257 C 
ATOM      3  O   UNL     1      -9.097  14.866  66.120  0.00  0.00    -0.272 OA
ATOM      4  N   UNL     1     -10.689  14.124  64.679  0.00  0.00    -0.125 NA
ATOM      5  C   UNL     1     -11.928  13.482  64.470  0.00  0.00    +0.352 C 
ATOM      6  O   UNL     1     -12.652  13.784  63.482  0.00  0.00    -0.248 OA
ATOM      7  N   UNL     1     -12.406  12.593  65.478  0.00  0.00    -0.125 NA
ATOM      8  C   UNL     1     -11.514  12.209  66.533  0.00  0.00    +0.257 C 
ATOM      9  O   UNL     1     -12.059  11.468  67.406  0.00  0.00    -0.272 OA
ENDROOT
BRANCH   1  10
ATOM     10  C   UNL     1     -10.634  13.558  68.376  0.00  0.00    +0.017 C 
ATOM     11  C   UNL     1      -9.166  14.263  68.520  0.00  0.00    +0.001 C 
BRANCH  10  13
ATOM     12  C   UNL     1     -11.710  15.356  68.407  0.00  0.00    +0.000 C 
ATOM     13  C   UNL     1     -11.326  14.934  67.829  0.00  0.00    +0.001 C 
ENDBRANCH  10  13
ENDBRANCH   1  10
BRANCH   1  14
ATOM     14  C   UNL     1      -9.043  12.273  66.913  0.00  0.00    +0.018 C 
ATOM     15  C   UNL     1      -8.894  11.176  65.928  0.00  0.00    +0.001 C 
ENDBRANCH   1  14
TORSDOF 3
ENDMDL
MODEL 5
REMARK VINA RESULT:      -4.8      1.577      3.484
REMARK  Name = 
REMARK  3 active torsions:
REMARK  status: ('A' for Active; 'I' for Inactive)
REMARK    1  A    between atoms: C_2  and  C_3
REMARK    2  A    between atoms: C_3  and  C_5
REMARK    3  A    between atoms: C_5  and  C_6
REMARK                            x       y       z     vdW  Elec       q    Type
REMARK                         _______ _______ _______ _____ _____    ______ ____
ROOT
ATOM      1  C   UNL     1     -10.542  13.247  66.999  0.00  0.00    +0.141 C 
ATOM      2  C   UNL     1     -11.522  12.274  66.479  0.00  0.00    +0.257 C 
ATOM      3  O   UNL     1     -11.983  11.416  67.290  0.00  0.00    -0.272 OA
ATOM      4  N   UNL     1     -12.474  12.757  65.523  0.00  0.00    -0.125 NA
ATOM      5  C   UNL     1     -12.035  13.652  64.525  0.00  0.00    +0.352 C 
ATOM      6  O   UNL     1     -12.637  13.729  63.418  0.00  0.00    -0.248 OA
ATOM      7  N   UNL     1     -10.816  14.359  64.741  0.00  0.00    -0.125 NA
ATOM      8  C   UNL     1     -10.219  14.315  66.044  0.00  0.00    +0.257 C 
ATOM      9  O   UNL     1      -9.108  14.925  66.108  0.00  0.00    -0.272 OA
ENDROOT
BRANCH   1  10
ATOM     10  C   UNL     1      -9.135  12.437  67.180  0.00  0.00    +0.017 C 
ATOM     11  C   UNL     1      -9.741  11.453  68.339  0.00  0.00    +0.001 C 
BRANCH  10  13
ATOM     12  C   UNL     1      -8.860  10.938  65.742  0.00  0.00    +0.000 C 
ATOM     13  C   UNL     1      -9.496  11.379  65.987  0.00  0.00    +0.001 C 
ENDBRANCH  10  13
ENDBRANCH   1  10
BRANCH   1  14
ATOM     14  C   UNL     1     -10.971  13.698  68.348  0.00  0.00    +0.018 C 
ATOM     15  C   UNL     1     -11.750  14.958  68.389  0.00  0.00    +0.001 C 
ENDBRANCH   1  14
TORSDOF 3
ENDMDL
MODEL 6
REMARK VINA RESULT:      -4.7      3.925      5.412
REMARK  Name = 
REMARK  3 active torsions:
REMARK  status: ('A' for Active; 'I' for Inactive)
REMARK    1  A    between atoms: C_2  and  C_3
REMARK    2  A    between atoms: C_3  and  C_5
REMARK    3  A    between atoms: C_5  and  C_6
REMARK                            x       y       z     vdW  Elec       q    Type
REMARK                         _______ _______ _______ _____ _____    ______ ____
ROOT
ATOM      1  C   UNL     1      -9.386  17.469  67.644  0.00  0.00    +0.141 C 
ATOM      2  C   UNL     1      -8.867  17.370  66.266  0.00  0.00    +0.257 C 
ATOM      3  O   UNL     1      -7.807  18.009  65.992  0.00  0.00    -0.272 OA
ATOM      4  N   UNL     1      -8.973  16.095  65.622  0.00  0.00    -0.125 NA
ATOM      5  C   UNL     1     -10.154  15.344  65.798  0.00  0.00    +0.352 C 
ATOM      6  O   UNL     1     -10.523  14.507  64.929  0.00  0.00    -0.248 OA
ATOM      7  N   UNL     1     -10.994  15.657  66.908  0.00  0.00    -0.125 NA
ATOM      8  C   UNL     1     -10.493  16.544  67.918  0.00  0.00    +0.257 C 
ATOM      9  O   UNL     1     -11.343  16.803  68.824  0.00  0.00    -0.272 OA
ENDROOT
BRANCH   1  10
ATOM     10  C   UNL     1     -10.061  18.950  67.780  0.00  0.00    +0.017 C 
ATOM     11  C   UNL     1      -8.618  19.718  67.738  0.00  0.00    +0.001 C 
BRANCH  10  13
ATOM     12  C   UNL     1     -10.697  19.749  65.950  0.00  0.00    +0.000 C 
ATOM     13  C   UNL     1     -10.270  19.093  66.165  0.00  0.00    +0.001 C 
ENDBRANCH  10  13
ENDBRANCH   1  10
BRANCH   1  14
ATOM     14  C   UNL     1      -8.249  17.412  68.599  0.00  0.00    +0.018 C 
ATOM     15  C   UNL     1      -7.876  16.059  69.077  0.00  0.00    +0.001 C 
ENDBRANCH   1  14
TORSDOF 3
ENDMDL
MODEL 7
REMARK VINA RESULT:      -4.7      2.606      3.456
REMARK  Name = 
REMARK  3 active torsions:
REMARK  status: ('A' for Active; 'I' for Inactive)
REMARK    1  A    between atoms: C_2  and  C_3
REMARK    2  A    between atoms: C_3  and  C_5
REMARK    3  A    between atoms: C_5  and  C_6
REMARK                            x       y       z     vdW  Elec       q    Type
REMARK                         _______ _______ _______ _____ _____    ______ ____
ROOT
ATOM      1  C   UNL     1     -10.563  15.425  67.202  0.00  0.00    +0.141 C 
ATOM      2  C   UNL     1     -10.487  16.135  65.911  0.00  0.00    +0.257 C 
ATOM      3  O   UNL     1      -9.523  16.941  65.741  0.00  0.00    -0.272 OA
ATOM      4  N   UNL     1     -10.852  15.395  64.739  0.00  0.00    -0.125 NA
ATOM      5  C   UNL     1     -11.967  14.533  64.805  0.00  0.00    +0.352 C 
ATOM      6  O   UNL     1     -12.625  14.249  63.766  0.00  0.00    -0.248 OA
ATOM      7  N   UNL     1     -12.417  14.108  66.090  0.00  0.00    -0.125 NA
ATOM      8  C   UNL     1     -11.588  14.374  67.229  0.00  0.00    +0.257 C 
ATOM      9  O   UNL     1     -12.112  14.011  68.327  0.00  0.00    -0.272 OA
ENDROOT
BRANCH   1  10
ATOM     10  C   UNL     1     -11.083  16.517  68.301  0.00  0.00    +0.017 C 
ATOM     11  C   UNL     1     -10.441  15.696  69.562  0.00  0.00    +0.001 C 
BRANCH  10  13
ATOM     12  C   UNL     1      -9.724  18.075  68.642  0.00  0.00    +0.000 C 
ATOM     13  C   UNL     1      -9.749  17.446  68.129  0.00  0.00    +0.001 C 
ENDBRANCH  10  13
ENDBRANCH   1  10
BRANCH   1  14
ATOM     14  C   UNL     1      -9.198  15.003  67.609  0.00  0.00    +0.018 C 
ATOM     15  C   UNL     1      -8.746  13.693  67.085  0.00  0.00    +0.001 C 
ENDBRANCH   1  14
TORSDOF 3
ENDMDL
MODEL 8
REMARK VINA RESULT:      -4.7      2.160      3.688
REMARK  Name = 
REMARK  3 active torsions:
REMARK  status: ('A' for Active; 'I' for Inactive)
REMARK    1  A    between atoms: C_2  and  C_3
REMARK    2  A    between atoms: C_3  and  C_5
REMARK    3  A    between atoms: C_5  and  C_6
REMARK                            x       y       z     vdW  Elec       q    Type
REMARK                         _______ _______ _______ _____ _____    ______ ____
ROOT
ATOM      1  C   UNL     1     -10.278  13.644  66.444  0.00  0.00    +0.141 C 
ATOM      2  C   UNL     1     -11.601  13.381  67.043  0.00  0.00    +0.257 C 
ATOM      3  O   UNL     1     -12.056  12.201  66.963  0.00  0.00    -0.272 OA
ATOM      4  N   UNL     1     -11.901  14.049  68.275  0.00  0.00    -0.125 NA
ATOM      5  C   UNL     1     -11.509  15.396  68.427  0.00  0.00    +0.352 C 
ATOM      6  O   UNL     1     -12.129  16.163  69.213  0.00  0.00    -0.248 OA
ATOM      7  N   UNL     1     -10.490  15.904  67.567  0.00  0.00    -0.125 NA
ATOM      8  C   UNL     1      -9.751  14.978  66.759  0.00  0.00    +0.257 C 
ATOM      9  O   UNL     1      -8.915  15.541  65.987  0.00  0.00    -0.272 OA
ENDROOT
BRANCH   1  10
ATOM     10  C   UNL     1     -10.501  13.676  64.826  0.00  0.00    +0.017 C 
ATOM     11  C   UNL     1     -10.918  12.096  64.756  0.00  0.00    +0.001 C 
BRANCH  10  13
ATOM     12  C   UNL     1     -12.334  14.554  64.314  0.00  0.00    +0.000 C 
ATOM     13  C   UNL     1     -12.056  14.159  64.967  0.00  0.00    +0.001 C 
ENDBRANCH  10  13
ENDBRANCH   1  10
BRANCH   1  14
ATOM     14  C   UNL     1      -9.371  12.506  66.744  0.00  0.00    +0.018 C 
ATOM     15  C   UNL     1      -8.589  12.619  67.997  0.00  0.00    +0.001 C 
ENDBRANCH   1  14
TORSDOF 3
ENDMDL
MODEL 9
REMARK VINA RESULT:      -4.6      2.779      3.698
REMARK  Name = 
REMARK  3 active torsions:
REMARK  status: ('A' for Active; 'I' for Inactive)
REMARK    1  A    between atoms: C_2  and  C_3
REMARK    2  A    between atoms: C_3  and  C_5
REMARK    3  A    between atoms: C_5  and  C_6
REMARK                            x       y       z     vdW  Elec       q    Type
REMARK                         _______ _______ _______ _____ _____    ______ ____
ROOT
ATOM      1  C   UNL     1     -10.461  15.767  67.349  0.00  0.00    +0.141 C 
ATOM      2  C   UNL     1     -10.986  16.908  68.124  0.00  0.00    +0.257 C 
ATOM      3  O   UNL     1     -11.096  16.763  69.379  0.00  0.00    -0.272 OA
ATOM      4  N   UNL     1     -10.575  18.218  67.713  0.00  0.00    -0.125 NA
ATOM      5  C   UNL     1     -10.505  18.502  66.333  0.00  0.00    +0.352 C 
ATOM      6  O   UNL     1     -10.637  19.684  65.911  0.00  0.00    -0.248 OA
ATOM      7  N   UNL     1     -10.427  17.409  65.421  0.00  0.00    -0.125 NA
ATOM      8  C   UNL     1     -10.184  16.096  65.945  0.00  0.00    +0.257 C 
ATOM      9  O   UNL     1     -10.197  15.191  65.055  0.00  0.00    -0.272 OA
ENDROOT
BRANCH   1  10
ATOM     10  C   UNL     1     -11.665  14.667  67.270  0.00  0.00    +0.017 C 
ATOM     11  C   UNL     1     -10.658  13.453  66.838  0.00  0.00    +0.001 C 
BRANCH  10  13
ATOM     12  C   UNL     1     -11.981  13.651  69.076  0.00  0.00    +0.000 C 
ATOM     13  C   UNL     1     -11.545  14.302  68.859  0.00  0.00    +0.001 C 
ENDBRANCH  10  13
ENDBRANCH   1  10
BRANCH   1  14
ATOM     14  C   UNL     1      -9.339  15.144  68.097  0.00  0.00    +0.018 C 
ATOM     15  C   UNL     1      -7.994  15.705  67.828  0.00  0.00    +0.001 C 
ENDBRANCH   1  14
TORSDOF 3
ENDMDL
