MODEL 1
REMARK VINA RESULT:      -7.0      0.000      0.000
REMARK  Name = 
REMARK  5 active torsions:
REMARK  status: ('A' for Active; 'I' for Inactive)
REMARK    1  A    between atoms: C_2  and  C_3
REMARK    2  A    between atoms: C_4  and  C_5
REMARK    3  A    between atoms: C_14  and  C_15
REMARK    4  A    between atoms: C_16  and  C_17
REMARK    5  A    between atoms: C_19  and  C_20
REMARK                            x       y       z     vdW  Elec       q    Type
REMARK                         _______ _______ _______ _____ _____    ______ ____
ROOT
ATOM      1  C   UNL     1     -11.119  10.868  68.062  0.00  0.00    -0.005 C 
ATOM      2  C   UNL     1     -11.680  11.417  66.983  0.00  0.00    -0.005 C 
ENDROOT
BRANCH   2   3
ATOM      3  C   UNL     1     -10.854  12.150  66.008  0.00  0.00    -0.031 C 
ATOM      4  C   UNL     1     -11.360  13.520  65.668  0.00  0.00    +0.018 C 
ATOM      5  C   UNL     1     -10.183  14.322  65.180  0.00  0.00    +0.004 C 
ATOM      6  C   UNL     1     -12.016  14.129  66.877  0.00  0.00    +0.004 C 
ATOM      7  C   UNL     1     -12.397  13.335  64.592  0.00  0.00    +0.004 C 
ATOM      8  C   UNL     1     -11.980  12.384  63.510  0.00  0.00    +0.005 C 
ATOM      9  C   UNL     1     -10.516  12.006  63.577  0.00  0.00    +0.022 C 
ATOM     10  C   UNL     1     -10.277  11.528  64.977  0.00  0.00    -0.048 C 
ATOM     11  C   UNL     1      -9.887  10.107  65.185  0.00  0.00    +0.026 C 
ENDBRANCH   2   3
BRANCH   1  13
ATOM     12  C   UNL     1     -11.185  10.229  70.548  0.00  0.00    +0.031 C 
ATOM     13  C   UNL     1     -11.630  11.098  69.417  0.00  0.00    -0.022 C 
ATOM     14  C   UNL     1     -12.094  12.290  69.720  0.00  0.00    -0.004 C 
BRANCH  14  15
ATOM     15  C   UNL     1     -12.248  12.793  71.075  0.00  0.00    -0.001 C 
ATOM     16  C   UNL     1     -13.398  13.106  71.624  0.00  0.00    -0.005 C 
BRANCH  16  17
ATOM     17  C   UNL     1     -13.624  14.300  72.424  0.00  0.00    -0.024 C 
ATOM     18  C   UNL     1     -12.815  14.718  73.376  0.00  0.00    +0.005 C 
ATOM     19  C   UNL     1     -14.613  15.299  71.910  0.00  0.00    +0.031 C 
BRANCH  18  20
ATOM     20  C   UNL     1     -12.437  16.127  73.592  0.00  0.00    +0.208 C 
ATOM     21  O   UNL     1     -12.513  16.514  74.932  0.00  0.00    -0.215 OA
ENDBRANCH  18  20
ENDBRANCH  16  17
ENDBRANCH  14  15
ENDBRANCH   1  13
TORSDOF 5
ENDMDL
MODEL 2
REMARK VINA RESULT:      -6.2      3.611      7.464
REMARK  Name = 
REMARK  5 active torsions:
REMARK  status: ('A' for Active; 'I' for Inactive)
REMARK    1  A    between atoms: C_2  and  C_3
REMARK    2  A    between atoms: C_4  and  C_5
REMARK    3  A    between atoms: C_14  and  C_15
REMARK    4  A    between atoms: C_16  and  C_17
REMARK    5  A    between atoms: C_19  and  C_20
REMARK                            x       y       z     vdW  Elec       q    Type
REMARK                         _______ _______ _______ _____ _____    ______ ____
ROOT
ATOM      1  C   UNL     1     -10.827   9.738  69.444  0.00  0.00    -0.005 C 
ATOM      2  C   UNL     1     -10.578   9.883  70.746  0.00  0.00    -0.005 C 
ENDROOT
BRANCH   2   3
ATOM      3  C   UNL     1     -11.123   8.920  71.719  0.00  0.00    -0.031 C 
ATOM      4  C   UNL     1     -10.227   7.753  72.011  0.00  0.00    +0.018 C 
ATOM      5  C   UNL     1     -10.608   7.226  73.369  0.00  0.00    +0.004 C 
ATOM      6  C   UNL     1      -8.790   8.192  71.940  0.00  0.00    +0.004 C 
ATOM      7  C   UNL     1     -10.482   6.741  70.925  0.00  0.00    +0.004 C 
ATOM      8  C   UNL     1     -11.937   6.532  70.625  0.00  0.00    +0.005 C 
ATOM      9  C   UNL     1     -12.856   7.177  71.639  0.00  0.00    +0.022 C 
ATOM     10  C   UNL     1     -12.421   8.608  71.737  0.00  0.00    -0.048 C 
ATOM     11  C   UNL     1     -13.372   9.670  71.307  0.00  0.00    +0.026 C 
ENDBRANCH   2   3
BRANCH   1  13
ATOM     12  C   UNL     1     -11.605  12.174  69.217  0.00  0.00    +0.031 C 
ATOM     13  C   UNL     1     -11.346  10.831  68.616  0.00  0.00    -0.022 C 
ATOM     14  C   UNL     1     -11.157  10.780  67.316  0.00  0.00    -0.004 C 
BRANCH  14  15
ATOM     15  C   UNL     1     -11.234  11.927  66.428  0.00  0.00    -0.001 C 
ATOM     16  C   UNL     1     -10.217  12.421  65.762  0.00  0.00    -0.005 C 
BRANCH  16  17
ATOM     17  C   UNL     1      -9.933  13.842  65.638  0.00  0.00    -0.024 C 
ATOM     18  C   UNL     1     -10.617  14.671  64.876  0.00  0.00    +0.005 C 
ATOM     19  C   UNL     1      -9.073  14.469  66.690  0.00  0.00    +0.031 C 
BRANCH  18  20
ATOM     20  C   UNL     1     -11.023  16.031  65.274  0.00  0.00    +0.208 C 
ATOM     21  O   UNL     1     -11.327  16.851  64.185  0.00  0.00    -0.215 OA
ENDBRANCH  18  20
ENDBRANCH  16  17
ENDBRANCH  14  15
ENDBRANCH   1  13
TORSDOF 5
ENDMDL
MODEL 3
REMARK VINA RESULT:      -6.1      3.762      7.713
REMARK  Name = 
REMARK  5 active torsions:
REMARK  status: ('A' for Active; 'I' for Inactive)
REMARK    1  A    between atoms: C_2  and  C_3
REMARK    2  A    between atoms: C_4  and  C_5
REMARK    3  A    between atoms: C_14  and  C_15
REMARK    4  A    between atoms: C_16  and  C_17
REMARK    5  A    between atoms: C_19  and  C_20
REMARK                            x       y       z     vdW  Elec       q    Type
REMARK                         _______ _______ _______ _____ _____    ______ ____
ROOT
ATOM      1  C   UNL     1     -12.061  11.661  70.250  0.00  0.00    -0.005 C 
ATOM      2  C   UNL     1     -12.156  10.331  70.198  0.00  0.00    -0.005 C 
ENDROOT
BRANCH   2   3
ATOM      3  C   UNL     1     -11.419   9.495  71.161  0.00  0.00    -0.031 C 
ATOM      4  C   UNL     1     -10.145   8.908  70.630  0.00  0.00    +0.018 C 
ATOM      5  C   UNL     1      -9.261   8.615  71.813  0.00  0.00    +0.004 C 
ATOM      6  C   UNL     1      -9.514   9.868  69.658  0.00  0.00    +0.004 C 
ATOM      7  C   UNL     1     -10.531   7.652  69.893  0.00  0.00    +0.004 C 
ATOM      8  C   UNL     1     -11.516   6.797  70.634  0.00  0.00    +0.005 C 
ATOM      9  C   UNL     1     -11.724   7.230  72.069  0.00  0.00    +0.022 C 
ATOM     10  C   UNL     1     -12.057   8.690  72.015  0.00  0.00    -0.048 C 
ATOM     11  C   UNL     1     -13.404   9.129  72.469  0.00  0.00    +0.026 C 
ENDBRANCH   2   3
BRANCH   1  13
ATOM     12  C   UNL     1     -10.810  13.639  69.194  0.00  0.00    +0.031 C 
ATOM     13  C   UNL     1     -11.738  12.473  69.074  0.00  0.00    -0.022 C 
ATOM     14  C   UNL     1     -11.879  11.938  67.881  0.00  0.00    -0.004 C 
BRANCH  14  15
ATOM     15  C   UNL     1     -11.239  12.435  66.675  0.00  0.00    -0.001 C 
ATOM     16  C   UNL     1     -11.879  12.782  65.584  0.00  0.00    -0.005 C 
BRANCH  16  17
ATOM     17  C   UNL     1     -11.454  12.427  64.238  0.00  0.00    -0.024 C 
ATOM     18  C   UNL     1     -10.206  12.186  63.895  0.00  0.00    +0.005 C 
ATOM     19  C   UNL     1     -12.506  11.954  63.284  0.00  0.00    +0.031 C 
BRANCH  18  20
ATOM     20  C   UNL     1      -9.781  11.092  63.002  0.00  0.00    +0.208 C 
ATOM     21  O   UNL     1      -9.534   9.897  63.682  0.00  0.00    -0.215 OA
ENDBRANCH  18  20
ENDBRANCH  16  17
ENDBRANCH  14  15
ENDBRANCH   1  13
TORSDOF 5
ENDMDL
MODEL 4
REMARK VINA RESULT:      -6.0      3.205      5.397
REMARK  Name = 
REMARK  5 active torsions:
REMARK  status: ('A' for Active; 'I' for Inactive)
REMARK    1  A    between atoms: C_2  and  C_3
REMARK    2  A    between atoms: C_4  and  C_5
REMARK    3  A    between atoms: C_14  and  C_15
REMARK    4  A    between atoms: C_16  and  C_17
REMARK    5  A    between atoms: C_19  and  C_20
REMARK                            x       y       z     vdW  Elec       q    Type
REMARK                         _______ _______ _______ _____ _____    ______ ____
ROOT
ATOM      1  C   UNL     1     -11.968  13.872  70.158  0.00  0.00    -0.005 C 
ATOM      2  C   UNL     1     -11.155  13.751  69.108  0.00  0.00    -0.005 C 
ENDROOT
BRANCH   2   3
ATOM      3  C   UNL     1     -11.525  14.342  67.810  0.00  0.00    -0.031 C 
ATOM      4  C   UNL     1     -11.415  13.404  66.645  0.00  0.00    +0.018 C 
ATOM      5  C   UNL     1     -12.340  13.915  65.572  0.00  0.00    +0.004 C 
ATOM      6  C   UNL     1     -11.757  12.007  67.088  0.00  0.00    +0.004 C 
ATOM      7  C   UNL     1      -9.976  13.438  66.206  0.00  0.00    +0.004 C 
ATOM      8  C   UNL     1      -9.401  14.822  66.130  0.00  0.00    +0.005 C 
ATOM      9  C   UNL     1     -10.443  15.910  66.256  0.00  0.00    +0.022 C 
ATOM     10  C   UNL     1     -11.212  15.604  67.505  0.00  0.00    -0.048 C 
ATOM     11  C   UNL     1     -11.144  16.569  68.635  0.00  0.00    +0.026 C 
ENDBRANCH   2   3
BRANCH   1  13
ATOM     12  C   UNL     1     -13.437  12.879  72.016  0.00  0.00    +0.031 C 
ATOM     13  C   UNL     1     -12.384  12.722  70.967  0.00  0.00    -0.022 C 
ATOM     14  C   UNL     1     -12.186  11.513  70.489  0.00  0.00    -0.004 C 
BRANCH  14  15
ATOM     15  C   UNL     1     -12.881  10.323  70.949  0.00  0.00    -0.001 C 
ATOM     16  C   UNL     1     -12.358   9.416  71.740  0.00  0.00    -0.005 C 
BRANCH  16  17
ATOM     17  C   UNL     1     -12.502   7.981  71.548  0.00  0.00    -0.024 C 
ATOM     18  C   UNL     1     -11.512   7.117  71.650  0.00  0.00    +0.005 C 
ATOM     19  C   UNL     1     -13.885   7.412  71.601  0.00  0.00    +0.031 C 
BRANCH  18  20
ATOM     20  C   UNL     1     -11.614   5.805  72.316  0.00  0.00    +0.208 C 
ATOM     21  O   UNL     1     -10.926   5.754  73.530  0.00  0.00    -0.215 OA
ENDBRANCH  18  20
ENDBRANCH  16  17
ENDBRANCH  14  15
ENDBRANCH   1  13
TORSDOF 5
ENDMDL
MODEL 5
REMARK VINA RESULT:      -6.0      3.485      4.554
REMARK  Name = 
REMARK  5 active torsions:
REMARK  status: ('A' for Active; 'I' for Inactive)
REMARK    1  A    between atoms: C_2  and  C_3
REMARK    2  A    between atoms: C_4  and  C_5
REMARK    3  A    between atoms: C_14  and  C_15
REMARK    4  A    between atoms: C_16  and  C_17
REMARK    5  A    between atoms: C_19  and  C_20
REMARK                            x       y       z     vdW  Elec       q    Type
REMARK                         _______ _______ _______ _____ _____    ______ ____
ROOT
ATOM      1  C   UNL     1     -10.035  10.502  67.647  0.00  0.00    -0.005 C 
ATOM      2  C   UNL     1     -10.833  10.799  66.620  0.00  0.00    -0.005 C 
ENDROOT
BRANCH   2   3
ATOM      3  C   UNL     1     -10.446  11.845  65.657  0.00  0.00    -0.031 C 
ATOM      4  C   UNL     1     -11.313  13.068  65.683  0.00  0.00    +0.018 C 
ATOM      5  C   UNL     1     -10.496  14.207  65.134  0.00  0.00    +0.004 C 
ATOM      6  C   UNL     1     -11.788  13.319  67.089  0.00  0.00    +0.004 C 
ATOM      7  C   UNL     1     -12.504  12.763  64.815  0.00  0.00    +0.004 C 
ATOM      8  C   UNL     1     -12.149  12.105  63.514  0.00  0.00    +0.005 C 
ATOM      9  C   UNL     1     -10.665  12.117  63.223  0.00  0.00    +0.022 C 
ATOM     10  C   UNL     1     -10.003  11.537  64.435  0.00  0.00    -0.048 C 
ATOM     11  C   UNL     1      -9.264  10.252  64.295  0.00  0.00    +0.026 C 
ENDBRANCH   2   3
BRANCH   1  13
ATOM     12  C   UNL     1     -11.941  10.791  69.344  0.00  0.00    +0.031 C 
ATOM     13  C   UNL     1     -10.521  10.448  69.029  0.00  0.00    -0.022 C 
ATOM     14  C   UNL     1      -9.879   9.691  69.892  0.00  0.00    -0.004 C 
BRANCH  14  15
ATOM     15  C   UNL     1     -10.441   9.215  71.145  0.00  0.00    -0.001 C 
ATOM     16  C   UNL     1     -10.619   7.950  71.446  0.00  0.00    -0.005 C 
BRANCH  16  17
ATOM     17  C   UNL     1     -11.816   7.421  72.080  0.00  0.00    -0.024 C 
ATOM     18  C   UNL     1     -12.990   8.018  72.062  0.00  0.00    +0.005 C 
ATOM     19  C   UNL     1     -11.817   5.971  72.452  0.00  0.00    +0.031 C 
BRANCH  18  20
ATOM     20  C   UNL     1     -14.276   7.328  71.848  0.00  0.00    +0.208 C 
ATOM     21  O   UNL     1     -15.372   8.063  72.302  0.00  0.00    -0.215 OA
ENDBRANCH  18  20
ENDBRANCH  16  17
ENDBRANCH  14  15
ENDBRANCH   1  13
TORSDOF 5
ENDMDL
MODEL 6
REMARK VINA RESULT:      -5.9      3.652      6.783
REMARK  Name = 
REMARK  5 active torsions:
REMARK  status: ('A' for Active; 'I' for Inactive)
REMARK    1  A    between atoms: C_2  and  C_3
REMARK    2  A    between atoms: C_4  and  C_5
REMARK    3  A    between atoms: C_14  and  C_15
REMARK    4  A    between atoms: C_16  and  C_17
REMARK    5  A    between atoms: C_19  and  C_20
REMARK                            x       y       z     vdW  Elec       q    Type
REMARK                         _______ _______ _______ _____ _____    ______ ____
ROOT
ATOM      1  C   UNL     1     -12.777  11.447  71.063  0.00  0.00    -0.005 C 
ATOM      2  C   UNL     1     -12.175  10.399  70.500  0.00  0.00    -0.005 C 
ENDROOT
BRANCH   2   3
ATOM      3  C   UNL     1     -11.503   9.390  71.337  0.00  0.00    -0.031 C 
ATOM      4  C   UNL     1     -10.240   8.834  70.750  0.00  0.00    +0.018 C 
ATOM      5  C   UNL     1      -9.405   8.320  71.892  0.00  0.00    +0.004 C 
ATOM      6  C   UNL     1      -9.540   9.903  69.955  0.00  0.00    +0.004 C 
ATOM      7  C   UNL     1     -10.656   7.727  69.817  0.00  0.00    +0.004 C 
ATOM      8  C   UNL     1     -11.698   6.814  70.393  0.00  0.00    +0.005 C 
ATOM      9  C   UNL     1     -11.930   7.028  71.872  0.00  0.00    +0.022 C 
ATOM     10  C   UNL     1     -12.199   8.493  72.040  0.00  0.00    -0.048 C 
ATOM     11  C   UNL     1     -13.540   8.918  72.527  0.00  0.00    +0.026 C 
ENDBRANCH   2   3
BRANCH   1  13
ATOM     12  C   UNL     1     -12.716  13.960  71.588  0.00  0.00    +0.031 C 
ATOM     13  C   UNL     1     -12.518  12.826  70.636  0.00  0.00    -0.022 C 
ATOM     14  C   UNL     1     -11.708  13.028  69.620  0.00  0.00    -0.004 C 
BRANCH  14  15
ATOM     15  C   UNL     1     -11.042  14.287  69.337  0.00  0.00    -0.001 C 
ATOM     16  C   UNL     1     -11.467  15.174  68.467  0.00  0.00    -0.005 C 
BRANCH  16  17
ATOM     17  C   UNL     1     -10.608  15.871  67.523  0.00  0.00    -0.024 C 
ATOM     18  C   UNL     1     -10.686  15.742  66.214  0.00  0.00    +0.005 C 
ATOM     19  C   UNL     1      -9.853  17.062  68.025  0.00  0.00    +0.031 C 
BRANCH  18  20
ATOM     20  C   UNL     1     -10.587  16.858  65.256  0.00  0.00    +0.208 C 
ATOM     21  O   UNL     1     -11.406  16.692  64.138  0.00  0.00    -0.215 OA
ENDBRANCH  18  20
ENDBRANCH  16  17
ENDBRANCH  14  15
ENDBRANCH   1  13
TORSDOF 5
ENDMDL
MODEL 7
REMARK VINA RESULT:      -5.9      4.574      5.999
REMARK  Name = 
REMARK  5 active torsions:
REMARK  status: ('A' for Active; 'I' for Inactive)
REMARK    1  A    between atoms: C_2  and  C_3
REMARK    2  A    between atoms: C_4  and  C_5
REMARK    3  A    between atoms: C_14  and  C_15
REMARK    4  A    between atoms: C_16  and  C_17
REMARK    5  A    between atoms: C_19  and  C_20
REMARK                            x       y       z     vdW  Elec       q    Type
REMARK                         _______ _______ _______ _____ _____    ______ ____
ROOT
ATOM      1  C   UNL     1      -9.679  17.288  67.850  0.00  0.00    -0.005 C 
ATOM      2  C   UNL     1      -9.250  18.315  68.585  0.00  0.00    -0.005 C 
ENDROOT
BRANCH   2   3
ATOM      3  C   UNL     1      -7.946  18.938  68.304  0.00  0.00    -0.031 C 
ATOM      4  C   UNL     1      -7.968  19.965  67.212  0.00  0.00    +0.018 C 
ATOM      5  C   UNL     1      -6.797  20.885  67.439  0.00  0.00    +0.004 C 
ATOM      6  C   UNL     1      -9.286  20.690  67.229  0.00  0.00    +0.004 C 
ATOM      7  C   UNL     1      -7.844  19.210  65.915  0.00  0.00    +0.004 C 
ATOM      8  C   UNL     1      -6.791  18.142  65.938  0.00  0.00    +0.005 C 
ATOM      9  C   UNL     1      -5.897  18.209  67.156  0.00  0.00    +0.022 C 
ATOM     10  C   UNL     1      -6.814  18.230  68.341  0.00  0.00    -0.048 C 
ATOM     11  C   UNL     1      -6.770  17.087  69.293  0.00  0.00    +0.026 C 
ENDBRANCH   2   3
BRANCH   1  13
ATOM     12  C   UNL     1      -9.223  15.155  69.203  0.00  0.00    +0.031 C 
ATOM     13  C   UNL     1     -10.161  16.040  68.448  0.00  0.00    -0.022 C 
ATOM     14  C   UNL     1     -11.443  15.922  68.712  0.00  0.00    -0.004 C 
BRANCH  14  15
ATOM     15  C   UNL     1     -12.006  14.961  69.645  0.00  0.00    -0.001 C 
ATOM     16  C   UNL     1     -12.827  15.267  70.622  0.00  0.00    -0.005 C 
BRANCH  16  17
ATOM     17  C   UNL     1     -12.729  14.730  71.970  0.00  0.00    -0.024 C 
ATOM     18  C   UNL     1     -12.005  15.267  72.931  0.00  0.00    +0.005 C 
ATOM     19  C   UNL     1     -13.773  13.747  72.400  0.00  0.00    +0.031 C 
BRANCH  18  20
ATOM     20  C   UNL     1     -12.446  15.409  74.331  0.00  0.00    +0.208 C 
ATOM     21  O   UNL     1     -12.423  16.731  74.779  0.00  0.00    -0.215 OA
ENDBRANCH  18  20
ENDBRANCH  16  17
ENDBRANCH  14  15
ENDBRANCH   1  13
TORSDOF 5
ENDMDL
MODEL 8
REMARK VINA RESULT:      -5.9      5.146      6.792
REMARK  Name = 
REMARK  5 active torsions:
REMARK  status: ('A' for Active; 'I' for Inactive)
REMARK    1  A    between atoms: C_2  and  C_3
REMARK    2  A    between atoms: C_4  and  C_5
REMARK    3  A    between atoms: C_14  and  C_15
REMARK    4  A    between atoms: C_16  and  C_17
REMARK    5  A    between atoms: C_19  and  C_20
REMARK                            x       y       z     vdW  Elec       q    Type
REMARK                         _______ _______ _______ _____ _____    ______ ____
ROOT
ATOM      1  C   UNL     1      -9.274  17.378  67.766  0.00  0.00    -0.005 C 
ATOM      2  C   UNL     1      -8.462  18.086  68.553  0.00  0.00    -0.005 C 
ENDROOT
BRANCH   2   3
ATOM      3  C   UNL     1      -7.105  18.434  68.098  0.00  0.00    -0.031 C 
ATOM      4  C   UNL     1      -6.003  17.928  68.981  0.00  0.00    +0.018 C 
ATOM      5  C   UNL     1      -4.761  17.831  68.135  0.00  0.00    +0.004 C 
ATOM      6  C   UNL     1      -6.402  16.606  69.578  0.00  0.00    +0.004 C 
ATOM      7  C   UNL     1      -5.849  18.936  70.088  0.00  0.00    +0.004 C 
ATOM      8  C   UNL     1      -5.856  20.359  69.613  0.00  0.00    +0.005 C 
ATOM      9  C   UNL     1      -5.754  20.489  68.110  0.00  0.00    +0.022 C 
ATOM     10  C   UNL     1      -6.838  19.621  67.547  0.00  0.00    -0.048 C 
ATOM     11  C   UNL     1      -7.940  20.266  66.782  0.00  0.00    +0.026 C 
ENDBRANCH   2   3
BRANCH   1  13
ATOM     12  C   UNL     1      -9.196  14.945  68.581  0.00  0.00    +0.031 C 
ATOM     13  C   UNL     1      -9.969  16.175  68.232  0.00  0.00    -0.022 C 
ATOM     14  C   UNL     1     -11.164  16.305  68.765  0.00  0.00    -0.004 C 
BRANCH  14  15
ATOM     15  C   UNL     1     -11.796  15.315  69.620  0.00  0.00    -0.001 C 
ATOM     16  C   UNL     1     -12.619  15.598  70.602  0.00  0.00    -0.005 C 
BRANCH  16  17
ATOM     17  C   UNL     1     -12.577  14.968  71.913  0.00  0.00    -0.024 C 
ATOM     18  C   UNL     1     -11.939  15.464  72.953  0.00  0.00    +0.005 C 
ATOM     19  C   UNL     1     -13.597  13.912  72.204  0.00  0.00    +0.031 C 
BRANCH  18  20
ATOM     20  C   UNL     1     -12.470  15.482  74.329  0.00  0.00    +0.208 C 
ATOM     21  O   UNL     1     -12.450  16.754  74.905  0.00  0.00    -0.215 OA
ENDBRANCH  18  20
ENDBRANCH  16  17
ENDBRANCH  14  15
ENDBRANCH   1  13
TORSDOF 5
ENDMDL
MODEL 9
REMARK VINA RESULT:      -5.9      6.205      8.528
REMARK  Name = 
REMARK  5 active torsions:
REMARK  status: ('A' for Active; 'I' for Inactive)
REMARK    1  A    between atoms: C_2  and  C_3
REMARK    2  A    between atoms: C_4  and  C_5
REMARK    3  A    between atoms: C_14  and  C_15
REMARK    4  A    between atoms: C_16  and  C_17
REMARK    5  A    between atoms: C_19  and  C_20
REMARK                            x       y       z     vdW  Elec       q    Type
REMARK                         _______ _______ _______ _____ _____    ______ ____
ROOT
ATOM      1  C   UNL     1      -8.425  19.342  68.346  0.00  0.00    -0.005 C 
ATOM      2  C   UNL     1      -7.314  18.739  68.770  0.00  0.00    -0.005 C 
ENDROOT
BRANCH   2   3
ATOM      3  C   UNL     1      -6.034  18.968  68.079  0.00  0.00    -0.031 C 
ATOM      4  C   UNL     1      -5.356  20.258  68.432  0.00  0.00    +0.018 C 
ATOM      5  C   UNL     1      -3.887  20.083  68.149  0.00  0.00    +0.004 C 
ATOM      6  C   UNL     1      -5.633  20.595  69.872  0.00  0.00    +0.004 C 
ATOM      7  C   UNL     1      -5.973  21.316  67.557  0.00  0.00    +0.004 C 
ATOM      8  C   UNL     1      -6.125  20.899  66.123  0.00  0.00    +0.005 C 
ATOM      9  C   UNL     1      -5.397  19.614  65.793  0.00  0.00    +0.022 C 
ATOM     10  C   UNL     1      -5.857  18.609  66.804  0.00  0.00    -0.048 C 
ATOM     11  C   UNL     1      -6.622  17.424  66.330  0.00  0.00    +0.026 C 
ENDBRANCH   2   3
BRANCH   1  13
ATOM     12  C   UNL     1     -10.528  18.975  66.918  0.00  0.00    +0.031 C 
ATOM     13  C   UNL     1      -9.666  18.608  68.082  0.00  0.00    -0.022 C 
ATOM     14  C   UNL     1      -9.790  17.389  68.560  0.00  0.00    -0.004 C 
BRANCH  14  15
ATOM     15  C   UNL     1     -10.738  16.404  68.068  0.00  0.00    -0.001 C 
ATOM     16  C   UNL     1     -10.441  15.152  67.808  0.00  0.00    -0.005 C 
BRANCH  16  17
ATOM     17  C   UNL     1     -10.893  14.433  66.627  0.00  0.00    -0.024 C 
ATOM     18  C   UNL     1     -12.060  13.829  66.528  0.00  0.00    +0.005 C 
ATOM     19  C   UNL     1     -10.173  14.693  65.342  0.00  0.00    +0.031 C 
BRANCH  18  20
ATOM     20  C   UNL     1     -12.925  13.872  65.335  0.00  0.00    +0.208 C 
ATOM     21  O   UNL     1     -13.180  12.607  64.800  0.00  0.00    -0.215 OA
ENDBRANCH  18  20
ENDBRANCH  16  17
ENDBRANCH  14  15
ENDBRANCH   1  13
TORSDOF 5
ENDMDL
