MODEL 1
REMARK VINA RESULT:      -3.9      0.000      0.000
REMARK  Name = 
REMARK  0 active torsions:
REMARK  status: ('A' for Active; 'I' for Inactive)
REMARK                            x       y       z     vdW  Elec       q    Type
REMARK                         _______ _______ _______ _____ _____    ______ ____
ROOT
ATOM      1  C   UNL     1      -8.376  19.582  66.250  0.00  0.00    +0.154 C 
ATOM      2  N   UNL     1      -8.687  20.020  67.589  0.00  0.00    -0.230 NA
ATOM      3  C   UNL     1      -8.133  19.173  68.614  0.00  0.00    +0.154 C 
ATOM      4  N   UNL     1      -8.682  17.842  68.409  0.00  0.00    -0.230 NA
ATOM      5  C   UNL     1     -10.131  17.834  68.561  0.00  0.00    +0.154 C 
ATOM      6  N   UNL     1     -10.725  18.735  67.583  0.00  0.00    -0.230 NA
ATOM      7  C   UNL     1     -10.424  18.312  66.219  0.00  0.00    +0.154 C 
ATOM      8  C   UNL     1      -8.359  17.408  67.067  0.00  0.00    +0.154 C 
ATOM      9  C   UNL     1     -10.118  20.038  67.755  0.00  0.00    +0.154 C 
ATOM     10  N   UNL     1      -8.984  18.280  66.077  0.00  0.00    -0.230 NA
ENDROOT
TORSDOF 0
ENDMDL
MODEL 2
REMARK VINA RESULT:      -3.9      0.105      2.227
REMARK  Name = 
REMARK  0 active torsions:
REMARK  status: ('A' for Active; 'I' for Inactive)
REMARK                            x       y       z     vdW  Elec       q    Type
REMARK                         _______ _______ _______ _____ _____    ______ ____
ROOT
ATOM      1  C   UNL     1      -8.361  17.269  67.011  0.00  0.00    +0.154 C 
ATOM      2  N   UNL     1      -8.917  18.213  66.073  0.00  0.00    -0.230 NA
ATOM      3  C   UNL     1      -8.388  19.545  66.215  0.00  0.00    +0.154 C 
ATOM      4  N   UNL     1      -8.693  19.983  67.568  0.00  0.00    -0.230 NA
ATOM      5  C   UNL     1     -10.131  20.050  67.795  0.00  0.00    +0.154 C 
ATOM      6  N   UNL     1     -10.715  18.730  67.593  0.00  0.00    -0.230 NA
ATOM      7  C   UNL     1     -10.166  17.757  68.532  0.00  0.00    +0.154 C 
ATOM      8  C   UNL     1      -8.124  19.035  68.502  0.00  0.00    +0.154 C 
ATOM      9  C   UNL     1     -10.344  18.281  66.268  0.00  0.00    +0.154 C 
ATOM     10  N   UNL     1      -8.733  17.718  68.336  0.00  0.00    -0.230 NA
ENDROOT
TORSDOF 0
ENDMDL
MODEL 3
REMARK VINA RESULT:      -3.9      0.100      2.256
REMARK  Name = 
REMARK  0 active torsions:
REMARK  status: ('A' for Active; 'I' for Inactive)
REMARK                            x       y       z     vdW  Elec       q    Type
REMARK                         _______ _______ _______ _____ _____    ______ ____
ROOT
ATOM      1  C   UNL     1      -8.127  19.067  68.576  0.00  0.00    +0.154 C 
ATOM      2  N   UNL     1      -8.700  19.973  67.610  0.00  0.00    -0.230 NA
ATOM      3  C   UNL     1     -10.129  20.111  67.728  0.00  0.00    +0.154 C 
ATOM      4  N   UNL     1     -10.703  18.789  67.539  0.00  0.00    -0.230 NA
ATOM      5  C   UNL     1     -10.416  18.268  66.209  0.00  0.00    +0.154 C 
ATOM      6  N   UNL     1      -8.974  18.177  66.025  0.00  0.00    -0.230 NA
ATOM      7  C   UNL     1      -8.371  17.266  66.993  0.00  0.00    +0.154 C 
ATOM      8  C   UNL     1     -10.129  17.889  68.518  0.00  0.00    +0.154 C 
ATOM      9  C   UNL     1      -8.411  19.486  66.284  0.00  0.00    +0.154 C 
ATOM     10  N   UNL     1      -8.689  17.758  68.317  0.00  0.00    -0.230 NA
ENDROOT
TORSDOF 0
ENDMDL
MODEL 4
REMARK VINA RESULT:      -3.9      0.126      2.240
REMARK  Name = 
REMARK  0 active torsions:
REMARK  status: ('A' for Active; 'I' for Inactive)
REMARK                            x       y       z     vdW  Elec       q    Type
REMARK                         _______ _______ _______ _____ _____    ______ ____
ROOT
ATOM      1  C   UNL     1     -10.131  20.036  67.809  0.00  0.00    +0.154 C 
ATOM      2  N   UNL     1     -10.686  18.720  67.605  0.00  0.00    -0.230 NA
ATOM      3  C   UNL     1     -10.184  17.734  68.527  0.00  0.00    +0.154 C 
ATOM      4  N   UNL     1      -8.742  17.676  68.344  0.00  0.00    -0.230 NA
ATOM      5  C   UNL     1      -8.392  17.243  66.997  0.00  0.00    +0.154 C 
ATOM      6  N   UNL     1      -8.944  18.182  66.029  0.00  0.00    -0.230 NA
ATOM      7  C   UNL     1      -8.397  19.522  66.216  0.00  0.00    +0.154 C 
ATOM      8  C   UNL     1      -8.193  18.998  68.559  0.00  0.00    +0.154 C 
ATOM      9  C   UNL     1     -10.368  18.280  66.269  0.00  0.00    +0.154 C 
ATOM     10  N   UNL     1      -8.707  19.938  67.567  0.00  0.00    -0.230 NA
ENDROOT
TORSDOF 0
ENDMDL
MODEL 5
REMARK VINA RESULT:      -3.9      0.123      2.256
REMARK  Name = 
REMARK  0 active torsions:
REMARK  status: ('A' for Active; 'I' for Inactive)
REMARK                            x       y       z     vdW  Elec       q    Type
REMARK                         _______ _______ _______ _____ _____    ______ ____
ROOT
ATOM      1  C   UNL     1      -8.111  19.025  68.559  0.00  0.00    +0.154 C 
ATOM      2  N   UNL     1      -8.717  17.739  68.315  0.00  0.00    -0.230 NA
ATOM      3  C   UNL     1      -8.450  17.217  67.000  0.00  0.00    +0.154 C 
ATOM      4  N   UNL     1      -8.977  18.180  66.045  0.00  0.00    -0.230 NA
ATOM      5  C   UNL     1     -10.420  18.329  66.179  0.00  0.00    +0.154 C 
ATOM      6  N   UNL     1     -10.736  18.791  67.525  0.00  0.00    -0.230 NA
ATOM      7  C   UNL     1     -10.132  20.092  67.795  0.00  0.00    +0.154 C 
ATOM      8  C   UNL     1      -8.357  19.465  66.291  0.00  0.00    +0.154 C 
ATOM      9  C   UNL     1     -10.146  17.859  68.463  0.00  0.00    +0.154 C 
ATOM     10  N   UNL     1      -8.702  19.957  67.622  0.00  0.00    -0.230 NA
ENDROOT
TORSDOF 0
ENDMDL
MODEL 6
REMARK VINA RESULT:      -3.9      0.064      2.636
REMARK  Name = 
REMARK  0 active torsions:
REMARK  status: ('A' for Active; 'I' for Inactive)
REMARK                            x       y       z     vdW  Elec       q    Type
REMARK                         _______ _______ _______ _____ _____    ______ ____
ROOT
ATOM      1  C   UNL     1     -10.141  17.838  68.551  0.00  0.00    +0.154 C 
ATOM      2  N   UNL     1     -10.678  18.749  67.570  0.00  0.00    -0.230 NA
ATOM      3  C   UNL     1     -10.439  18.337  66.211  0.00  0.00    +0.154 C 
ATOM      4  N   UNL     1      -8.997  18.250  66.040  0.00  0.00    -0.230 NA
ATOM      5  C   UNL     1      -8.358  19.545  66.230  0.00  0.00    +0.154 C 
ATOM      6  N   UNL     1      -8.635  20.028  67.576  0.00  0.00    -0.230 NA
ATOM      7  C   UNL     1      -8.101  19.121  68.588  0.00  0.00    +0.154 C 
ATOM      8  C   UNL     1      -8.468  17.327  67.022  0.00  0.00    +0.154 C 
ATOM      9  C   UNL     1     -10.072  20.044  67.753  0.00  0.00    +0.154 C 
ATOM     10  N   UNL     1      -8.704  17.823  68.375  0.00  0.00    -0.230 NA
ENDROOT
TORSDOF 0
ENDMDL
MODEL 7
REMARK VINA RESULT:      -3.9      0.113      2.271
REMARK  Name = 
REMARK  0 active torsions:
REMARK  status: ('A' for Active; 'I' for Inactive)
REMARK                            x       y       z     vdW  Elec       q    Type
REMARK                         _______ _______ _______ _____ _____    ______ ____
ROOT
ATOM      1  C   UNL     1      -8.412  17.255  66.967  0.00  0.00    +0.154 C 
ATOM      2  N   UNL     1      -8.732  17.713  68.297  0.00  0.00    -0.230 NA
ATOM      3  C   UNL     1     -10.147  17.808  68.548  0.00  0.00    +0.154 C 
ATOM      4  N   UNL     1     -10.689  18.747  67.579  0.00  0.00    -0.230 NA
ATOM      5  C   UNL     1     -10.118  20.077  67.747  0.00  0.00    +0.154 C 
ATOM      6  N   UNL     1      -8.674  20.009  67.568  0.00  0.00    -0.230 NA
ATOM      7  C   UNL     1      -8.325  19.547  66.228  0.00  0.00    +0.154 C 
ATOM      8  C   UNL     1     -10.372  18.276  66.248  0.00  0.00    +0.154 C 
ATOM      9  C   UNL     1      -8.158  19.021  68.492  0.00  0.00    +0.154 C 
ATOM     10  N   UNL     1      -8.926  18.244  66.043  0.00  0.00    -0.230 NA
ENDROOT
TORSDOF 0
ENDMDL
MODEL 8
REMARK VINA RESULT:      -3.9      0.105      2.254
REMARK  Name = 
REMARK  0 active torsions:
REMARK  status: ('A' for Active; 'I' for Inactive)
REMARK                            x       y       z     vdW  Elec       q    Type
REMARK                         _______ _______ _______ _____ _____    ______ ____
ROOT
ATOM      1  C   UNL     1     -10.187  20.047  67.721  0.00  0.00    +0.154 C 
ATOM      2  N   UNL     1      -8.758  19.983  67.529  0.00  0.00    -0.230 NA
ATOM      3  C   UNL     1      -8.374  19.527  66.218  0.00  0.00    +0.154 C 
ATOM      4  N   UNL     1      -8.936  18.196  66.048  0.00  0.00    -0.230 NA
ATOM      5  C   UNL     1      -8.393  17.259  67.021  0.00  0.00    +0.154 C 
ATOM      6  N   UNL     1      -8.704  17.723  68.367  0.00  0.00    -0.230 NA
ATOM      7  C   UNL     1     -10.145  17.797  68.584  0.00  0.00    +0.154 C 
ATOM      8  C   UNL     1     -10.370  18.271  66.233  0.00  0.00    +0.154 C 
ATOM      9  C   UNL     1      -8.197  19.073  68.497  0.00  0.00    +0.154 C 
ATOM     10  N   UNL     1     -10.693  18.696  67.592  0.00  0.00    -0.230 NA
ENDROOT
TORSDOF 0
ENDMDL
MODEL 9
REMARK VINA RESULT:      -3.9      0.061      2.580
REMARK  Name = 
REMARK  0 active torsions:
REMARK  status: ('A' for Active; 'I' for Inactive)
REMARK                            x       y       z     vdW  Elec       q    Type
REMARK                         _______ _______ _______ _____ _____    ______ ____
ROOT
ATOM      1  C   UNL     1      -8.404  19.580  66.258  0.00  0.00    +0.154 C 
ATOM      2  N   UNL     1      -8.977  18.269  66.071  0.00  0.00    -0.230 NA
ATOM      3  C   UNL     1     -10.408  18.240  66.224  0.00  0.00    +0.154 C 
ATOM      4  N   UNL     1     -10.703  18.699  67.572  0.00  0.00    -0.230 NA
ATOM      5  C   UNL     1     -10.131  17.811  68.575  0.00  0.00    +0.154 C 
ATOM      6  N   UNL     1      -8.684  17.761  68.408  0.00  0.00    -0.230 NA
ATOM      7  C   UNL     1      -8.082  19.077  68.593  0.00  0.00    +0.154 C 
ATOM      8  C   UNL     1     -10.132  20.018  67.747  0.00  0.00    +0.154 C 
ATOM      9  C   UNL     1      -8.409  17.368  67.042  0.00  0.00    +0.154 C 
ATOM     10  N   UNL     1      -8.678  19.972  67.624  0.00  0.00    -0.230 NA
ENDROOT
TORSDOF 0
ENDMDL
