MODEL 1
REMARK VINA RESULT:      -6.8      0.000      0.000
REMARK  Name = 
REMARK  2 active torsions:
REMARK  status: ('A' for Active; 'I' for Inactive)
REMARK    1  A    between atoms: C_2  and  C_3
REMARK    2  A    between atoms: C_3  and  N_4
REMARK                            x       y       z     vdW  Elec       q    Type
REMARK                         _______ _______ _______ _____ _____    ______ ____
ROOT
ATOM      1  N   UNL     1      -9.566  17.132  68.697  0.00  0.00    -0.268 NA
ATOM      2  C   UNL     1      -8.854  16.422  67.479  0.00  0.00    +0.091 C 
ATOM      3  C   UNL     1      -9.129  14.922  68.071  0.00  0.00    +0.148 C 
ATOM      4  C   UNL     1     -10.452  14.511  67.836  0.00  0.00    +0.094 C 
ATOM      5  C   UNL     1     -10.593  12.961  68.334  0.00  0.00    +0.228 C 
ATOM      6  O   UNL     1     -11.708  12.587  67.317  0.00  0.00    -0.468 OA
ATOM      7  C   UNL     1     -11.776  13.535  66.380  0.00  0.00    +0.173 A 
ATOM      8  C   UNL     1     -12.498  13.626  65.194  0.00  0.00    +0.229 A 
ATOM      9  C   UNL     1     -12.239  14.698  64.336  0.00  0.00    +0.045 A 
ATOM     10  C   UNL     1     -11.216  15.609  64.615  0.00  0.00    -0.001 A 
ATOM     11  C   UNL     1     -10.362  15.429  65.703  0.00  0.00    -0.021 A 
ATOM     12  O   UNL     1     -13.263  12.528  64.786  0.00  0.00    -0.283 OA
ATOM     13  C   UNL     1      -9.354  12.416  67.427  0.00  0.00    +0.191 C 
ATOM     14  O   UNL     1      -9.595  11.961  66.372  0.00  0.00    -0.292 OA
ATOM     15  C   UNL     1      -8.013  12.818  67.925  0.00  0.00    +0.071 C 
ATOM     16  C   UNL     1     -10.666  14.289  66.422  0.00  0.00    +0.017 A 
ATOM     17  C   UNL     1     -11.378  15.364  68.577  0.00  0.00    +0.028 C 
ATOM     18  C   UNL     1      -7.975  14.235  67.353  0.00  0.00    +0.040 C 
ATOM     19  O   UNL     1      -8.731  14.964  69.392  0.00  0.00    -0.224 OA
ATOM     20  C   UNL     1     -10.182  16.633  66.547  0.00  0.00    +0.045 C 
ATOM     21  C   UNL     1     -10.844  16.666  68.835  0.00  0.00    +0.073 C 
ENDROOT
BRANCH   1  22
ATOM     22  C   UNL     1      -9.656  18.468  68.093  0.00  0.00    +0.099 C 
BRANCH  22  24
ATOM     23  C   UNL     1      -8.172  19.734  68.159  0.00  0.00    -0.003 C 
ATOM     24  C   UNL     1      -8.486  19.328  68.399  0.00  0.00    -0.009 C 
ENDBRANCH  22  24
ENDBRANCH   1  22
TORSDOF 2
ENDMDL
MODEL 2
REMARK VINA RESULT:      -6.8      2.515      5.222
REMARK  Name = 
REMARK  2 active torsions:
REMARK  status: ('A' for Active; 'I' for Inactive)
REMARK    1  A    between atoms: C_2  and  C_3
REMARK    2  A    between atoms: C_3  and  N_4
REMARK                            x       y       z     vdW  Elec       q    Type
REMARK                         _______ _______ _______ _____ _____    ______ ____
ROOT
ATOM      1  N   UNL     1     -10.847  12.886  64.818  0.00  0.00    -0.268 NA
ATOM      2  C   UNL     1      -9.771  12.683  65.956  0.00  0.00    +0.091 C 
ATOM      3  C   UNL     1      -9.947  14.207  66.524  0.00  0.00    +0.148 C 
ATOM      4  C   UNL     1     -11.100  14.329  67.317  0.00  0.00    +0.094 C 
ATOM      5  C   UNL     1     -11.119  15.836  67.949  0.00  0.00    +0.228 C 
ATOM      6  O   UNL     1     -11.894  15.441  69.237  0.00  0.00    -0.468 OA
ATOM      7  C   UNL     1     -11.883  14.112  69.359  0.00  0.00    +0.173 A 
ATOM      8  C   UNL     1     -12.311  13.263  70.375  0.00  0.00    +0.229 A 
ATOM      9  C   UNL     1     -12.023  11.899  70.271  0.00  0.00    +0.045 A 
ATOM     10  C   UNL     1     -11.244  11.409  69.219  0.00  0.00    -0.001 A 
ATOM     11  C   UNL     1     -10.651  12.269  68.294  0.00  0.00    -0.021 A 
ATOM     12  O   UNL     1     -12.784  13.823  71.566  0.00  0.00    -0.283 OA
ATOM     13  C   UNL     1      -9.634  15.723  68.610  0.00  0.00    +0.191 C 
ATOM     14  O   UNL     1      -9.549  15.395  69.735  0.00  0.00    -0.292 OA
ATOM     15  C   UNL     1      -8.524  15.775  67.624  0.00  0.00    +0.071 C 
ATOM     16  C   UNL     1     -10.940  13.595  68.554  0.00  0.00    +0.017 A 
ATOM     17  C   UNL     1     -12.293  14.111  66.502  0.00  0.00    +0.028 C 
ATOM     18  C   UNL     1      -8.567  14.320  67.157  0.00  0.00    +0.040 C 
ATOM     19  O   UNL     1      -9.882  15.028  65.416  0.00  0.00    -0.224 OA
ATOM     20  C   UNL     1     -10.859  11.883  66.879  0.00  0.00    +0.045 C 
ATOM     21  C   UNL     1     -12.037  13.289  65.359  0.00  0.00    +0.073 C 
ENDROOT
BRANCH   1  22
ATOM     22  C   UNL     1     -10.994  11.469  64.461  0.00  0.00    +0.099 C 
BRANCH  22  24
ATOM     23  C   UNL     1      -9.906  10.634  63.072  0.00  0.00    -0.003 C 
ATOM     24  C   UNL     1     -10.191  11.079  63.275  0.00  0.00    -0.009 C 
ENDBRANCH  22  24
ENDBRANCH   1  22
TORSDOF 2
ENDMDL
MODEL 3
REMARK VINA RESULT:      -6.7      1.596      3.318
REMARK  Name = 
REMARK  2 active torsions:
REMARK  status: ('A' for Active; 'I' for Inactive)
REMARK    1  A    between atoms: C_2  and  C_3
REMARK    2  A    between atoms: C_3  and  N_4
REMARK                            x       y       z     vdW  Elec       q    Type
REMARK                         _______ _______ _______ _____ _____    ______ ____
ROOT
ATOM      1  N   UNL     1      -9.438  16.765  67.650  0.00  0.00    -0.268 NA
ATOM      2  C   UNL     1     -10.900  16.278  67.302  0.00  0.00    +0.091 C 
ATOM      3  C   UNL     1     -10.371  14.919  66.561  0.00  0.00    +0.148 C 
ATOM      4  C   UNL     1     -10.014  13.930  67.493  0.00  0.00    +0.094 C 
ATOM      5  C   UNL     1      -9.634  12.573  66.666  0.00  0.00    +0.228 C 
ATOM      6  O   UNL     1     -10.063  11.594  67.795  0.00  0.00    -0.468 OA
ATOM      7  C   UNL     1     -10.787  12.261  68.695  0.00  0.00    +0.173 A 
ATOM      8  C   UNL     1     -11.507  11.844  69.811  0.00  0.00    +0.229 A 
ATOM      9  C   UNL     1     -12.299  12.780  70.482  0.00  0.00    +0.045 A 
ATOM     10  C   UNL     1     -12.441  14.081  69.994  0.00  0.00    -0.001 A 
ATOM     11  C   UNL     1     -11.875  14.465  68.778  0.00  0.00    -0.021 A 
ATOM     12  O   UNL     1     -11.613  10.474  70.069  0.00  0.00    -0.283 OA
ATOM     13  C   UNL     1     -11.044  12.512  65.851  0.00  0.00    +0.191 C 
ATOM     14  O   UNL     1     -11.909  11.847  66.286  0.00  0.00    -0.292 OA
ATOM     15  C   UNL     1     -11.176  13.540  64.787  0.00  0.00    +0.071 C 
ATOM     16  C   UNL     1     -11.191  13.430  68.170  0.00  0.00    +0.017 A 
ATOM     17  C   UNL     1      -8.868  14.377  68.280  0.00  0.00    +0.028 C 
ATOM     18  C   UNL     1     -11.586  14.723  65.664  0.00  0.00    +0.040 C 
ATOM     19  O   UNL     1      -9.374  15.329  65.697  0.00  0.00    -0.224 OA
ATOM     20  C   UNL     1     -11.109  15.732  68.830  0.00  0.00    +0.045 C 
ATOM     21  C   UNL     1      -8.775  15.802  68.360  0.00  0.00    +0.073 C 
ENDROOT
BRANCH   1  22
ATOM     22  C   UNL     1      -9.825  17.814  68.602  0.00  0.00    +0.099 C 
BRANCH  22  24
ATOM     23  C   UNL     1     -10.045  19.689  68.106  0.00  0.00    -0.003 C 
ATOM     24  C   UNL     1      -9.838  19.172  68.003  0.00  0.00    -0.009 C 
ENDBRANCH  22  24
ENDBRANCH   1  22
TORSDOF 2
ENDMDL
MODEL 4
REMARK VINA RESULT:      -6.6      2.492      4.318
REMARK  Name = 
REMARK  2 active torsions:
REMARK  status: ('A' for Active; 'I' for Inactive)
REMARK    1  A    between atoms: C_2  and  C_3
REMARK    2  A    between atoms: C_3  and  N_4
REMARK                            x       y       z     vdW  Elec       q    Type
REMARK                         _______ _______ _______ _____ _____    ______ ____
ROOT
ATOM      1  N   UNL     1     -10.748  14.932  68.535  0.00  0.00    -0.268 NA
ATOM      2  C   UNL     1     -11.959  14.086  67.977  0.00  0.00    +0.091 C 
ATOM      3  C   UNL     1     -11.382  14.094  66.447  0.00  0.00    +0.148 C 
ATOM      4  C   UNL     1     -10.350  13.155  66.282  0.00  0.00    +0.094 C 
ATOM      5  C   UNL     1      -9.934  13.136  64.702  0.00  0.00    +0.228 C 
ATOM      6  O   UNL     1      -9.478  11.649  64.693  0.00  0.00    -0.468 OA
ATOM      7  C   UNL     1      -9.920  11.053  65.802  0.00  0.00    +0.173 A 
ATOM      8  C   UNL     1      -9.902   9.727  66.221  0.00  0.00    +0.229 A 
ATOM      9  C   UNL     1     -10.590   9.387  67.390  0.00  0.00    +0.045 A 
ATOM     10  C   UNL     1     -11.355  10.336  68.074  0.00  0.00    -0.001 A 
ATOM     11  C   UNL     1     -11.534  11.624  67.569  0.00  0.00    -0.021 A 
ATOM     12  O   UNL     1      -9.421   8.750  65.344  0.00  0.00    -0.283 OA
ATOM     13  C   UNL     1     -11.446  12.848  64.168  0.00  0.00    +0.191 C 
ATOM     14  O   UNL     1     -11.761  11.735  63.963  0.00  0.00    -0.292 OA
ATOM     15  C   UNL     1     -12.360  14.015  64.271  0.00  0.00    +0.071 C 
ATOM     16  C   UNL     1     -10.876  11.809  66.367  0.00  0.00    +0.017 A 
ATOM     17  C   UNL     1      -9.199  13.528  67.101  0.00  0.00    +0.028 C 
ATOM     18  C   UNL     1     -12.721  13.889  65.752  0.00  0.00    +0.040 C 
ATOM     19  O   UNL     1     -11.056  15.408  66.177  0.00  0.00    -0.224 OA
ATOM     20  C   UNL     1     -11.294  12.707  68.550  0.00  0.00    +0.045 C 
ATOM     21  C   UNL     1      -9.564  14.315  68.239  0.00  0.00    +0.073 C 
ENDROOT
BRANCH   1  22
ATOM     22  C   UNL     1     -11.013  14.698  69.960  0.00  0.00    +0.099 C 
BRANCH  22  24
ATOM     23  C   UNL     1     -11.807  16.094  71.069  0.00  0.00    -0.003 C 
ATOM     24  C   UNL     1     -11.425  15.925  70.688  0.00  0.00    -0.009 C 
ENDBRANCH  22  24
ENDBRANCH   1  22
TORSDOF 2
ENDMDL
MODEL 5
REMARK VINA RESULT:      -6.6      2.738      5.367
REMARK  Name = 
REMARK  2 active torsions:
REMARK  status: ('A' for Active; 'I' for Inactive)
REMARK    1  A    between atoms: C_2  and  C_3
REMARK    2  A    between atoms: C_3  and  N_4
REMARK                            x       y       z     vdW  Elec       q    Type
REMARK                         _______ _______ _______ _____ _____    ______ ____
ROOT
ATOM      1  N   UNL     1      -9.774  10.427  67.270  0.00  0.00    -0.268 NA
ATOM      2  C   UNL     1     -11.203  11.055  67.510  0.00  0.00    +0.091 C 
ATOM      3  C   UNL     1     -10.596  12.405  68.206  0.00  0.00    +0.148 C 
ATOM      4  C   UNL     1     -10.108  13.305  67.243  0.00  0.00    +0.094 C 
ATOM      5  C   UNL     1      -9.652  14.671  68.016  0.00  0.00    +0.228 C 
ATOM      6  O   UNL     1      -9.936  15.615  66.814  0.00  0.00    -0.468 OA
ATOM      7  C   UNL     1     -10.670  14.960  65.912  0.00  0.00    +0.173 A 
ATOM      8  C   UNL     1     -11.293  15.371  64.738  0.00  0.00    +0.229 A 
ATOM      9  C   UNL     1     -12.130  14.468  64.075  0.00  0.00    +0.045 A 
ATOM     10  C   UNL     1     -12.409  13.213  64.624  0.00  0.00    -0.001 A 
ATOM     11  C   UNL     1     -11.941  12.855  65.888  0.00  0.00    -0.021 A 
ATOM     12  O   UNL     1     -11.266  16.728  64.401  0.00  0.00    -0.283 OA
ATOM     13  C   UNL     1     -11.091  14.898  68.747  0.00  0.00    +0.191 C 
ATOM     14  O   UNL     1     -11.871  15.607  68.230  0.00  0.00    -0.292 OA
ATOM     15  C   UNL     1     -11.365  13.948  69.856  0.00  0.00    +0.071 C 
ATOM     16  C   UNL     1     -11.201  13.862  66.476  0.00  0.00    +0.017 A 
ATOM     17  C   UNL     1      -8.967  12.718  66.545  0.00  0.00    +0.028 C 
ATOM     18  C   UNL     1     -11.833  12.755  69.022  0.00  0.00    +0.040 C 
ATOM     19  O   UNL     1      -9.683  11.964  69.143  0.00  0.00    -0.224 OA
ATOM     20  C   UNL     1     -11.287  11.527  65.946  0.00  0.00    +0.045 C 
ATOM     21  C   UNL     1      -8.995  11.287  66.547  0.00  0.00    +0.073 C 
ENDROOT
BRANCH   1  22
ATOM     22  C   UNL     1     -10.203   9.361  66.355  0.00  0.00    +0.099 C 
BRANCH  22  24
ATOM     23  C   UNL     1     -10.596   7.534  66.919  0.00  0.00    -0.003 C 
ATOM     24  C   UNL     1     -10.436   8.063  67.038  0.00  0.00    -0.009 C 
ENDBRANCH  22  24
ENDBRANCH   1  22
TORSDOF 2
ENDMDL
MODEL 6
REMARK VINA RESULT:      -6.3      3.955      7.271
REMARK  Name = 
REMARK  2 active torsions:
REMARK  status: ('A' for Active; 'I' for Inactive)
REMARK    1  A    between atoms: C_2  and  C_3
REMARK    2  A    between atoms: C_3  and  N_4
REMARK                            x       y       z     vdW  Elec       q    Type
REMARK                         _______ _______ _______ _____ _____    ______ ____
ROOT
ATOM      1  N   UNL     1      -8.733  17.636  66.191  0.00  0.00    -0.268 NA
ATOM      2  C   UNL     1      -7.175  17.389  66.125  0.00  0.00    +0.091 C 
ATOM      3  C   UNL     1      -6.818  18.961  66.404  0.00  0.00    +0.148 C 
ATOM      4  C   UNL     1      -6.943  19.283  67.765  0.00  0.00    +0.094 C 
ATOM      5  C   UNL     1      -6.437  20.824  67.967  0.00  0.00    +0.228 C 
ATOM      6  O   UNL     1      -5.951  20.624  69.430  0.00  0.00    -0.468 OA
ATOM      7  C   UNL     1      -5.877  19.316  69.687  0.00  0.00    +0.173 A 
ATOM      8  C   UNL     1      -5.388  18.605  70.778  0.00  0.00    +0.229 A 
ATOM      9  C   UNL     1      -5.312  17.212  70.686  0.00  0.00    +0.045 A 
ATOM     10  C   UNL     1      -5.633  16.553  69.496  0.00  0.00    -0.001 A 
ATOM     11  C   UNL     1      -5.948  17.262  68.337  0.00  0.00    -0.021 A 
ATOM     12  O   UNL     1      -4.762  19.306  71.813  0.00  0.00    -0.283 OA
ATOM     13  C   UNL     1      -4.982  20.580  67.274  0.00  0.00    +0.191 C 
ATOM     14  O   UNL     1      -4.071  20.329  67.971  0.00  0.00    -0.292 OA
ATOM     15  C   UNL     1      -5.031  20.421  65.798  0.00  0.00    +0.071 C 
ATOM     16  C   UNL     1      -5.905  18.629  68.533  0.00  0.00    +0.017 A 
ATOM     17  C   UNL     1      -8.336  19.152  68.184  0.00  0.00    +0.028 C 
ATOM     18  C   UNL     1      -5.447  18.951  65.741  0.00  0.00    +0.040 C 
ATOM     19  O   UNL     1      -7.611  19.683  65.533  0.00  0.00    -0.224 OA
ATOM     20  C   UNL     1      -7.177  16.800  67.650  0.00  0.00    +0.045 C 
ATOM     21  C   UNL     1      -9.069  18.222  67.381  0.00  0.00    +0.073 C 
ENDROOT
BRANCH   1  22
ATOM     22  C   UNL     1      -9.131  16.226  66.277  0.00  0.00    +0.099 C 
BRANCH  22  24
ATOM     23  C   UNL     1     -10.607  15.575  65.178  0.00  0.00    -0.003 C 
ATOM     24  C   UNL     1     -10.400  15.932  65.566  0.00  0.00    -0.009 C 
ENDBRANCH  22  24
ENDBRANCH   1  22
TORSDOF 2
ENDMDL
MODEL 7
REMARK VINA RESULT:      -6.3      2.527      5.824
REMARK  Name = 
REMARK  2 active torsions:
REMARK  status: ('A' for Active; 'I' for Inactive)
REMARK    1  A    between atoms: C_2  and  C_3
REMARK    2  A    between atoms: C_3  and  N_4
REMARK                            x       y       z     vdW  Elec       q    Type
REMARK                         _______ _______ _______ _____ _____    ______ ____
ROOT
ATOM      1  N   UNL     1     -11.261  10.646  67.245  0.00  0.00    -0.268 NA
ATOM      2  C   UNL     1     -10.244  11.293  66.225  0.00  0.00    +0.091 C 
ATOM      3  C   UNL     1     -11.153  12.637  66.025  0.00  0.00    +0.148 C 
ATOM      4  C   UNL     1     -10.998  13.528  67.101  0.00  0.00    +0.094 C 
ATOM      5  C   UNL     1     -11.829  14.890  66.750  0.00  0.00    +0.228 C 
ATOM      6  O   UNL     1     -10.907  15.834  67.572  0.00  0.00    -0.468 OA
ATOM      7  C   UNL     1      -9.780  15.186  67.873  0.00  0.00    +0.173 A 
ATOM      8  C   UNL     1      -8.594  15.600  68.470  0.00  0.00    +0.229 A 
ATOM      9  C   UNL     1      -7.520  14.706  68.514  0.00  0.00    +0.045 A 
ATOM     10  C   UNL     1      -7.602  13.456  67.893  0.00  0.00    -0.001 A 
ATOM     11  C   UNL     1      -8.715  13.096  67.133  0.00  0.00    -0.021 A 
ATOM     12  O   UNL     1      -8.431  16.956  68.773  0.00  0.00    -0.283 OA
ATOM     13  C   UNL     1     -11.086  15.137  65.321  0.00  0.00    +0.191 C 
ATOM     14  O   UNL     1     -10.156  15.854  65.295  0.00  0.00    -0.292 OA
ATOM     15  C   UNL     1     -11.499  14.194  64.250  0.00  0.00    +0.071 C 
ATOM     16  C   UNL     1      -9.667  14.096  67.095  0.00  0.00    +0.017 A 
ATOM     17  C   UNL     1     -11.516  12.925  68.327  0.00  0.00    +0.028 C 
ATOM     18  C   UNL     1     -10.624  13.004  64.645  0.00  0.00    +0.040 C 
ATOM     19  O   UNL     1     -12.438  12.188  65.789  0.00  0.00    -0.224 OA
ATOM     20  C   UNL     1      -9.270  11.760  67.453  0.00  0.00    +0.045 C 
ATOM     21  C   UNL     1     -11.482  11.495  68.295  0.00  0.00    +0.073 C 
ENDROOT
BRANCH   1  22
ATOM     22  C   UNL     1     -10.372   9.583  67.729  0.00  0.00    +0.099 C 
BRANCH  22  24
ATOM     23  C   UNL     1     -10.563   7.765  67.044  0.00  0.00    -0.003 C 
ATOM     24  C   UNL     1     -10.496   8.320  66.958  0.00  0.00    -0.009 C 
ENDBRANCH  22  24
ENDBRANCH   1  22
TORSDOF 2
ENDMDL
MODEL 8
REMARK VINA RESULT:      -6.2      2.741      6.189
REMARK  Name = 
REMARK  2 active torsions:
REMARK  status: ('A' for Active; 'I' for Inactive)
REMARK    1  A    between atoms: C_2  and  C_3
REMARK    2  A    between atoms: C_3  and  N_4
REMARK                            x       y       z     vdW  Elec       q    Type
REMARK                         _______ _______ _______ _____ _____    ______ ____
ROOT
ATOM      1  N   UNL     1     -10.135  15.194  67.332  0.00  0.00    -0.268 NA
ATOM      2  C   UNL     1      -9.778  16.246  66.209  0.00  0.00    +0.091 C 
ATOM      3  C   UNL     1     -10.021  17.525  67.199  0.00  0.00    +0.148 C 
ATOM      4  C   UNL     1      -8.928  17.726  68.057  0.00  0.00    +0.094 C 
ATOM      5  C   UNL     1      -9.198  19.097  68.905  0.00  0.00    +0.228 C 
ATOM      6  O   UNL     1      -7.695  19.453  69.083  0.00  0.00    -0.468 OA
ATOM      7  C   UNL     1      -6.971  18.710  68.242  0.00  0.00    +0.173 A 
ATOM      8  C   UNL     1      -5.620  18.722  67.911  0.00  0.00    +0.229 A 
ATOM      9  C   UNL     1      -5.182  17.903  66.866  0.00  0.00    +0.045 A 
ATOM     10  C   UNL     1      -6.091  17.158  66.109  0.00  0.00    -0.001 A 
ATOM     11  C   UNL     1      -7.467  17.275  66.307  0.00  0.00    -0.021 A 
ATOM     12  O   UNL     1      -4.804  19.720  68.452  0.00  0.00    -0.283 OA
ATOM     13  C   UNL     1      -9.433  20.026  67.587  0.00  0.00    +0.191 C 
ATOM     14  O   UNL     1      -8.518  20.626  67.160  0.00  0.00    -0.292 OA
ATOM     15  C   UNL     1     -10.726  19.785  66.896  0.00  0.00    +0.071 C 
ATOM     16  C   UNL     1      -7.775  18.177  67.307  0.00  0.00    +0.017 A 
ATOM     17  C   UNL     1      -8.792  16.591  68.967  0.00  0.00    +0.028 C 
ATOM     18  C   UNL     1     -10.331  18.538  66.105  0.00  0.00    +0.040 C 
ATOM     19  O   UNL     1     -11.240  17.300  67.809  0.00  0.00    -0.224 OA
ATOM     20  C   UNL     1      -8.180  15.983  66.434  0.00  0.00    +0.045 C 
ATOM     21  C   UNL     1      -9.338  15.383  68.427  0.00  0.00    +0.073 C 
ENDROOT
BRANCH   1  22
ATOM     22  C   UNL     1      -9.628  14.009  66.629  0.00  0.00    +0.099 C 
BRANCH  22  24
ATOM     23  C   UNL     1     -11.168  12.811  66.555  0.00  0.00    -0.003 C 
ATOM     24  C   UNL     1     -10.684  13.007  66.337  0.00  0.00    -0.009 C 
ENDBRANCH  22  24
ENDBRANCH   1  22
TORSDOF 2
ENDMDL
MODEL 9
REMARK VINA RESULT:      -6.2      4.135      6.403
REMARK  Name = 
REMARK  2 active torsions:
REMARK  status: ('A' for Active; 'I' for Inactive)
REMARK    1  A    between atoms: C_2  and  C_3
REMARK    2  A    between atoms: C_3  and  N_4
REMARK                            x       y       z     vdW  Elec       q    Type
REMARK                         _______ _______ _______ _____ _____    ______ ____
ROOT
ATOM      1  N   UNL     1      -4.825  19.404  69.705  0.00  0.00    -0.268 NA
ATOM      2  C   UNL     1      -5.695  20.502  68.975  0.00  0.00    +0.091 C 
ATOM      3  C   UNL     1      -5.368  19.907  67.487  0.00  0.00    +0.148 C 
ATOM      4  C   UNL     1      -6.146  18.772  67.205  0.00  0.00    +0.094 C 
ATOM      5  C   UNL     1      -5.854  18.334  65.658  0.00  0.00    +0.228 C 
ATOM      6  O   UNL     1      -7.258  17.711  65.420  0.00  0.00    -0.468 OA
ATOM      7  C   UNL     1      -8.077  18.098  66.401  0.00  0.00    +0.173 A 
ATOM      8  C   UNL     1      -9.444  17.934  66.596  0.00  0.00    +0.229 A 
ATOM      9  C   UNL     1     -10.049  18.595  67.669  0.00  0.00    +0.045 A 
ATOM     10  C   UNL     1      -9.318  19.473  68.474  0.00  0.00    -0.001 A 
ATOM     11  C   UNL     1      -7.992  19.792  68.182  0.00  0.00    -0.021 A 
ATOM     12  O   UNL     1     -10.201  17.331  65.586  0.00  0.00    -0.283 OA
ATOM     13  C   UNL     1      -6.214  19.795  65.033  0.00  0.00    +0.191 C 
ATOM     14  O   UNL     1      -7.305  19.977  64.638  0.00  0.00    -0.292 OA
ATOM     15  C   UNL     1      -5.189  20.838  65.297  0.00  0.00    +0.071 C 
ATOM     16  C   UNL     1      -7.537  19.142  67.050  0.00  0.00    +0.017 A 
ATOM     17  C   UNL     1      -5.789  17.684  68.112  0.00  0.00    +0.028 C 
ATOM     18  C   UNL     1      -5.600  21.204  66.723  0.00  0.00    +0.040 C 
ATOM     19  O   UNL     1      -3.998  19.730  67.448  0.00  0.00    -0.224 OA
ATOM     20  C   UNL     1      -7.068  19.691  69.335  0.00  0.00    +0.045 C 
ATOM     21  C   UNL     1      -5.250  18.153  69.351  0.00  0.00    +0.073 C 
ENDROOT
BRANCH   1  22
ATOM     22  C   UNL     1      -5.322  19.661  71.062  0.00  0.00    +0.099 C 
BRANCH  22  24
ATOM     23  C   UNL     1      -3.851  20.646  71.885  0.00  0.00    -0.003 C 
ATOM     24  C   UNL     1      -4.392  20.478  71.881  0.00  0.00    -0.009 C 
ENDBRANCH  22  24
ENDBRANCH   1  22
TORSDOF 2
ENDMDL
