MODEL 1
REMARK VINA RESULT:      -7.4      0.000      0.000
REMARK  Name = 
REMARK  11 active torsions:
REMARK  status: ('A' for Active; 'I' for Inactive)
REMARK    1  A    between atoms: O_2  and  C_3
REMARK    2  A    between atoms: C_3  and  C_5
REMARK    3  A    between atoms: C_11  and  C_12
REMARK    4  A    between atoms: C_12  and  O_14
REMARK    5  A    between atoms: O_14  and  C_15
REMARK    6  A    between atoms: C_15  and  C_16
REMARK    7  A    between atoms: C_16  and  N_17
REMARK    8  A    between atoms: N_17  and  C_19
REMARK    9  A    between atoms: C_19  and  C_20
REMARK   10  A    between atoms: C_26  and  C_27
REMARK   11  A    between atoms: C_31  and  N_32
REMARK                            x       y       z     vdW  Elec       q    Type
REMARK                         _______ _______ _______ _____ _____    ______ ____
ROOT
ATOM      1  C   UNL     1      -9.993  14.662  65.456  0.00  0.00    +0.073 C 
ATOM      2  C   UNL     1      -9.879  13.187  66.146  0.00  0.00    +0.082 C 
ATOM      3  C   UNL     1     -10.539  12.429  64.858  0.00  0.00    +0.073 C 
ATOM      4  C   UNL     1     -11.724  12.753  64.493  0.00  0.00    +0.051 C 
ATOM      5  C   UNL     1     -12.412  11.830  63.531  0.00  0.00    +0.049 C 
ATOM      6  N   UNL     1     -12.127  14.094  64.665  0.00  0.00    -0.221 NA
ATOM      7  C   UNL     1     -11.154  15.035  65.036  0.00  0.00    +0.051 C 
ATOM      8  C   UNL     1     -11.310  16.470  64.638  0.00  0.00    +0.049 C 
ENDROOT
BRANCH   2   9
ATOM      9  C   UNL     1     -11.290  13.324  66.984  0.00  0.00    -0.008 A 
ATOM     10  C   UNL     1     -11.277  14.434  67.824  0.00  0.00    +0.072 A 
ATOM     11  C   UNL     1     -11.883  14.469  69.055  0.00  0.00    +0.290 A 
ATOM     12  C   UNL     1     -11.937  13.266  69.736  0.00  0.00    +0.075 A 
ATOM     13  C   UNL     1     -11.739  12.082  69.035  0.00  0.00    +0.006 A 
ATOM     14  C   UNL     1     -11.555  12.133  67.658  0.00  0.00    -0.003 A 
BRANCH  11  15
ATOM     15  N   UNL     1     -11.832  15.728  69.742  0.00  0.00    +0.081 N 
ATOM     16  O   UNL     1     -12.913  15.998  70.567  0.00  0.00    -0.576 OA
ATOM     17  O   UNL     1     -11.359  16.699  69.100  0.00  0.00    +0.041 OA
ENDBRANCH  11  15
ENDBRANCH   2   9
BRANCH   1  18
ATOM     18  C   UNL     1      -9.115  15.623  66.093  0.00  0.00    +0.339 C 
ATOM     19  O   UNL     1      -8.248  15.147  66.877  0.00  0.00    -0.245 OA
BRANCH  18  21
ATOM     20  C   UNL     1      -8.483  17.816  66.518  0.00  0.00    +0.256 C 
ATOM     21  O   UNL     1      -9.021  16.959  65.800  0.00  0.00    -0.442 OA
ENDBRANCH  18  21
ENDBRANCH   1  18
BRANCH   3  22
ATOM     22  C   UNL     1     -10.166  11.007  64.889  0.00  0.00    +0.339 C 
ATOM     23  O   UNL     1      -9.688  10.447  63.861  0.00  0.00    -0.245 OA
BRANCH  22  24
ATOM     24  O   UNL     1     -10.574  10.170  65.932  0.00  0.00    -0.444 OA
BRANCH  24  25
ATOM     25  C   UNL     1      -9.959   8.929  66.165  0.00  0.00    +0.226 C 
BRANCH  25  26
ATOM     26  C   UNL     1      -9.604   8.877  67.637  0.00  0.00    +0.120 C 
BRANCH  26  27
ATOM     27  N   UNL     1     -10.521   7.932  68.257  0.00  0.00    -0.265 NA
ATOM     28  C   UNL     1     -10.818   6.833  67.377  0.00  0.00    +0.090 C 
BRANCH  27  29
ATOM     29  C   UNL     1     -10.099   7.529  69.569  0.00  0.00    +0.099 C 
BRANCH  29  30
ATOM     30  C   UNL     1     -11.045   7.856  70.642  0.00  0.00    -0.006 A 
ATOM     31  C   UNL     1     -11.238   9.148  71.119  0.00  0.00    -0.003 A 
ATOM     32  C   UNL     1     -12.421   9.518  71.704  0.00  0.00    -0.000 A 
ATOM     33  C   UNL     1     -13.520   8.679  71.715  0.00  0.00    -0.000 A 
ATOM     34  C   UNL     1     -13.295   7.361  71.388  0.00  0.00    -0.000 A 
ATOM     35  C   UNL     1     -12.042   6.941  70.959  0.00  0.00    -0.003 A 
ENDBRANCH  29  30
ENDBRANCH  27  29
ENDBRANCH  26  27
ENDBRANCH  25  26
ENDBRANCH  24  25
ENDBRANCH  22  24
ENDBRANCH   3  22
TORSDOF 11
ENDMDL
MODEL 2
REMARK VINA RESULT:      -7.2      0.935      1.278
REMARK  Name = 
REMARK  11 active torsions:
REMARK  status: ('A' for Active; 'I' for Inactive)
REMARK    1  A    between atoms: O_2  and  C_3
REMARK    2  A    between atoms: C_3  and  C_5
REMARK    3  A    between atoms: C_11  and  C_12
REMARK    4  A    between atoms: C_12  and  O_14
REMARK    5  A    between atoms: O_14  and  C_15
REMARK    6  A    between atoms: C_15  and  C_16
REMARK    7  A    between atoms: C_16  and  N_17
REMARK    8  A    between atoms: N_17  and  C_19
REMARK    9  A    between atoms: C_19  and  C_20
REMARK   10  A    between atoms: C_26  and  C_27
REMARK   11  A    between atoms: C_31  and  N_32
REMARK                            x       y       z     vdW  Elec       q    Type
REMARK                         _______ _______ _______ _____ _____    ______ ____
ROOT
ATOM      1  C   UNL     1     -10.010  14.646  65.447  0.00  0.00    +0.073 C 
ATOM      2  C   UNL     1      -9.904  13.168  66.133  0.00  0.00    +0.082 C 
ATOM      3  C   UNL     1     -10.563  12.418  64.840  0.00  0.00    +0.073 C 
ATOM      4  C   UNL     1     -11.745  12.747  64.471  0.00  0.00    +0.051 C 
ATOM      5  C   UNL     1     -12.433  11.829  63.505  0.00  0.00    +0.049 C 
ATOM      6  N   UNL     1     -12.144  14.088  64.646  0.00  0.00    -0.221 NA
ATOM      7  C   UNL     1     -11.169  15.025  65.024  0.00  0.00    +0.051 C 
ATOM      8  C   UNL     1     -11.317  16.462  64.630  0.00  0.00    +0.049 C 
ENDROOT
BRANCH   2   9
ATOM      9  C   UNL     1     -11.318  13.308  66.966  0.00  0.00    -0.008 A 
ATOM     10  C   UNL     1     -11.315  14.431  67.789  0.00  0.00    +0.072 A 
ATOM     11  C   UNL     1     -11.923  14.480  69.019  0.00  0.00    +0.290 A 
ATOM     12  C   UNL     1     -11.970  13.286  69.717  0.00  0.00    +0.075 A 
ATOM     13  C   UNL     1     -11.762  12.094  69.034  0.00  0.00    +0.006 A 
ATOM     14  C   UNL     1     -11.577  12.126  67.657  0.00  0.00    -0.003 A 
BRANCH  11  15
ATOM     15  N   UNL     1     -11.882  15.748  69.687  0.00  0.00    +0.081 N 
ATOM     16  O   UNL     1     -12.911  15.979  70.587  0.00  0.00    -0.576 OA
ATOM     17  O   UNL     1     -11.504  16.732  69.003  0.00  0.00    +0.041 OA
ENDBRANCH  11  15
ENDBRANCH   2   9
BRANCH   1  18
ATOM     18  C   UNL     1      -9.132  15.602  66.090  0.00  0.00    +0.339 C 
ATOM     19  O   UNL     1      -8.174  15.115  66.754  0.00  0.00    -0.245 OA
BRANCH  18  21
ATOM     20  C   UNL     1      -8.277  17.745  66.343  0.00  0.00    +0.256 C 
ATOM     21  O   UNL     1      -9.134  16.960  65.908  0.00  0.00    -0.442 OA
ENDBRANCH  18  21
ENDBRANCH   1  18
BRANCH   3  22
ATOM     22  C   UNL     1     -10.195  10.994  64.868  0.00  0.00    +0.339 C 
ATOM     23  O   UNL     1      -9.702  10.439  63.845  0.00  0.00    -0.245 OA
BRANCH  22  24
ATOM     24  O   UNL     1     -10.624  10.152  65.899  0.00  0.00    -0.444 OA
BRANCH  24  25
ATOM     25  C   UNL     1      -9.817   9.107  66.380  0.00  0.00    +0.226 C 
BRANCH  25  26
ATOM     26  C   UNL     1     -10.492   8.560  67.622  0.00  0.00    +0.120 C 
BRANCH  26  27
ATOM     27  N   UNL     1      -9.444   8.351  68.611  0.00  0.00    -0.265 NA
ATOM     28  C   UNL     1      -8.202   7.974  67.990  0.00  0.00    +0.090 C 
BRANCH  27  29
ATOM     29  C   UNL     1      -9.325   9.445  69.533  0.00  0.00    +0.099 C 
BRANCH  29  30
ATOM     30  C   UNL     1      -9.874   9.181  70.869  0.00  0.00    -0.006 A 
ATOM     31  C   UNL     1     -11.236   9.192  71.148  0.00  0.00    -0.003 A 
ATOM     32  C   UNL     1     -11.751   8.469  72.192  0.00  0.00    -0.000 A 
ATOM     33  C   UNL     1     -10.973   7.587  72.919  0.00  0.00    -0.000 A 
ATOM     34  C   UNL     1      -9.611   7.683  72.753  0.00  0.00    -0.000 A 
ATOM     35  C   UNL     1      -9.071   8.549  71.811  0.00  0.00    -0.003 A 
ENDBRANCH  29  30
ENDBRANCH  27  29
ENDBRANCH  26  27
ENDBRANCH  25  26
ENDBRANCH  24  25
ENDBRANCH  22  24
ENDBRANCH   3  22
TORSDOF 11
ENDMDL
MODEL 3
REMARK VINA RESULT:      -7.2      2.160      4.500
REMARK  Name = 
REMARK  11 active torsions:
REMARK  status: ('A' for Active; 'I' for Inactive)
REMARK    1  A    between atoms: O_2  and  C_3
REMARK    2  A    between atoms: C_3  and  C_5
REMARK    3  A    between atoms: C_11  and  C_12
REMARK    4  A    between atoms: C_12  and  O_14
REMARK    5  A    between atoms: O_14  and  C_15
REMARK    6  A    between atoms: C_15  and  C_16
REMARK    7  A    between atoms: C_16  and  N_17
REMARK    8  A    between atoms: N_17  and  C_19
REMARK    9  A    between atoms: C_19  and  C_20
REMARK   10  A    between atoms: C_26  and  C_27
REMARK   11  A    between atoms: C_31  and  N_32
REMARK                            x       y       z     vdW  Elec       q    Type
REMARK                         _______ _______ _______ _____ _____    ______ ____
ROOT
ATOM      1  C   UNL     1     -10.607  14.387  68.921  0.00  0.00    +0.073 C 
ATOM      2  C   UNL     1     -11.655  13.294  68.311  0.00  0.00    +0.082 C 
ATOM      3  C   UNL     1     -10.814  12.021  68.895  0.00  0.00    +0.073 C 
ATOM      4  C   UNL     1      -9.600  11.859  68.519  0.00  0.00    +0.051 C 
ATOM      5  C   UNL     1      -8.974  10.527  68.811  0.00  0.00    +0.049 C 
ATOM      6  N   UNL     1      -8.829  13.009  68.254  0.00  0.00    -0.221 NA
ATOM      7  C   UNL     1      -9.362  14.259  68.605  0.00  0.00    +0.051 C 
ATOM      8  C   UNL     1      -8.448  15.393  68.953  0.00  0.00    +0.049 C 
ENDROOT
BRANCH   2   9
ATOM      9  C   UNL     1     -10.961  13.264  66.818  0.00  0.00    -0.008 A 
ATOM     10  C   UNL     1     -11.098  14.487  66.168  0.00  0.00    +0.072 A 
ATOM     11  C   UNL     1     -11.281  14.618  64.813  0.00  0.00    +0.290 A 
ATOM     12  C   UNL     1     -11.964  13.586  64.194  0.00  0.00    +0.075 A 
ATOM     13  C   UNL     1     -12.088  12.367  64.850  0.00  0.00    +0.006 A 
ATOM     14  C   UNL     1     -11.469  12.195  66.082  0.00  0.00    -0.003 A 
BRANCH  11  15
ATOM     15  N   UNL     1     -11.323  15.963  64.315  0.00  0.00    +0.081 N 
ATOM     16  O   UNL     1     -10.659  16.903  65.087  0.00  0.00    -0.576 OA
ATOM     17  O   UNL     1     -12.400  16.332  63.784  0.00  0.00    +0.041 OA
ENDBRANCH  11  15
ENDBRANCH   2   9
BRANCH   1  18
ATOM     18  C   UNL     1     -11.196  15.708  69.004  0.00  0.00    +0.339 C 
ATOM     19  O   UNL     1     -10.748  16.567  68.194  0.00  0.00    -0.245 OA
BRANCH  18  21
ATOM     20  C   UNL     1     -12.498  15.748  70.925  0.00  0.00    +0.256 C 
ATOM     21  O   UNL     1     -12.294  16.065  69.743  0.00  0.00    -0.442 OA
ENDBRANCH  18  21
ENDBRANCH   1  18
BRANCH   3  22
ATOM     22  C   UNL     1     -11.700  10.850  68.973  0.00  0.00    +0.339 C 
ATOM     23  O   UNL     1     -11.699   9.984  68.052  0.00  0.00    -0.245 OA
BRANCH  22  24
ATOM     24  O   UNL     1     -12.750  10.792  69.894  0.00  0.00    -0.444 OA
BRANCH  24  25
ATOM     25  C   UNL     1     -12.513  10.670  71.274  0.00  0.00    +0.226 C 
BRANCH  25  26
ATOM     26  C   UNL     1     -11.663   9.432  71.473  0.00  0.00    +0.120 C 
BRANCH  26  27
ATOM     27  N   UNL     1     -12.549   8.389  71.967  0.00  0.00    -0.265 NA
ATOM     28  C   UNL     1     -13.801   8.934  72.420  0.00  0.00    +0.090 C 
BRANCH  27  29
ATOM     29  C   UNL     1     -12.689   7.297  71.045  0.00  0.00    +0.099 C 
BRANCH  29  30
ATOM     30  C   UNL     1     -11.442   6.580  70.753  0.00  0.00    -0.006 A 
ATOM     31  C   UNL     1     -10.815   5.741  71.668  0.00  0.00    -0.003 A 
ATOM     32  C   UNL     1     -10.002   4.719  71.250  0.00  0.00    -0.000 A 
ATOM     33  C   UNL     1      -9.885   4.384  69.914  0.00  0.00    -0.000 A 
ATOM     34  C   UNL     1     -10.372   5.293  69.003  0.00  0.00    -0.000 A 
ATOM     35  C   UNL     1     -11.049   6.429  69.429  0.00  0.00    -0.003 A 
ENDBRANCH  29  30
ENDBRANCH  27  29
ENDBRANCH  26  27
ENDBRANCH  25  26
ENDBRANCH  24  25
ENDBRANCH  22  24
ENDBRANCH   3  22
TORSDOF 11
ENDMDL
MODEL 4
REMARK VINA RESULT:      -7.2      2.766      7.244
REMARK  Name = 
REMARK  11 active torsions:
REMARK  status: ('A' for Active; 'I' for Inactive)
REMARK    1  A    between atoms: O_2  and  C_3
REMARK    2  A    between atoms: C_3  and  C_5
REMARK    3  A    between atoms: C_11  and  C_12
REMARK    4  A    between atoms: C_12  and  O_14
REMARK    5  A    between atoms: O_14  and  C_15
REMARK    6  A    between atoms: C_15  and  C_16
REMARK    7  A    between atoms: C_16  and  N_17
REMARK    8  A    between atoms: N_17  and  C_19
REMARK    9  A    between atoms: C_19  and  C_20
REMARK   10  A    between atoms: C_26  and  C_27
REMARK   11  A    between atoms: C_31  and  N_32
REMARK                            x       y       z     vdW  Elec       q    Type
REMARK                         _______ _______ _______ _____ _____    ______ ____
ROOT
ATOM      1  C   UNL     1     -10.659  10.317  70.096  0.00  0.00    +0.073 C 
ATOM      2  C   UNL     1      -9.554  10.471  68.905  0.00  0.00    +0.082 C 
ATOM      3  C   UNL     1     -10.189  11.877  68.369  0.00  0.00    +0.073 C 
ATOM      4  C   UNL     1     -11.407  11.891  67.967  0.00  0.00    +0.051 C 
ATOM      5  C   UNL     1     -11.850  13.095  67.191  0.00  0.00    +0.049 C 
ATOM      6  N   UNL     1     -12.323  11.028  68.603  0.00  0.00    -0.221 NA
ATOM      7  C   UNL     1     -11.904  10.355  69.762  0.00  0.00    +0.051 C 
ATOM      8  C   UNL     1     -12.905   9.964  70.805  0.00  0.00    +0.049 C 
ENDROOT
BRANCH   2   9
ATOM      9  C   UNL     1     -10.372   9.517  67.841  0.00  0.00    -0.008 A 
ATOM     10  C   UNL     1     -10.571   8.238  68.353  0.00  0.00    +0.072 A 
ATOM     11  C   UNL     1     -10.560   7.097  67.589  0.00  0.00    +0.290 A 
ATOM     12  C   UNL     1      -9.734   7.123  66.479  0.00  0.00    +0.075 A 
ATOM     13  C   UNL     1      -9.281   8.346  66.000  0.00  0.00    +0.006 A 
ATOM     14  C   UNL     1      -9.719   9.516  66.610  0.00  0.00    -0.003 A 
BRANCH  11  15
ATOM     15  N   UNL     1     -10.863   5.878  68.282  0.00  0.00    +0.081 N 
ATOM     16  O   UNL     1     -11.328   6.032  69.578  0.00  0.00    -0.576 OA
ATOM     17  O   UNL     1     -10.093   4.907  68.073  0.00  0.00    +0.041 OA
ENDBRANCH  11  15
ENDBRANCH   2   9
BRANCH   1  18
ATOM     18  C   UNL     1     -10.218   9.394  71.122  0.00  0.00    +0.339 C 
ATOM     19  O   UNL     1      -8.969   9.252  71.241  0.00  0.00    -0.245 OA
BRANCH  18  21
ATOM     20  C   UNL     1     -10.650   7.881  72.829  0.00  0.00    +0.256 C 
ATOM     21  O   UNL     1     -11.003   8.803  72.078  0.00  0.00    -0.442 OA
ENDBRANCH  18  21
ENDBRANCH   1  18
BRANCH   3  22
ATOM     22  C   UNL     1      -9.174  12.602  67.590  0.00  0.00    +0.339 C 
ATOM     23  O   UNL     1      -8.687  12.094  66.540  0.00  0.00    -0.245 OA
BRANCH  22  24
ATOM     24  O   UNL     1      -8.517  13.720  68.115  0.00  0.00    -0.444 OA
BRANCH  24  25
ATOM     25  C   UNL     1      -9.015  15.021  67.931  0.00  0.00    +0.226 C 
BRANCH  25  26
ATOM     26  C   UNL     1      -9.128  15.652  69.304  0.00  0.00    +0.120 C 
BRANCH  26  27
ATOM     27  N   UNL     1     -10.255  16.572  69.252  0.00  0.00    -0.265 NA
ATOM     28  C   UNL     1     -10.170  17.444  68.110  0.00  0.00    +0.090 C 
BRANCH  27  29
ATOM     29  C   UNL     1     -11.520  15.906  69.383  0.00  0.00    +0.099 C 
BRANCH  29  30
ATOM     30  C   UNL     1     -11.765  15.313  70.703  0.00  0.00    -0.006 A 
ATOM     31  C   UNL     1     -11.887  16.067  71.865  0.00  0.00    -0.003 A 
ATOM     32  C   UNL     1     -12.601  15.603  72.939  0.00  0.00    -0.000 A 
ATOM     33  C   UNL     1     -13.349  14.442  72.868  0.00  0.00    -0.000 A 
ATOM     34  C   UNL     1     -13.114  13.621  71.790  0.00  0.00    -0.000 A 
ATOM     35  C   UNL     1     -12.250  14.012  70.775  0.00  0.00    -0.003 A 
ENDBRANCH  29  30
ENDBRANCH  27  29
ENDBRANCH  26  27
ENDBRANCH  25  26
ENDBRANCH  24  25
ENDBRANCH  22  24
ENDBRANCH   3  22
TORSDOF 11
ENDMDL
MODEL 5
REMARK VINA RESULT:      -7.1      2.976      7.104
REMARK  Name = 
REMARK  11 active torsions:
REMARK  status: ('A' for Active; 'I' for Inactive)
REMARK    1  A    between atoms: O_2  and  C_3
REMARK    2  A    between atoms: C_3  and  C_5
REMARK    3  A    between atoms: C_11  and  C_12
REMARK    4  A    between atoms: C_12  and  O_14
REMARK    5  A    between atoms: O_14  and  C_15
REMARK    6  A    between atoms: C_15  and  C_16
REMARK    7  A    between atoms: C_16  and  N_17
REMARK    8  A    between atoms: N_17  and  C_19
REMARK    9  A    between atoms: C_19  and  C_20
REMARK   10  A    between atoms: C_26  and  C_27
REMARK   11  A    between atoms: C_31  and  N_32
REMARK                            x       y       z     vdW  Elec       q    Type
REMARK                         _______ _______ _______ _____ _____    ______ ____
ROOT
ATOM      1  C   UNL     1      -9.767   8.685  67.812  0.00  0.00    +0.073 C 
ATOM      2  C   UNL     1     -11.019   9.732  67.865  0.00  0.00    +0.082 C 
ATOM      3  C   UNL     1     -10.116  10.985  67.334  0.00  0.00    +0.073 C 
ATOM      4  C   UNL     1      -9.095  11.344  68.020  0.00  0.00    +0.051 C 
ATOM      5  C   UNL     1      -8.491  12.676  67.686  0.00  0.00    +0.049 C 
ATOM      6  N   UNL     1      -8.378  10.347  68.713  0.00  0.00    -0.221 NA
ATOM      7  C   UNL     1      -8.696   9.004  68.456  0.00  0.00    +0.051 C 
ATOM      8  C   UNL     1      -7.652   7.943  68.616  0.00  0.00    +0.049 C 
ENDROOT
BRANCH   2   9
ATOM      9  C   UNL     1     -10.834  10.077  69.465  0.00  0.00    -0.008 A 
ATOM     10  C   UNL     1     -10.912   8.927  70.246  0.00  0.00    +0.072 A 
ATOM     11  C   UNL     1     -11.467   8.891  71.501  0.00  0.00    +0.290 A 
ATOM     12  C   UNL     1     -12.502   9.781  71.729  0.00  0.00    +0.075 A 
ATOM     13  C   UNL     1     -12.666  10.862  70.871  0.00  0.00    +0.006 A 
ATOM     14  C   UNL     1     -11.749  11.057  69.845  0.00  0.00    -0.003 A 
BRANCH  11  15
ATOM     15  N   UNL     1     -11.384   7.633  72.185  0.00  0.00    +0.081 N 
ATOM     16  O   UNL     1     -12.421   6.748  71.928  0.00  0.00    -0.576 OA
ATOM     17  O   UNL     1     -10.951   7.661  73.364  0.00  0.00    +0.041 OA
ENDBRANCH  11  15
ENDBRANCH   2   9
BRANCH   1  18
ATOM     18  C   UNL     1     -10.218   7.308  67.804  0.00  0.00    +0.339 C 
ATOM     19  O   UNL     1     -10.947   6.969  66.831  0.00  0.00    -0.245 OA
BRANCH  18  21
ATOM     20  C   UNL     1     -10.514   5.415  69.114  0.00  0.00    +0.256 C 
ATOM     21  O   UNL     1      -9.795   6.308  68.640  0.00  0.00    -0.442 OA
ENDBRANCH  18  21
ENDBRANCH   1  18
BRANCH   3  22
ATOM     22  C   UNL     1     -11.002  12.019  66.778  0.00  0.00    +0.339 C 
ATOM     23  O   UNL     1     -11.045  12.224  65.531  0.00  0.00    -0.245 OA
BRANCH  22  24
ATOM     24  O   UNL     1     -11.602  12.980  67.598  0.00  0.00    -0.444 OA
BRANCH  24  25
ATOM     25  C   UNL     1     -12.049  14.210  67.086  0.00  0.00    +0.226 C 
BRANCH  25  26
ATOM     26  C   UNL     1     -10.903  15.191  67.222  0.00  0.00    +0.120 C 
BRANCH  26  27
ATOM     27  N   UNL     1     -10.717  15.424  68.647  0.00  0.00    -0.265 NA
ATOM     28  C   UNL     1      -9.507  16.159  68.906  0.00  0.00    +0.090 C 
BRANCH  27  29
ATOM     29  C   UNL     1     -11.882  15.981  69.274  0.00  0.00    +0.099 C 
BRANCH  29  30
ATOM     30  C   UNL     1     -12.131  15.501  70.639  0.00  0.00    -0.006 A 
ATOM     31  C   UNL     1     -11.688  16.170  71.773  0.00  0.00    -0.003 A 
ATOM     32  C   UNL     1     -12.331  16.029  72.976  0.00  0.00    -0.000 A 
ATOM     33  C   UNL     1     -13.525  15.340  73.085  0.00  0.00    -0.000 A 
ATOM     34  C   UNL     1     -13.885  14.554  72.014  0.00  0.00    -0.000 A 
ATOM     35  C   UNL     1     -13.133  14.559  70.846  0.00  0.00    -0.003 A 
ENDBRANCH  29  30
ENDBRANCH  27  29
ENDBRANCH  26  27
ENDBRANCH  25  26
ENDBRANCH  24  25
ENDBRANCH  22  24
ENDBRANCH   3  22
TORSDOF 11
ENDMDL
MODEL 6
REMARK VINA RESULT:      -7.0      3.427      8.044
REMARK  Name = 
REMARK  11 active torsions:
REMARK  status: ('A' for Active; 'I' for Inactive)
REMARK    1  A    between atoms: O_2  and  C_3
REMARK    2  A    between atoms: C_3  and  C_5
REMARK    3  A    between atoms: C_11  and  C_12
REMARK    4  A    between atoms: C_12  and  O_14
REMARK    5  A    between atoms: O_14  and  C_15
REMARK    6  A    between atoms: C_15  and  C_16
REMARK    7  A    between atoms: C_16  and  N_17
REMARK    8  A    between atoms: N_17  and  C_19
REMARK    9  A    between atoms: C_19  and  C_20
REMARK   10  A    between atoms: C_26  and  C_27
REMARK   11  A    between atoms: C_31  and  N_32
REMARK                            x       y       z     vdW  Elec       q    Type
REMARK                         _______ _______ _______ _____ _____    ______ ____
ROOT
ATOM      1  C   UNL     1     -10.737  13.363  66.208  0.00  0.00    +0.073 C 
ATOM      2  C   UNL     1     -11.261  14.810  66.754  0.00  0.00    +0.082 C 
ATOM      3  C   UNL     1      -9.909  15.587  66.269  0.00  0.00    +0.073 C 
ATOM      4  C   UNL     1      -8.779  15.217  66.749  0.00  0.00    +0.051 C 
ATOM      5  C   UNL     1      -7.619  16.145  66.539  0.00  0.00    +0.049 C 
ATOM      6  N   UNL     1      -8.603  13.851  67.051  0.00  0.00    -0.221 NA
ATOM      7  C   UNL     1      -9.590  12.947  66.628  0.00  0.00    +0.051 C 
ATOM      8  C   UNL     1      -9.227  11.525  66.332  0.00  0.00    +0.049 C 
ENDROOT
BRANCH   2   9
ATOM      9  C   UNL     1     -10.750  14.561  68.299  0.00  0.00    -0.008 A 
ATOM     10  C   UNL     1     -11.565  13.649  68.964  0.00  0.00    +0.072 A 
ATOM     11  C   UNL     1     -11.868  13.727  70.301  0.00  0.00    +0.290 A 
ATOM     12  C   UNL     1     -11.920  15.003  70.835  0.00  0.00    +0.075 A 
ATOM     13  C   UNL     1     -11.327  16.051  70.142  0.00  0.00    +0.006 A 
ATOM     14  C   UNL     1     -10.642  15.781  68.963  0.00  0.00    -0.003 A 
BRANCH  11  15
ATOM     15  N   UNL     1     -12.660  12.652  70.826  0.00  0.00    +0.081 N 
ATOM     16  O   UNL     1     -13.345  12.937  71.997  0.00  0.00    -0.576 OA
ATOM     17  O   UNL     1     -12.176  11.496  70.726  0.00  0.00    +0.041 OA
ENDBRANCH  11  15
ENDBRANCH   2   9
BRANCH   1  18
ATOM     18  C   UNL     1     -11.828  12.422  66.047  0.00  0.00    +0.339 C 
ATOM     19  O   UNL     1     -12.081  11.690  67.044  0.00  0.00    -0.245 OA
BRANCH  18  21
ATOM     20  C   UNL     1     -12.405  12.183  63.811  0.00  0.00    +0.256 C 
ATOM     21  O   UNL     1     -12.710  12.371  64.999  0.00  0.00    -0.442 OA
ENDBRANCH  18  21
ENDBRANCH   1  18
BRANCH   3  22
ATOM     22  C   UNL     1     -10.195  17.025  66.145  0.00  0.00    +0.339 C 
ATOM     23  O   UNL     1     -10.701  17.488  65.084  0.00  0.00    -0.245 OA
BRANCH  22  24
ATOM     24  O   UNL     1      -9.673  17.951  67.054  0.00  0.00    -0.444 OA
BRANCH  24  25
ATOM     25  C   UNL     1     -10.266  19.210  67.245  0.00  0.00    +0.226 C 
BRANCH  25  26
ATOM     26  C   UNL     1      -9.332  20.239  66.641  0.00  0.00    +0.120 C 
BRANCH  26  27
ATOM     27  N   UNL     1      -7.978  19.743  66.838  0.00  0.00    -0.265 NA
ATOM     28  C   UNL     1      -7.236  19.733  65.605  0.00  0.00    +0.090 C 
BRANCH  27  29
ATOM     29  C   UNL     1      -7.300  20.398  67.921  0.00  0.00    +0.099 C 
BRANCH  29  30
ATOM     30  C   UNL     1      -6.350  19.549  68.651  0.00  0.00    -0.006 A 
ATOM     31  C   UNL     1      -6.715  18.359  69.271  0.00  0.00    -0.003 A 
ATOM     32  C   UNL     1      -5.800  17.359  69.479  0.00  0.00    -0.000 A 
ATOM     33  C   UNL     1      -4.523  17.423  68.954  0.00  0.00    -0.000 A 
ATOM     34  C   UNL     1      -4.110  18.646  68.478  0.00  0.00    -0.000 A 
ATOM     35  C   UNL     1      -4.989  19.721  68.429  0.00  0.00    -0.003 A 
ENDBRANCH  29  30
ENDBRANCH  27  29
ENDBRANCH  26  27
ENDBRANCH  25  26
ENDBRANCH  24  25
ENDBRANCH  22  24
ENDBRANCH   3  22
TORSDOF 11
ENDMDL
MODEL 7
REMARK VINA RESULT:      -6.9      2.315      3.338
REMARK  Name = 
REMARK  11 active torsions:
REMARK  status: ('A' for Active; 'I' for Inactive)
REMARK    1  A    between atoms: O_2  and  C_3
REMARK    2  A    between atoms: C_3  and  C_5
REMARK    3  A    between atoms: C_11  and  C_12
REMARK    4  A    between atoms: C_12  and  O_14
REMARK    5  A    between atoms: O_14  and  C_15
REMARK    6  A    between atoms: C_15  and  C_16
REMARK    7  A    between atoms: C_16  and  N_17
REMARK    8  A    between atoms: N_17  and  C_19
REMARK    9  A    between atoms: C_19  and  C_20
REMARK   10  A    between atoms: C_26  and  C_27
REMARK   11  A    between atoms: C_31  and  N_32
REMARK                            x       y       z     vdW  Elec       q    Type
REMARK                         _______ _______ _______ _____ _____    ______ ____
ROOT
ATOM      1  C   UNL     1      -9.910  14.712  65.449  0.00  0.00    +0.073 C 
ATOM      2  C   UNL     1      -9.824  13.195  66.046  0.00  0.00    +0.082 C 
ATOM      3  C   UNL     1     -10.480  12.531  64.706  0.00  0.00    +0.073 C 
ATOM      4  C   UNL     1     -11.657  12.894  64.349  0.00  0.00    +0.051 C 
ATOM      5  C   UNL     1     -12.347  12.044  63.325  0.00  0.00    +0.049 C 
ATOM      6  N   UNL     1     -12.043  14.227  64.602  0.00  0.00    -0.221 NA
ATOM      7  C   UNL     1     -11.061  15.128  65.043  0.00  0.00    +0.051 C 
ATOM      8  C   UNL     1     -11.192  16.588  64.735  0.00  0.00    +0.049 C 
ENDROOT
BRANCH   2   9
ATOM      9  C   UNL     1     -11.242  13.299  66.876  0.00  0.00    -0.008 A 
ATOM     10  C   UNL     1     -11.264  14.415  67.709  0.00  0.00    +0.072 A 
ATOM     11  C   UNL     1     -11.876  14.441  68.937  0.00  0.00    +0.290 A 
ATOM     12  C   UNL     1     -11.901  13.241  69.625  0.00  0.00    +0.075 A 
ATOM     13  C   UNL     1     -11.667  12.059  68.933  0.00  0.00    +0.006 A 
ATOM     14  C   UNL     1     -11.479  12.106  67.556  0.00  0.00    -0.003 A 
BRANCH  11  15
ATOM     15  N   UNL     1     -11.862  15.705  69.616  0.00  0.00    +0.081 N 
ATOM     16  O   UNL     1     -12.917  15.922  70.488  0.00  0.00    -0.576 OA
ATOM     17  O   UNL     1     -11.471  16.696  68.951  0.00  0.00    +0.041 OA
ENDBRANCH  11  15
ENDBRANCH   2   9
BRANCH   1  18
ATOM     18  C   UNL     1      -9.026  15.618  66.155  0.00  0.00    +0.339 C 
ATOM     19  O   UNL     1      -8.330  15.108  67.076  0.00  0.00    -0.245 OA
BRANCH  18  21
ATOM     20  C   UNL     1      -7.762  17.565  66.196  0.00  0.00    +0.256 C 
ATOM     21  O   UNL     1      -8.747  16.915  65.812  0.00  0.00    -0.442 OA
ENDBRANCH  18  21
ENDBRANCH   1  18
BRANCH   3  22
ATOM     22  C   UNL     1     -10.128  11.104  64.650  0.00  0.00    +0.339 C 
ATOM     23  O   UNL     1     -10.617  10.289  65.484  0.00  0.00    -0.245 OA
BRANCH  22  24
ATOM     24  O   UNL     1      -9.053  10.650  63.878  0.00  0.00    -0.444 OA
BRANCH  24  25
ATOM     25  C   UNL     1      -9.000   9.333  63.391  0.00  0.00    +0.226 C 
BRANCH  25  26
ATOM     26  C   UNL     1      -7.682   8.742  63.848  0.00  0.00    +0.120 C 
BRANCH  26  27
ATOM     27  N   UNL     1      -7.886   8.261  65.206  0.00  0.00    -0.265 NA
ATOM     28  C   UNL     1      -7.998   6.826  65.244  0.00  0.00    +0.090 C 
BRANCH  27  29
ATOM     29  C   UNL     1      -6.931   8.796  66.135  0.00  0.00    +0.099 C 
BRANCH  29  30
ATOM     30  C   UNL     1      -7.338  10.052  66.775  0.00  0.00    -0.006 A 
ATOM     31  C   UNL     1      -8.161  10.103  67.894  0.00  0.00    -0.003 A 
ATOM     32  C   UNL     1      -8.113  11.163  68.762  0.00  0.00    -0.000 A 
ATOM     33  C   UNL     1      -7.152  12.150  68.650  0.00  0.00    -0.000 A 
ATOM     34  C   UNL     1      -6.441  12.191  67.473  0.00  0.00    -0.000 A 
ATOM     35  C   UNL     1      -6.615  11.208  66.506  0.00  0.00    -0.003 A 
ENDBRANCH  29  30
ENDBRANCH  27  29
ENDBRANCH  26  27
ENDBRANCH  25  26
ENDBRANCH  24  25
ENDBRANCH  22  24
ENDBRANCH   3  22
TORSDOF 11
ENDMDL
MODEL 8
REMARK VINA RESULT:      -6.9      1.393      2.122
REMARK  Name = 
REMARK  11 active torsions:
REMARK  status: ('A' for Active; 'I' for Inactive)
REMARK    1  A    between atoms: O_2  and  C_3
REMARK    2  A    between atoms: C_3  and  C_5
REMARK    3  A    between atoms: C_11  and  C_12
REMARK    4  A    between atoms: C_12  and  O_14
REMARK    5  A    between atoms: O_14  and  C_15
REMARK    6  A    between atoms: C_15  and  C_16
REMARK    7  A    between atoms: C_16  and  N_17
REMARK    8  A    between atoms: N_17  and  C_19
REMARK    9  A    between atoms: C_19  and  C_20
REMARK   10  A    between atoms: C_26  and  C_27
REMARK   11  A    between atoms: C_31  and  N_32
REMARK                            x       y       z     vdW  Elec       q    Type
REMARK                         _______ _______ _______ _____ _____    ______ ____
ROOT
ATOM      1  C   UNL     1      -9.944  14.606  65.420  0.00  0.00    +0.073 C 
ATOM      2  C   UNL     1      -9.837  13.107  66.059  0.00  0.00    +0.082 C 
ATOM      3  C   UNL     1     -10.497  12.398  64.744  0.00  0.00    +0.073 C 
ATOM      4  C   UNL     1     -11.681  12.739  64.388  0.00  0.00    +0.051 C 
ATOM      5  C   UNL     1     -12.370  11.852  63.394  0.00  0.00    +0.049 C 
ATOM      6  N   UNL     1     -12.079  14.074  64.606  0.00  0.00    -0.221 NA
ATOM      7  C   UNL     1     -11.104  14.997  65.012  0.00  0.00    +0.051 C 
ATOM      8  C   UNL     1     -11.253  16.447  64.664  0.00  0.00    +0.049 C 
ENDROOT
BRANCH   2   9
ATOM      9  C   UNL     1     -11.249  13.220  66.899  0.00  0.00    -0.008 A 
ATOM     10  C   UNL     1     -11.272  14.354  67.705  0.00  0.00    +0.072 A 
ATOM     11  C   UNL     1     -11.875  14.405  68.937  0.00  0.00    +0.290 A 
ATOM     12  C   UNL     1     -11.884  13.221  69.654  0.00  0.00    +0.075 A 
ATOM     13  C   UNL     1     -11.647  12.025  68.987  0.00  0.00    +0.006 A 
ATOM     14  C   UNL     1     -11.471  12.042  67.609  0.00  0.00    -0.003 A 
BRANCH  11  15
ATOM     15  N   UNL     1     -11.865  15.685  69.586  0.00  0.00    +0.081 N 
ATOM     16  O   UNL     1     -12.903  15.906  70.478  0.00  0.00    -0.576 OA
ATOM     17  O   UNL     1     -11.506  16.666  68.888  0.00  0.00    +0.041 OA
ENDBRANCH  11  15
ENDBRANCH   2   9
BRANCH   1  18
ATOM     18  C   UNL     1      -9.064  15.541  66.092  0.00  0.00    +0.339 C 
ATOM     19  O   UNL     1      -8.206  15.035  66.867  0.00  0.00    -0.245 OA
BRANCH  18  21
ATOM     20  C   UNL     1      -8.375  17.707  66.563  0.00  0.00    +0.256 C 
ATOM     21  O   UNL     1      -8.959  16.884  65.840  0.00  0.00    -0.442 OA
ENDBRANCH  18  21
ENDBRANCH   1  18
BRANCH   3  22
ATOM     22  C   UNL     1     -10.130  10.974  64.726  0.00  0.00    +0.339 C 
ATOM     23  O   UNL     1     -10.683  10.158  65.518  0.00  0.00    -0.245 OA
BRANCH  22  24
ATOM     24  O   UNL     1      -8.989  10.526  64.053  0.00  0.00    -0.444 OA
BRANCH  24  25
ATOM     25  C   UNL     1      -8.083   9.633  64.651  0.00  0.00    +0.226 C 
BRANCH  25  26
ATOM     26  C   UNL     1      -7.221  10.443  65.599  0.00  0.00    +0.120 C 
BRANCH  26  27
ATOM     27  N   UNL     1      -7.209   9.730  66.867  0.00  0.00    -0.265 NA
ATOM     28  C   UNL     1      -5.867   9.418  67.283  0.00  0.00    +0.090 C 
BRANCH  27  29
ATOM     29  C   UNL     1      -7.994  10.382  67.877  0.00  0.00    +0.099 C 
BRANCH  29  30
ATOM     30  C   UNL     1      -8.643   9.473  68.829  0.00  0.00    -0.006 A 
ATOM     31  C   UNL     1      -8.510   9.592  70.207  0.00  0.00    -0.003 A 
ATOM     32  C   UNL     1      -9.474   9.115  71.057  0.00  0.00    -0.000 A 
ATOM     33  C   UNL     1     -10.681   8.631  70.587  0.00  0.00    -0.000 A 
ATOM     34  C   UNL     1     -10.760   8.369  69.239  0.00  0.00    -0.000 A 
ATOM     35  C   UNL     1      -9.707   8.691  68.392  0.00  0.00    -0.003 A 
ENDBRANCH  29  30
ENDBRANCH  27  29
ENDBRANCH  26  27
ENDBRANCH  25  26
ENDBRANCH  24  25
ENDBRANCH  22  24
ENDBRANCH   3  22
TORSDOF 11
ENDMDL
MODEL 9
REMARK VINA RESULT:      -6.8      2.014      3.767
REMARK  Name = 
REMARK  11 active torsions:
REMARK  status: ('A' for Active; 'I' for Inactive)
REMARK    1  A    between atoms: O_2  and  C_3
REMARK    2  A    between atoms: C_3  and  C_5
REMARK    3  A    between atoms: C_11  and  C_12
REMARK    4  A    between atoms: C_12  and  O_14
REMARK    5  A    between atoms: O_14  and  C_15
REMARK    6  A    between atoms: C_15  and  C_16
REMARK    7  A    between atoms: C_16  and  N_17
REMARK    8  A    between atoms: N_17  and  C_19
REMARK    9  A    between atoms: C_19  and  C_20
REMARK   10  A    between atoms: C_26  and  C_27
REMARK   11  A    between atoms: C_31  and  N_32
REMARK                            x       y       z     vdW  Elec       q    Type
REMARK                         _______ _______ _______ _____ _____    ______ ____
ROOT
ATOM      1  C   UNL     1     -10.058  12.776  68.214  0.00  0.00    +0.073 C 
ATOM      2  C   UNL     1     -10.692  11.572  67.312  0.00  0.00    +0.082 C 
ATOM      3  C   UNL     1      -9.354  10.645  67.440  0.00  0.00    +0.073 C 
ATOM      4  C   UNL     1      -8.240  11.105  67.003  0.00  0.00    +0.051 C 
ATOM      5  C   UNL     1      -7.119  10.122  66.840  0.00  0.00    +0.049 C 
ATOM      6  N   UNL     1      -8.013  12.493  67.101  0.00  0.00    -0.221 NA
ATOM      7  C   UNL     1      -8.921  13.261  67.846  0.00  0.00    +0.051 C 
ATOM      8  C   UNL     1      -8.465  14.521  68.516  0.00  0.00    +0.049 C 
ENDROOT
BRANCH   2   9
ATOM      9  C   UNL     1     -10.272  12.251  65.872  0.00  0.00    -0.008 A 
ATOM     10  C   UNL     1     -10.695  13.575  65.790  0.00  0.00    +0.072 A 
ATOM     11  C   UNL     1     -11.127  14.170  64.631  0.00  0.00    +0.290 A 
ATOM     12  C   UNL     1     -11.752  13.336  63.720  0.00  0.00    +0.075 A 
ATOM     13  C   UNL     1     -11.583  11.961  63.836  0.00  0.00    +0.006 A 
ATOM     14  C   UNL     1     -10.741  11.463  64.823  0.00  0.00    -0.003 A 
BRANCH  11  15
ATOM     15  N   UNL     1     -11.449  15.565  64.726  0.00  0.00    +0.081 N 
ATOM     16  O   UNL     1     -12.351  16.032  63.782  0.00  0.00    -0.576 OA
ATOM     17  O   UNL     1     -10.508  16.339  65.034  0.00  0.00    +0.041 OA
ENDBRANCH  11  15
ENDBRANCH   2   9
BRANCH   1  18
ATOM     18  C   UNL     1     -11.085  13.660  68.729  0.00  0.00    +0.339 C 
ATOM     19  O   UNL     1     -11.535  13.379  69.874  0.00  0.00    -0.245 OA
BRANCH  18  21
ATOM     20  C   UNL     1     -11.779  15.873  68.817  0.00  0.00    +0.256 C 
ATOM     21  O   UNL     1     -11.484  14.850  68.179  0.00  0.00    -0.442 OA
ENDBRANCH  18  21
ENDBRANCH   1  18
BRANCH   3  22
ATOM     22  C   UNL     1      -9.706   9.245  67.159  0.00  0.00    +0.339 C 
ATOM     23  O   UNL     1     -10.274   8.931  66.074  0.00  0.00    -0.245 OA
BRANCH  22  24
ATOM     24  O   UNL     1      -9.688   8.274  68.166  0.00  0.00    -0.444 OA
BRANCH  24  25
ATOM     25  C   UNL     1      -8.857   7.144  68.085  0.00  0.00    +0.226 C 
BRANCH  25  26
ATOM     26  C   UNL     1      -8.622   6.662  69.502  0.00  0.00    +0.120 C 
BRANCH  26  27
ATOM     27  N   UNL     1      -9.908   6.711  70.181  0.00  0.00    -0.265 NA
ATOM     28  C   UNL     1     -10.566   5.431  70.154  0.00  0.00    +0.090 C 
BRANCH  27  29
ATOM     29  C   UNL     1      -9.823   7.294  71.490  0.00  0.00    +0.099 C 
BRANCH  29  30
ATOM     30  C   UNL     1     -10.759   8.399  71.730  0.00  0.00    -0.006 A 
ATOM     31  C   UNL     1     -10.793   9.550  70.951  0.00  0.00    -0.003 A 
ATOM     32  C   UNL     1     -11.938  10.295  70.837  0.00  0.00    -0.000 A 
ATOM     33  C   UNL     1     -13.141   9.864  71.366  0.00  0.00    -0.000 A 
ATOM     34  C   UNL     1     -13.084   8.819  72.259  0.00  0.00    -0.000 A 
ATOM     35  C   UNL     1     -11.884   8.167  72.512  0.00  0.00    -0.003 A 
ENDBRANCH  29  30
ENDBRANCH  27  29
ENDBRANCH  26  27
ENDBRANCH  25  26
ENDBRANCH  24  25
ENDBRANCH  22  24
ENDBRANCH   3  22
TORSDOF 11
ENDMDL
