MODEL 1
REMARK VINA RESULT:      -6.5      0.000      0.000
REMARK  Name = 
REMARK  8 active torsions:
REMARK  status: ('A' for Active; 'I' for Inactive)
REMARK    1  A    between atoms: O_2  and  C_3
REMARK    2  A    between atoms: C_5  and  C_6
REMARK    3  A    between atoms: C_11  and  O_12
REMARK    4  A    between atoms: O_12  and  C_13
REMARK    5  A    between atoms: C_13  and  C_14
REMARK    6  A    between atoms: C_14  and  C_15
REMARK    7  A    between atoms: C_15  and  N_16
REMARK    8  A    between atoms: C_19  and  C_20
REMARK                            x       y       z     vdW  Elec       q    Type
REMARK                         _______ _______ _______ _____ _____    ______ ____
ROOT
ATOM      1  N   UNL     1     -10.402  10.526  68.808  0.00  0.00    -0.273 NA
ATOM      2  C   UNL     1      -8.948  10.649  68.835  0.00  0.00    +0.072 C 
ATOM      3  C   UNL     1      -8.529  11.148  67.476  0.00  0.00    +0.023 C 
ATOM      4  C   UNL     1      -9.557  10.774  66.431  0.00  0.00    +0.046 C 
ATOM      5  C   UNL     1     -10.138   9.396  66.665  0.00  0.00    +0.023 C 
ATOM      6  C   UNL     1     -10.702   9.299  68.076  0.00  0.00    +0.072 C 
ENDROOT
BRANCH   4   7
ATOM      7  C   UNL     1     -10.633  11.814  66.404  0.00  0.00    +0.100 A 
ATOM      8  C   UNL     1     -10.418  13.091  65.909  0.00  0.00    +0.054 A 
ATOM      9  C   UNL     1     -11.598  13.526  65.319  0.00  0.00    +0.179 A 
ATOM     10  C   UNL     1     -11.674  14.859  64.945  0.00  0.00    +0.070 A 
ATOM     11  C   UNL     1     -10.728  15.739  65.443  0.00  0.00    +0.143 A 
ATOM     12  C   UNL     1      -9.454  15.265  65.703  0.00  0.00    +0.030 A 
ATOM     13  F   UNL     1     -10.955  17.065  65.422  0.00  0.00    -0.204 F 
ATOM     14  O   UNL     1     -12.445  12.541  65.458  0.00  0.00    -0.354 OA
ATOM     15  C   UNL     1      -9.329  13.932  66.074  0.00  0.00    +0.007 A 
ATOM     16  N   UNL     1     -11.967  11.625  66.259  0.00  0.00    -0.081 NA
ENDBRANCH   4   7
BRANCH   1  17
ATOM     17  C   UNL     1     -10.879  10.332  70.156  0.00  0.00    +0.076 C 
BRANCH  17  18
ATOM     18  C   UNL     1     -12.399  10.229  70.193  0.00  0.00    +0.065 C 
BRANCH  18  19
ATOM     19  C   UNL     1     -12.962  11.314  71.068  0.00  0.00    +0.207 C 
BRANCH  19  20
ATOM     20  O   UNL     1     -12.074  12.406  71.225  0.00  0.00    -0.472 OA
BRANCH  20  22
ATOM     21  C   UNL     1     -12.522  14.794  71.268  0.00  0.00    +0.172 A 
ATOM     22  C   UNL     1     -12.365  13.604  70.567  0.00  0.00    +0.172 A 
ATOM     23  C   UNL     1     -12.199  13.749  69.194  0.00  0.00    +0.040 A 
ATOM     24  C   UNL     1     -11.890  14.993  68.656  0.00  0.00    +0.006 A 
ATOM     25  C   UNL     1     -11.482  16.029  69.486  0.00  0.00    +0.038 A 
ATOM     26  C   UNL     1     -11.978  15.977  70.784  0.00  0.00    +0.043 A 
BRANCH  25  27
ATOM     27  C   UNL     1     -10.369  16.917  69.134  0.00  0.00    +0.174 C 
ATOM     28  O   UNL     1     -10.649  17.950  68.456  0.00  0.00    -0.291 OA
ATOM     29  C   UNL     1      -8.965  16.432  69.025  0.00  0.00    +0.077 C 
ENDBRANCH  25  27
BRANCH  21  31
ATOM     30  C   UNL     1     -12.316  15.344  73.617  0.00  0.00    +0.253 C 
ATOM     31  O   UNL     1     -13.028  14.695  72.569  0.00  0.00    -0.468 OA
ENDBRANCH  21  31
ENDBRANCH  20  22
ENDBRANCH  19  20
ENDBRANCH  18  19
ENDBRANCH  17  18
ENDBRANCH   1  17
TORSDOF 8
ENDMDL
MODEL 2
REMARK VINA RESULT:      -6.4      3.591      7.064
REMARK  Name = 
REMARK  8 active torsions:
REMARK  status: ('A' for Active; 'I' for Inactive)
REMARK    1  A    between atoms: O_2  and  C_3
REMARK    2  A    between atoms: C_5  and  C_6
REMARK    3  A    between atoms: C_11  and  O_12
REMARK    4  A    between atoms: O_12  and  C_13
REMARK    5  A    between atoms: C_13  and  C_14
REMARK    6  A    between atoms: C_14  and  C_15
REMARK    7  A    between atoms: C_15  and  N_16
REMARK    8  A    between atoms: C_19  and  C_20
REMARK                            x       y       z     vdW  Elec       q    Type
REMARK                         _______ _______ _______ _____ _____    ______ ____
ROOT
ATOM      1  N   UNL     1      -9.328  14.770  68.293  0.00  0.00    -0.273 NA
ATOM      2  C   UNL     1      -9.531  16.204  68.112  0.00  0.00    +0.072 C 
ATOM      3  C   UNL     1     -10.966  16.488  68.472  0.00  0.00    +0.023 C 
ATOM      4  C   UNL     1     -11.817  15.251  68.288  0.00  0.00    +0.046 C 
ATOM      5  C   UNL     1     -11.411  14.451  67.069  0.00  0.00    +0.023 C 
ATOM      6  C   UNL     1      -9.927  14.115  67.133  0.00  0.00    +0.072 C 
ENDROOT
BRANCH   4   7
ATOM      7  C   UNL     1     -11.745  14.415  69.528  0.00  0.00    +0.100 A 
ATOM      8  C   UNL     1     -12.128  14.897  70.770  0.00  0.00    +0.054 A 
ATOM      9  C   UNL     1     -12.669  13.839  71.491  0.00  0.00    +0.179 A 
ATOM     10  C   UNL     1     -12.925  14.046  72.838  0.00  0.00    +0.070 A 
ATOM     11  C   UNL     1     -12.359  15.149  73.455  0.00  0.00    +0.143 A 
ATOM     12  C   UNL     1     -12.151  16.294  72.705  0.00  0.00    +0.030 A 
ATOM     13  F   UNL     1     -12.263  15.203  74.796  0.00  0.00    -0.204 F 
ATOM     14  O   UNL     1     -12.611  12.804  70.695  0.00  0.00    -0.354 OA
ATOM     15  C   UNL     1     -11.899  16.135  71.348  0.00  0.00    +0.007 A 
ATOM     16  N   UNL     1     -11.895  13.073  69.633  0.00  0.00    -0.081 NA
ENDBRANCH   4   7
BRANCH   1  17
ATOM     17  C   UNL     1      -7.913  14.489  68.243  0.00  0.00    +0.076 C 
BRANCH  17  18
ATOM     18  C   UNL     1      -7.209  15.382  67.230  0.00  0.00    +0.065 C 
BRANCH  18  19
ATOM     19  C   UNL     1      -5.923  15.898  67.813  0.00  0.00    +0.207 C 
BRANCH  19  20
ATOM     20  O   UNL     1      -5.343  16.927  67.031  0.00  0.00    -0.472 OA
BRANCH  20  22
ATOM     21  C   UNL     1      -6.358  18.835  65.920  0.00  0.00    +0.172 A 
ATOM     22  C   UNL     1      -5.914  18.202  67.076  0.00  0.00    +0.172 A 
ATOM     23  C   UNL     1      -6.362  18.767  68.264  0.00  0.00    +0.040 A 
ATOM     24  C   UNL     1      -7.418  19.670  68.253  0.00  0.00    +0.006 A 
ATOM     25  C   UNL     1      -8.203  19.809  67.115  0.00  0.00    +0.038 A 
ATOM     26  C   UNL     1      -7.558  19.536  65.914  0.00  0.00    +0.043 A 
BRANCH  25  27
ATOM     27  C   UNL     1      -9.664  19.915  67.184  0.00  0.00    +0.174 C 
ATOM     28  O   UNL     1     -10.184  19.975  68.337  0.00  0.00    -0.291 OA
ATOM     29  C   UNL     1     -10.552  19.413  66.098  0.00  0.00    +0.077 C 
ENDBRANCH  25  27
BRANCH  21  31
ATOM     30  C   UNL     1      -5.719  19.482  63.676  0.00  0.00    +0.253 C 
ATOM     31  O   UNL     1      -5.677  18.533  64.736  0.00  0.00    -0.468 OA
ENDBRANCH  21  31
ENDBRANCH  20  22
ENDBRANCH  19  20
ENDBRANCH  18  19
ENDBRANCH  17  18
ENDBRANCH   1  17
TORSDOF 8
ENDMDL
MODEL 3
REMARK VINA RESULT:      -6.3      2.662      6.367
REMARK  Name = 
REMARK  8 active torsions:
REMARK  status: ('A' for Active; 'I' for Inactive)
REMARK    1  A    between atoms: O_2  and  C_3
REMARK    2  A    between atoms: C_5  and  C_6
REMARK    3  A    between atoms: C_11  and  O_12
REMARK    4  A    between atoms: O_12  and  C_13
REMARK    5  A    between atoms: C_13  and  C_14
REMARK    6  A    between atoms: C_14  and  C_15
REMARK    7  A    between atoms: C_15  and  N_16
REMARK    8  A    between atoms: C_19  and  C_20
REMARK                            x       y       z     vdW  Elec       q    Type
REMARK                         _______ _______ _______ _____ _____    ______ ____
ROOT
ATOM      1  N   UNL     1      -9.154  15.007  68.774  0.00  0.00    -0.273 NA
ATOM      2  C   UNL     1      -9.246  16.461  68.702  0.00  0.00    +0.072 C 
ATOM      3  C   UNL     1     -10.688  16.818  68.952  0.00  0.00    +0.023 C 
ATOM      4  C   UNL     1     -11.595  15.664  68.585  0.00  0.00    +0.046 C 
ATOM      5  C   UNL     1     -11.125  14.938  67.343  0.00  0.00    +0.023 C 
ATOM      6  C   UNL     1      -9.679  14.492  67.512  0.00  0.00    +0.072 C 
ENDROOT
BRANCH   4   7
ATOM      7  C   UNL     1     -11.696  14.728  69.749  0.00  0.00    +0.100 A 
ATOM      8  C   UNL     1     -12.113  15.147  71.003  0.00  0.00    +0.054 A 
ATOM      9  C   UNL     1     -12.810  14.100  71.594  0.00  0.00    +0.179 A 
ATOM     10  C   UNL     1     -13.135  14.224  72.936  0.00  0.00    +0.070 A 
ATOM     11  C   UNL     1     -12.501  15.205  73.681  0.00  0.00    +0.143 A 
ATOM     12  C   UNL     1     -12.123  16.377  73.048  0.00  0.00    +0.030 A 
ATOM     13  F   UNL     1     -12.493  15.139  75.025  0.00  0.00    -0.204 F 
ATOM     14  O   UNL     1     -12.805  13.133  70.715  0.00  0.00    -0.354 OA
ATOM     15  C   UNL     1     -11.796  16.301  71.700  0.00  0.00    +0.007 A 
ATOM     16  N   UNL     1     -11.994  13.406  69.726  0.00  0.00    -0.081 NA
ENDBRANCH   4   7
BRANCH   1  17
ATOM     17  C   UNL     1      -7.762  14.629  68.829  0.00  0.00    +0.076 C 
BRANCH  17  18
ATOM     18  C   UNL     1      -7.362  13.820  67.602  0.00  0.00    +0.065 C 
BRANCH  18  19
ATOM     19  C   UNL     1      -6.722  12.528  68.029  0.00  0.00    +0.207 C 
BRANCH  19  20
ATOM     20  O   UNL     1      -7.655  11.606  68.562  0.00  0.00    -0.472 OA
BRANCH  20  22
ATOM     21  C   UNL     1      -9.889  10.793  68.053  0.00  0.00    +0.172 A 
ATOM     22  C   UNL     1      -8.561  10.993  67.691  0.00  0.00    +0.172 A 
ATOM     23  C   UNL     1      -8.293  10.845  66.335  0.00  0.00    +0.040 A 
ATOM     24  C   UNL     1      -9.335  10.828  65.416  0.00  0.00    +0.006 A 
ATOM     25  C   UNL     1     -10.609  11.226  65.800  0.00  0.00    +0.038 A 
ATOM     26  C   UNL     1     -10.912  11.025  67.142  0.00  0.00    +0.043 A 
BRANCH  25  27
ATOM     27  C   UNL     1     -11.448  12.081  64.953  0.00  0.00    +0.174 C 
ATOM     28  O   UNL     1     -12.584  12.407  65.409  0.00  0.00    -0.291 OA
ATOM     29  C   UNL     1     -11.311  12.114  63.470  0.00  0.00    +0.077 C 
ENDBRANCH  25  27
BRANCH  21  31
ATOM     30  C   UNL     1     -10.069   9.263  69.920  0.00  0.00    +0.253 C 
ATOM     31  O   UNL     1     -10.146  10.591  69.413  0.00  0.00    -0.468 OA
ENDBRANCH  21  31
ENDBRANCH  20  22
ENDBRANCH  19  20
ENDBRANCH  18  19
ENDBRANCH  17  18
ENDBRANCH   1  17
TORSDOF 8
ENDMDL
MODEL 4
REMARK VINA RESULT:      -6.3      3.076      6.723
REMARK  Name = 
REMARK  8 active torsions:
REMARK  status: ('A' for Active; 'I' for Inactive)
REMARK    1  A    between atoms: O_2  and  C_3
REMARK    2  A    between atoms: C_5  and  C_6
REMARK    3  A    between atoms: C_11  and  O_12
REMARK    4  A    between atoms: O_12  and  C_13
REMARK    5  A    between atoms: C_13  and  C_14
REMARK    6  A    between atoms: C_14  and  C_15
REMARK    7  A    between atoms: C_15  and  N_16
REMARK    8  A    between atoms: C_19  and  C_20
REMARK                            x       y       z     vdW  Elec       q    Type
REMARK                         _______ _______ _______ _____ _____    ______ ____
ROOT
ATOM      1  N   UNL     1      -9.927  12.738  67.931  0.00  0.00    -0.273 NA
ATOM      2  C   UNL     1      -9.284  13.994  67.557  0.00  0.00    +0.072 C 
ATOM      3  C   UNL     1     -10.128  15.102  68.134  0.00  0.00    +0.023 C 
ATOM      4  C   UNL     1     -11.555  14.640  68.327  0.00  0.00    +0.046 C 
ATOM      5  C   UNL     1     -12.025  13.742  67.203  0.00  0.00    +0.023 C 
ATOM      6  C   UNL     1     -11.067  12.570  67.035  0.00  0.00    +0.072 C 
ENDROOT
BRANCH   4   7
ATOM      7  C   UNL     1     -11.676  13.952  69.652  0.00  0.00    +0.100 A 
ATOM      8  C   UNL     1     -12.073  14.620  70.800  0.00  0.00    +0.054 A 
ATOM      9  C   UNL     1     -12.795  13.728  71.585  0.00  0.00    +0.179 A 
ATOM     10  C   UNL     1     -13.109  14.122  72.877  0.00  0.00    +0.070 A 
ATOM     11  C   UNL     1     -12.443  15.210  73.415  0.00  0.00    +0.143 A 
ATOM     12  C   UNL     1     -12.037  16.225  72.566  0.00  0.00    +0.030 A 
ATOM     13  F   UNL     1     -12.429  15.408  74.746  0.00  0.00    -0.204 F 
ATOM     14  O   UNL     1     -12.823  12.609  70.912  0.00  0.00    -0.354 OA
ATOM     15  C   UNL     1     -11.720  15.879  71.258  0.00  0.00    +0.007 A 
ATOM     16  N   UNL     1     -12.010  12.661  69.888  0.00  0.00    -0.081 NA
ENDBRANCH   4   7
BRANCH   1  17
ATOM     17  C   UNL     1      -9.020  11.650  67.657  0.00  0.00    +0.076 C 
BRANCH  17  18
ATOM     18  C   UNL     1      -8.895  10.721  68.858  0.00  0.00    +0.065 C 
BRANCH  18  19
ATOM     19  C   UNL     1      -9.500   9.384  68.534  0.00  0.00    +0.207 C 
BRANCH  19  20
ATOM     20  O   UNL     1      -8.985   8.341  69.341  0.00  0.00    -0.472 OA
BRANCH  20  22
ATOM     21  C   UNL     1      -9.927   8.256  71.580  0.00  0.00    +0.172 A 
ATOM     22  C   UNL     1      -9.827   7.751  70.289  0.00  0.00    +0.172 A 
ATOM     23  C   UNL     1     -10.829   6.858  69.928  0.00  0.00    +0.040 A 
ATOM     24  C   UNL     1     -11.986   6.761  70.691  0.00  0.00    +0.006 A 
ATOM     25  C   UNL     1     -12.272   7.729  71.646  0.00  0.00    +0.038 A 
ATOM     26  C   UNL     1     -11.164   8.352  72.207  0.00  0.00    +0.043 A 
BRANCH  25  27
ATOM     27  C   UNL     1     -13.621   8.280  71.818  0.00  0.00    +0.174 C 
ATOM     28  O   UNL     1     -13.737   9.296  72.566  0.00  0.00    -0.291 OA
ATOM     29  C   UNL     1     -14.847   7.451  71.656  0.00  0.00    +0.077 C 
ENDBRANCH  25  27
BRANCH  21  31
ATOM     30  C   UNL     1      -8.108   8.226  73.177  0.00  0.00    +0.253 C 
ATOM     31  O   UNL     1      -8.786   8.872  72.105  0.00  0.00    -0.468 OA
ENDBRANCH  21  31
ENDBRANCH  20  22
ENDBRANCH  19  20
ENDBRANCH  18  19
ENDBRANCH  17  18
ENDBRANCH   1  17
TORSDOF 8
ENDMDL
MODEL 5
REMARK VINA RESULT:      -6.3      1.841      3.395
REMARK  Name = 
REMARK  8 active torsions:
REMARK  status: ('A' for Active; 'I' for Inactive)
REMARK    1  A    between atoms: O_2  and  C_3
REMARK    2  A    between atoms: C_5  and  C_6
REMARK    3  A    between atoms: C_11  and  O_12
REMARK    4  A    between atoms: O_12  and  C_13
REMARK    5  A    between atoms: C_13  and  C_14
REMARK    6  A    between atoms: C_14  and  C_15
REMARK    7  A    between atoms: C_15  and  N_16
REMARK    8  A    between atoms: C_19  and  C_20
REMARK                            x       y       z     vdW  Elec       q    Type
REMARK                         _______ _______ _______ _____ _____    ______ ____
ROOT
ATOM      1  N   UNL     1      -9.660   9.082  67.422  0.00  0.00    -0.273 NA
ATOM      2  C   UNL     1      -8.261   9.421  67.662  0.00  0.00    +0.072 C 
ATOM      3  C   UNL     1      -8.013  10.744  66.984  0.00  0.00    +0.023 C 
ATOM      4  C   UNL     1      -8.990  10.953  65.848  0.00  0.00    +0.046 C 
ATOM      5  C   UNL     1      -9.271   9.673  65.091  0.00  0.00    +0.023 C 
ATOM      6  C   UNL     1      -9.741   8.588  66.050  0.00  0.00    +0.072 C 
ENDROOT
BRANCH   4   7
ATOM      7  C   UNL     1     -10.253  11.546  66.389  0.00  0.00    +0.100 A 
ATOM      8  C   UNL     1     -10.342  12.875  66.774  0.00  0.00    +0.054 A 
ATOM      9  C   UNL     1     -11.630  13.316  66.496  0.00  0.00    +0.179 A 
ATOM     10  C   UNL     1     -12.005  14.554  66.994  0.00  0.00    +0.070 A 
ATOM     11  C   UNL     1     -11.220  15.135  67.976  0.00  0.00    +0.143 A 
ATOM     12  C   UNL     1      -9.860  14.882  67.972  0.00  0.00    +0.030 A 
ATOM     13  F   UNL     1     -11.713  16.126  68.742  0.00  0.00    -0.204 F 
ATOM     14  O   UNL     1     -12.246  12.293  65.964  0.00  0.00    -0.354 OA
ATOM     15  C   UNL     1      -9.437  13.656  67.474  0.00  0.00    +0.007 A 
ATOM     16  N   UNL     1     -11.528  11.206  66.081  0.00  0.00    -0.081 NA
ENDBRANCH   4   7
BRANCH   1  17
ATOM     17  C   UNL     1     -10.028   7.982  68.281  0.00  0.00    +0.076 C 
BRANCH  17  18
ATOM     18  C   UNL     1      -9.425   8.143  69.671  0.00  0.00    +0.065 C 
BRANCH  18  19
ATOM     19  C   UNL     1     -10.495   7.981  70.714  0.00  0.00    +0.207 C 
BRANCH  19  20
ATOM     20  O   UNL     1     -10.721   9.167  71.454  0.00  0.00    -0.472 OA
BRANCH  20  22
ATOM     21  C   UNL     1     -12.837  10.341  71.691  0.00  0.00    +0.172 A 
ATOM     22  C   UNL     1     -11.670  10.079  70.982  0.00  0.00    +0.172 A 
ATOM     23  C   UNL     1     -11.374  10.997  69.980  0.00  0.00    +0.040 A 
ATOM     24  C   UNL     1     -12.025  12.224  69.943  0.00  0.00    +0.006 A 
ATOM     25  C   UNL     1     -12.764  12.653  71.038  0.00  0.00    +0.038 A 
ATOM     26  C   UNL     1     -13.313  11.640  71.815  0.00  0.00    +0.043 A 
BRANCH  25  27
ATOM     27  C   UNL     1     -12.703  14.035  71.526  0.00  0.00    +0.174 C 
ATOM     28  O   UNL     1     -11.574  14.609  71.493  0.00  0.00    -0.291 OA
ATOM     29  C   UNL     1     -13.675  14.574  72.518  0.00  0.00    +0.077 C 
ENDBRANCH  25  27
BRANCH  21  31
ATOM     30  C   UNL     1     -14.257   8.385  71.831  0.00  0.00    +0.253 C 
ATOM     31  O   UNL     1     -13.355   9.291  72.457  0.00  0.00    -0.468 OA
ENDBRANCH  21  31
ENDBRANCH  20  22
ENDBRANCH  19  20
ENDBRANCH  18  19
ENDBRANCH  17  18
ENDBRANCH   1  17
TORSDOF 8
ENDMDL
MODEL 6
REMARK VINA RESULT:      -6.2      3.745      6.811
REMARK  Name = 
REMARK  8 active torsions:
REMARK  status: ('A' for Active; 'I' for Inactive)
REMARK    1  A    between atoms: O_2  and  C_3
REMARK    2  A    between atoms: C_5  and  C_6
REMARK    3  A    between atoms: C_11  and  O_12
REMARK    4  A    between atoms: O_12  and  C_13
REMARK    5  A    between atoms: C_13  and  C_14
REMARK    6  A    between atoms: C_14  and  C_15
REMARK    7  A    between atoms: C_15  and  N_16
REMARK    8  A    between atoms: C_19  and  C_20
REMARK                            x       y       z     vdW  Elec       q    Type
REMARK                         _______ _______ _______ _____ _____    ______ ____
ROOT
ATOM      1  N   UNL     1      -9.762  14.754  67.690  0.00  0.00    -0.273 NA
ATOM      2  C   UNL     1     -10.351  14.405  66.401  0.00  0.00    +0.072 C 
ATOM      3  C   UNL     1     -11.804  14.100  66.655  0.00  0.00    +0.023 C 
ATOM      4  C   UNL     1     -12.015  13.661  68.087  0.00  0.00    +0.046 C 
ATOM      5  C   UNL     1     -10.886  12.789  68.592  0.00  0.00    +0.023 C 
ATOM      6  C   UNL     1      -9.552  13.499  68.406  0.00  0.00    +0.072 C 
ENDROOT
BRANCH   4   7
ATOM      7  C   UNL     1     -12.188  14.870  68.953  0.00  0.00    +0.100 A 
ATOM      8  C   UNL     1     -12.260  14.788  70.335  0.00  0.00    +0.054 A 
ATOM      9  C   UNL     1     -11.675  15.932  70.863  0.00  0.00    +0.179 A 
ATOM     10  C   UNL     1     -11.825  16.160  72.222  0.00  0.00    +0.070 A 
ATOM     11  C   UNL     1     -12.782  15.434  72.911  0.00  0.00    +0.143 A 
ATOM     12  C   UNL     1     -13.070  14.148  72.487  0.00  0.00    +0.030 A 
ATOM     13  F   UNL     1     -13.222  15.855  74.111  0.00  0.00    -0.204 F 
ATOM     14  O   UNL     1     -11.274  16.630  69.833  0.00  0.00    -0.354 OA
ATOM     15  C   UNL     1     -12.925  13.871  71.133  0.00  0.00    +0.007 A 
ATOM     16  N   UNL     1     -11.743  16.128  68.720  0.00  0.00    -0.081 NA
ENDBRANCH   4   7
BRANCH   1  17
ATOM     17  C   UNL     1      -8.458  15.329  67.468  0.00  0.00    +0.076 C 
BRANCH  17  18
ATOM     18  C   UNL     1      -8.406  16.083  66.145  0.00  0.00    +0.065 C 
BRANCH  18  19
ATOM     19  C   UNL     1      -7.246  17.040  66.149  0.00  0.00    +0.207 C 
BRANCH  19  20
ATOM     20  O   UNL     1      -7.595  18.322  65.659  0.00  0.00    -0.472 OA
BRANCH  20  22
ATOM     21  C   UNL     1      -8.184  19.486  67.709  0.00  0.00    +0.172 A 
ATOM     22  C   UNL     1      -7.475  19.420  66.515  0.00  0.00    +0.172 A 
ATOM     23  C   UNL     1      -6.433  20.333  66.401  0.00  0.00    +0.040 A 
ATOM     24  C   UNL     1      -5.964  21.003  67.525  0.00  0.00    +0.006 A 
ATOM     25  C   UNL     1      -6.336  20.577  68.794  0.00  0.00    +0.038 A 
ATOM     26  C   UNL     1      -7.576  19.952  68.868  0.00  0.00    +0.043 A 
BRANCH  25  27
ATOM     27  C   UNL     1      -5.377  20.495  69.901  0.00  0.00    +0.174 C 
ATOM     28  O   UNL     1      -5.844  20.577  71.075  0.00  0.00    -0.291 OA
ATOM     29  C   UNL     1      -3.946  20.874  69.745  0.00  0.00    +0.077 C 
ENDBRANCH  25  27
BRANCH  21  31
ATOM     30  C   UNL     1     -10.590  19.626  67.480  0.00  0.00    +0.253 C 
ATOM     31  O   UNL     1      -9.428  18.846  67.738  0.00  0.00    -0.468 OA
ENDBRANCH  21  31
ENDBRANCH  20  22
ENDBRANCH  19  20
ENDBRANCH  18  19
ENDBRANCH  17  18
ENDBRANCH   1  17
TORSDOF 8
ENDMDL
MODEL 7
REMARK VINA RESULT:      -6.2      2.138      3.432
REMARK  Name = 
REMARK  8 active torsions:
REMARK  status: ('A' for Active; 'I' for Inactive)
REMARK    1  A    between atoms: O_2  and  C_3
REMARK    2  A    between atoms: C_5  and  C_6
REMARK    3  A    between atoms: C_11  and  O_12
REMARK    4  A    between atoms: O_12  and  C_13
REMARK    5  A    between atoms: C_13  and  C_14
REMARK    6  A    between atoms: C_14  and  C_15
REMARK    7  A    between atoms: C_15  and  N_16
REMARK    8  A    between atoms: C_19  and  C_20
REMARK                            x       y       z     vdW  Elec       q    Type
REMARK                         _______ _______ _______ _____ _____    ______ ____
ROOT
ATOM      1  N   UNL     1      -7.847  10.297  66.848  0.00  0.00    -0.273 NA
ATOM      2  C   UNL     1      -7.621   9.751  65.514  0.00  0.00    +0.072 C 
ATOM      3  C   UNL     1      -8.975   9.604  64.869  0.00  0.00    +0.023 C 
ATOM      4  C   UNL     1     -10.054   9.463  65.920  0.00  0.00    +0.046 C 
ATOM      5  C   UNL     1      -9.602   8.625  67.097  0.00  0.00    +0.023 C 
ATOM      6  C   UNL     1      -8.314   9.191  67.679  0.00  0.00    +0.072 C 
ENDROOT
BRANCH   4   7
ATOM      7  C   UNL     1     -10.490  10.824  66.365  0.00  0.00    +0.100 A 
ATOM      8  C   UNL     1     -11.147  11.705  65.520  0.00  0.00    +0.054 A 
ATOM      9  C   UNL     1     -12.039  12.447  66.285  0.00  0.00    +0.179 A 
ATOM     10  C   UNL     1     -12.651  13.534  65.680  0.00  0.00    +0.070 A 
ATOM     11  C   UNL     1     -12.129  14.006  64.487  0.00  0.00    +0.143 A 
ATOM     12  C   UNL     1     -11.528  13.105  63.625  0.00  0.00    +0.030 A 
ATOM     13  F   UNL     1     -12.433  15.243  64.055  0.00  0.00    -0.204 F 
ATOM     14  O   UNL     1     -11.909  12.002  67.507  0.00  0.00    -0.354 OA
ATOM     15  C   UNL     1     -10.909  11.995  64.186  0.00  0.00    +0.007 A 
ATOM     16  N   UNL     1     -10.875  11.207  67.606  0.00  0.00    -0.081 NA
ENDBRANCH   4   7
BRANCH   1  17
ATOM     17  C   UNL     1      -6.584  10.725  67.398  0.00  0.00    +0.076 C 
BRANCH  17  18
ATOM     18  C   UNL     1      -6.733  12.029  68.173  0.00  0.00    +0.065 C 
BRANCH  18  19
ATOM     19  C   UNL     1      -7.587  12.990  67.393  0.00  0.00    +0.207 C 
BRANCH  19  20
ATOM     20  O   UNL     1      -8.461  13.738  68.219  0.00  0.00    -0.472 OA
BRANCH  20  22
ATOM     21  C   UNL     1     -10.456  15.121  68.335  0.00  0.00    +0.172 A 
ATOM     22  C   UNL     1      -9.404  14.572  67.611  0.00  0.00    +0.172 A 
ATOM     23  C   UNL     1      -9.181  15.153  66.368  0.00  0.00    +0.040 A 
ATOM     24  C   UNL     1      -9.756  16.379  66.057  0.00  0.00    +0.006 A 
ATOM     25  C   UNL     1     -10.326  17.154  67.059  0.00  0.00    +0.038 A 
ATOM     26  C   UNL     1     -10.834  16.444  68.140  0.00  0.00    +0.043 A 
BRANCH  25  27
ATOM     27  C   UNL     1     -10.123  18.605  67.132  0.00  0.00    +0.174 C 
ATOM     28  O   UNL     1     -11.091  19.303  67.555  0.00  0.00    -0.291 OA
ATOM     29  C   UNL     1      -9.142  19.317  66.266  0.00  0.00    +0.077 C 
ENDBRANCH  25  27
BRANCH  21  31
ATOM     30  C   UNL     1     -12.181  14.748  69.992  0.00  0.00    +0.253 C 
ATOM     31  O   UNL     1     -10.937  14.370  69.413  0.00  0.00    -0.468 OA
ENDBRANCH  21  31
ENDBRANCH  20  22
ENDBRANCH  19  20
ENDBRANCH  18  19
ENDBRANCH  17  18
ENDBRANCH   1  17
TORSDOF 8
ENDMDL
MODEL 8
REMARK VINA RESULT:      -6.1      3.879      7.293
REMARK  Name = 
REMARK  8 active torsions:
REMARK  status: ('A' for Active; 'I' for Inactive)
REMARK    1  A    between atoms: O_2  and  C_3
REMARK    2  A    between atoms: C_5  and  C_6
REMARK    3  A    between atoms: C_11  and  O_12
REMARK    4  A    between atoms: O_12  and  C_13
REMARK    5  A    between atoms: C_13  and  C_14
REMARK    6  A    between atoms: C_14  and  C_15
REMARK    7  A    between atoms: C_15  and  N_16
REMARK    8  A    between atoms: C_19  and  C_20
REMARK                            x       y       z     vdW  Elec       q    Type
REMARK                         _______ _______ _______ _____ _____    ______ ____
ROOT
ATOM      1  N   UNL     1      -7.899  19.680  67.059  0.00  0.00    -0.273 NA
ATOM      2  C   UNL     1      -7.414  19.295  65.737  0.00  0.00    +0.072 C 
ATOM      3  C   UNL     1      -6.155  18.496  65.953  0.00  0.00    +0.023 C 
ATOM      4  C   UNL     1      -5.508  18.865  67.270  0.00  0.00    +0.046 C 
ATOM      5  C   UNL     1      -5.610  20.346  67.564  0.00  0.00    +0.023 C 
ATOM      6  C   UNL     1      -7.064  20.793  67.501  0.00  0.00    +0.072 C 
ENDROOT
BRANCH   4   7
ATOM      7  C   UNL     1      -6.127  18.055  68.367  0.00  0.00    +0.100 A 
ATOM      8  C   UNL     1      -6.292  16.681  68.271  0.00  0.00    +0.054 A 
ATOM      9  C   UNL     1      -6.143  16.143  69.543  0.00  0.00    +0.179 A 
ATOM     10  C   UNL     1      -6.477  14.808  69.717  0.00  0.00    +0.070 A 
ATOM     11  C   UNL     1      -7.216  14.179  68.729  0.00  0.00    +0.143 A 
ATOM     12  C   UNL     1      -7.049  14.585  67.417  0.00  0.00    +0.030 A 
ATOM     13  F   UNL     1      -7.871  13.034  68.996  0.00  0.00    -0.204 F 
ATOM     14  O   UNL     1      -5.891  17.157  70.328  0.00  0.00    -0.354 OA
ATOM     15  C   UNL     1      -6.706  15.913  67.194  0.00  0.00    +0.007 A 
ATOM     16  N   UNL     1      -6.079  18.289  69.700  0.00  0.00    -0.081 NA
ENDBRANCH   4   7
BRANCH   1  17
ATOM     17  C   UNL     1      -9.242  20.194  66.932  0.00  0.00    +0.076 C 
BRANCH  17  18
ATOM     18  C   UNL     1     -10.058  19.917  68.189  0.00  0.00    +0.065 C 
BRANCH  18  19
ATOM     19  C   UNL     1      -9.798  18.515  68.667  0.00  0.00    +0.207 C 
BRANCH  19  20
ATOM     20  O   UNL     1     -10.791  17.599  68.239  0.00  0.00    -0.472 OA
BRANCH  20  22
ATOM     21  C   UNL     1     -10.695  15.197  67.886  0.00  0.00    +0.172 A 
ATOM     22  C   UNL     1     -10.397  16.493  67.481  0.00  0.00    +0.172 A 
ATOM     23  C   UNL     1      -9.985  16.615  66.159  0.00  0.00    +0.040 A 
ATOM     24  C   UNL     1     -10.187  15.570  65.266  0.00  0.00    +0.006 A 
ATOM     25  C   UNL     1     -11.030  14.518  65.604  0.00  0.00    +0.038 A 
ATOM     26  C   UNL     1     -11.124  14.249  66.964  0.00  0.00    +0.043 A 
BRANCH  25  27
ATOM     27  C   UNL     1     -11.989  13.951  64.650  0.00  0.00    +0.174 C 
ATOM     28  O   UNL     1     -12.685  14.768  63.977  0.00  0.00    -0.291 OA
ATOM     29  C   UNL     1     -12.571  12.590  64.819  0.00  0.00    +0.077 C 
ENDBRANCH  25  27
BRANCH  21  31
ATOM     30  C   UNL     1     -12.055  14.691  69.824  0.00  0.00    +0.253 C 
ATOM     31  O   UNL     1     -10.776  14.971  69.264  0.00  0.00    -0.468 OA
ENDBRANCH  21  31
ENDBRANCH  20  22
ENDBRANCH  19  20
ENDBRANCH  18  19
ENDBRANCH  17  18
ENDBRANCH   1  17
TORSDOF 8
ENDMDL
MODEL 9
REMARK VINA RESULT:      -6.1      3.430      6.856
REMARK  Name = 
REMARK  8 active torsions:
REMARK  status: ('A' for Active; 'I' for Inactive)
REMARK    1  A    between atoms: O_2  and  C_3
REMARK    2  A    between atoms: C_5  and  C_6
REMARK    3  A    between atoms: C_11  and  O_12
REMARK    4  A    between atoms: O_12  and  C_13
REMARK    5  A    between atoms: C_13  and  C_14
REMARK    6  A    between atoms: C_14  and  C_15
REMARK    7  A    between atoms: C_15  and  N_16
REMARK    8  A    between atoms: C_19  and  C_20
REMARK                            x       y       z     vdW  Elec       q    Type
REMARK                         _______ _______ _______ _____ _____    ______ ____
ROOT
ATOM      1  N   UNL     1      -9.767  12.138  68.312  0.00  0.00    -0.273 NA
ATOM      2  C   UNL     1      -9.133  13.358  67.821  0.00  0.00    +0.072 C 
ATOM      3  C   UNL     1     -10.053  14.498  68.174  0.00  0.00    +0.023 C 
ATOM      4  C   UNL     1     -11.477  14.009  68.317  0.00  0.00    +0.046 C 
ATOM      5  C   UNL     1     -11.826  12.951  67.294  0.00  0.00    +0.023 C 
ATOM      6  C   UNL     1     -10.824  11.806  67.362  0.00  0.00    +0.072 C 
ENDROOT
BRANCH   4   7
ATOM      7  C   UNL     1     -11.686  13.501  69.709  0.00  0.00    +0.100 A 
ATOM      8  C   UNL     1     -12.073  14.330  70.751  0.00  0.00    +0.054 A 
ATOM      9  C   UNL     1     -12.878  13.592  71.609  0.00  0.00    +0.179 A 
ATOM     10  C   UNL     1     -13.205  14.162  72.830  0.00  0.00    +0.070 A 
ATOM     11  C   UNL     1     -12.484  15.264  73.258  0.00  0.00    +0.143 A 
ATOM     12  C   UNL     1     -11.983  16.137  72.307  0.00  0.00    +0.030 A 
ATOM     13  F   UNL     1     -12.499  15.625  74.554  0.00  0.00    -0.204 F 
ATOM     14  O   UNL     1     -12.961  12.401  71.078  0.00  0.00    -0.354 OA
ATOM     15  C   UNL     1     -11.649  15.612  71.066  0.00  0.00    +0.007 A 
ATOM     16  N   UNL     1     -12.115  12.273  70.089  0.00  0.00    -0.081 NA
ENDBRANCH   4   7
BRANCH   1  17
ATOM     17  C   UNL     1      -8.809  11.060  68.261  0.00  0.00    +0.076 C 
BRANCH  17  18
ATOM     18  C   UNL     1      -9.425   9.804  67.660  0.00  0.00    +0.065 C 
BRANCH  18  19
ATOM     19  C   UNL     1      -9.602   8.761  68.729  0.00  0.00    +0.207 C 
BRANCH  19  20
ATOM     20  O   UNL     1     -10.713   9.021  69.567  0.00  0.00    -0.472 OA
BRANCH  20  22
ATOM     21  C   UNL     1     -11.604   8.654  71.799  0.00  0.00    +0.172 A 
ATOM     22  C   UNL     1     -10.539   8.940  70.952  0.00  0.00    +0.172 A 
ATOM     23  C   UNL     1      -9.281   8.817  71.530  0.00  0.00    +0.040 A 
ATOM     24  C   UNL     1      -9.130   8.148  72.738  0.00  0.00    +0.006 A 
ATOM     25  C   UNL     1     -10.168   7.372  73.239  0.00  0.00    +0.038 A 
ATOM     26  C   UNL     1     -11.443   7.780  72.867  0.00  0.00    +0.043 A 
BRANCH  25  27
ATOM     27  C   UNL     1      -9.937   6.052  73.835  0.00  0.00    +0.174 C 
ATOM     28  O   UNL     1     -10.323   5.045  73.172  0.00  0.00    -0.291 OA
ATOM     29  C   UNL     1      -9.818   5.852  75.306  0.00  0.00    +0.077 C 
ENDBRANCH  25  27
BRANCH  21  31
ATOM     30  C   UNL     1     -13.963   8.910  72.279  0.00  0.00    +0.253 C 
ATOM     31  O   UNL     1     -12.869   9.087  71.386  0.00  0.00    -0.468 OA
ENDBRANCH  21  31
ENDBRANCH  20  22
ENDBRANCH  19  20
ENDBRANCH  18  19
ENDBRANCH  17  18
ENDBRANCH   1  17
TORSDOF 8
ENDMDL
