MODEL 1
REMARK VINA RESULT:      -3.9      0.000      0.000
REMARK  Name = 
REMARK  2 active torsions:
REMARK  status: ('A' for Active; 'I' for Inactive)
REMARK    1  A    between atoms: CB_2  and  CA_4
REMARK    2  A    between atoms: CA_4  and  C_6
REMARK                            x       y       z     vdW  Elec       q    Type
REMARK                         _______ _______ _______ _____ _____    ______ ____
ROOT
ATOM      1  CA  VAL A   1     -13.674  14.329  72.341  0.00  0.00    +0.194 C 
ATOM      2  N   VAL A   1     -14.534  15.551  71.823  0.00  0.00    -0.121 NA
ENDROOT
BRANCH   1   4
ATOM      3  CG1 VAL A   1     -12.349  13.105  70.682  0.00  0.00    +0.002 C 
ATOM      4  CB  VAL A   1     -12.619  14.356  71.088  0.00  0.00    +0.029 C 
ATOM      5  CG2 VAL A   1     -12.478  15.587  70.446  0.00  0.00    +0.002 C 
ENDBRANCH   1   4
BRANCH   1   6
ATOM      6  C   VAL A   1     -12.771  15.258  73.306  0.00  0.00    +0.382 C 
ATOM      7  OXT VAL A   1     -13.539  16.384  73.665  0.00  0.00    -0.244 OA
ATOM      8  O   VAL A   1     -12.258  14.772  74.320  0.00  0.00    -0.244 OA
ENDBRANCH   1   6
TORSDOF 2
ENDMDL
MODEL 2
REMARK VINA RESULT:      -3.9      1.932      2.487
REMARK  Name = 
REMARK  2 active torsions:
REMARK  status: ('A' for Active; 'I' for Inactive)
REMARK    1  A    between atoms: CB_2  and  CA_4
REMARK    2  A    between atoms: CA_4  and  C_6
REMARK                            x       y       z     vdW  Elec       q    Type
REMARK                         _______ _______ _______ _____ _____    ______ ____
ROOT
ATOM      1  CA  VAL A   1     -13.545  15.179  71.060  0.00  0.00    +0.194 C 
ATOM      2  N   VAL A   1     -14.332  15.762  72.300  0.00  0.00    -0.121 NA
ENDROOT
BRANCH   1   4
ATOM      3  CG1 VAL A   1     -12.031  16.141  72.730  0.00  0.00    +0.002 C 
ATOM      4  CB  VAL A   1     -12.141  15.949  71.406  0.00  0.00    +0.029 C 
ATOM      5  CG2 VAL A   1     -11.183  15.938  70.391  0.00  0.00    +0.002 C 
ENDBRANCH   1   4
BRANCH   1   6
ATOM      6  C   VAL A   1     -13.153  13.816  71.835  0.00  0.00    +0.382 C 
ATOM      7  OXT VAL A   1     -14.276  13.406  72.581  0.00  0.00    -0.244 OA
ATOM      8  O   VAL A   1     -12.710  12.855  71.198  0.00  0.00    -0.244 OA
ENDBRANCH   1   6
TORSDOF 2
ENDMDL
MODEL 3
REMARK VINA RESULT:      -3.9      6.952      7.635
REMARK  Name = 
REMARK  2 active torsions:
REMARK  status: ('A' for Active; 'I' for Inactive)
REMARK    1  A    between atoms: CB_2  and  CA_4
REMARK    2  A    between atoms: CA_4  and  C_6
REMARK                            x       y       z     vdW  Elec       q    Type
REMARK                         _______ _______ _______ _____ _____    ______ ____
ROOT
ATOM      1  CA  VAL A   1     -10.743  14.605  65.089  0.00  0.00    +0.194 C 
ATOM      2  N   VAL A   1     -10.413  16.151  65.120  0.00  0.00    -0.121 NA
ENDROOT
BRANCH   1   4
ATOM      3  CG1 VAL A   1     -11.819  13.332  66.887  0.00  0.00    +0.002 C 
ATOM      4  CB  VAL A   1     -11.331  14.554  66.618  0.00  0.00    +0.029 C 
ATOM      5  CG2 VAL A   1     -10.915  15.588  67.457  0.00  0.00    +0.002 C 
ENDBRANCH   1   4
BRANCH   1   6
ATOM      6  C   VAL A   1     -12.183  14.836  64.392  0.00  0.00    +0.382 C 
ATOM      7  OXT VAL A   1     -12.196  16.135  63.847  0.00  0.00    -0.244 OA
ATOM      8  O   VAL A   1     -12.591  14.032  63.547  0.00  0.00    -0.244 OA
ENDBRANCH   1   6
TORSDOF 2
ENDMDL
MODEL 4
REMARK VINA RESULT:      -3.8      7.183      7.923
REMARK  Name = 
REMARK  2 active torsions:
REMARK  status: ('A' for Active; 'I' for Inactive)
REMARK    1  A    between atoms: CB_2  and  CA_4
REMARK    2  A    between atoms: CA_4  and  C_6
REMARK                            x       y       z     vdW  Elec       q    Type
REMARK                         _______ _______ _______ _____ _____    ______ ____
ROOT
ATOM      1  CA  VAL A   1     -10.496  14.415  64.749  0.00  0.00    +0.194 C 
ATOM      2  N   VAL A   1     -10.397  14.202  66.312  0.00  0.00    -0.121 NA
ENDROOT
BRANCH   1   4
ATOM      3  CG1 VAL A   1     -11.999  12.889  63.556  0.00  0.00    +0.002 C 
ATOM      4  CB  VAL A   1     -11.977  13.728  64.604  0.00  0.00    +0.029 C 
ATOM      5  CG2 VAL A   1     -12.797  13.823  65.729  0.00  0.00    +0.002 C 
ENDBRANCH   1   4
BRANCH   1   6
ATOM      6  C   VAL A   1     -11.055  15.924  64.899  0.00  0.00    +0.382 C 
ATOM      7  OXT VAL A   1     -10.022  16.714  65.443  0.00  0.00    -0.244 OA
ATOM      8  O   VAL A   1     -11.538  16.499  63.918  0.00  0.00    -0.244 OA
ENDBRANCH   1   6
TORSDOF 2
ENDMDL
MODEL 5
REMARK VINA RESULT:      -3.8      7.115      7.823
REMARK  Name = 
REMARK  2 active torsions:
REMARK  status: ('A' for Active; 'I' for Inactive)
REMARK    1  A    between atoms: CB_2  and  CA_4
REMARK    2  A    between atoms: CA_4  and  C_6
REMARK                            x       y       z     vdW  Elec       q    Type
REMARK                         _______ _______ _______ _____ _____    ______ ____
ROOT
ATOM      1  CA  VAL A   1     -12.307  14.385  65.053  0.00  0.00    +0.194 C 
ATOM      2  N   VAL A   1     -12.530  14.015  63.532  0.00  0.00    -0.121 NA
ENDROOT
BRANCH   1   4
ATOM      3  CG1 VAL A   1     -11.643  12.521  66.500  0.00  0.00    +0.002 C 
ATOM      4  CB  VAL A   1     -11.294  13.133  65.358  0.00  0.00    +0.029 C 
ATOM      5  CG2 VAL A   1     -10.531  12.699  64.273  0.00  0.00    +0.002 C 
ENDBRANCH   1   4
BRANCH   1   6
ATOM      6  C   VAL A   1     -11.130  15.440  64.717  0.00  0.00    +0.382 C 
ATOM      7  OXT VAL A   1     -11.682  16.464  63.922  0.00  0.00    -0.244 OA
ATOM      8  O   VAL A   1     -10.477  15.942  65.638  0.00  0.00    -0.244 OA
ENDBRANCH   1   6
TORSDOF 2
ENDMDL
MODEL 6
REMARK VINA RESULT:      -3.7      7.479      7.880
REMARK  Name = 
REMARK  2 active torsions:
REMARK  status: ('A' for Active; 'I' for Inactive)
REMARK    1  A    between atoms: CB_2  and  CA_4
REMARK    2  A    between atoms: CA_4  and  C_6
REMARK                            x       y       z     vdW  Elec       q    Type
REMARK                         _______ _______ _______ _____ _____    ______ ____
ROOT
ATOM      1  CA  VAL A   1     -12.600  13.949  65.622  0.00  0.00    +0.194 C 
ATOM      2  N   VAL A   1     -13.121  12.643  64.900  0.00  0.00    -0.121 NA
ENDROOT
BRANCH   1   4
ATOM      3  CG1 VAL A   1     -11.177  11.996  66.032  0.00  0.00    +0.002 C 
ATOM      4  CB  VAL A   1     -11.123  13.336  65.979  0.00  0.00    +0.029 C 
ATOM      5  CG2 VAL A   1     -10.050  14.211  65.804  0.00  0.00    +0.002 C 
ENDBRANCH   1   4
BRANCH   1   6
ATOM      6  C   VAL A   1     -12.135  14.638  64.236  0.00  0.00    +0.382 C 
ATOM      7  OXT VAL A   1     -12.503  13.778  63.182  0.00  0.00    -0.244 OA
ATOM      8  O   VAL A   1     -12.499  15.789  63.972  0.00  0.00    -0.244 OA
ENDBRANCH   1   6
TORSDOF 2
ENDMDL
MODEL 7
REMARK VINA RESULT:      -3.7      1.669      2.349
REMARK  Name = 
REMARK  2 active torsions:
REMARK  status: ('A' for Active; 'I' for Inactive)
REMARK    1  A    between atoms: CB_2  and  CA_4
REMARK    2  A    between atoms: CA_4  and  C_6
REMARK                            x       y       z     vdW  Elec       q    Type
REMARK                         _______ _______ _______ _____ _____    ______ ____
ROOT
ATOM      1  CA  VAL A   1     -12.857  15.372  71.220  0.00  0.00    +0.194 C 
ATOM      2  N   VAL A   1     -11.991  15.370  72.543  0.00  0.00    -0.121 NA
ENDROOT
BRANCH   1   4
ATOM      3  CG1 VAL A   1     -11.988  13.426  70.009  0.00  0.00    +0.002 C 
ATOM      4  CB  VAL A   1     -12.814  13.747  71.018  0.00  0.00    +0.029 C 
ATOM      5  CG2 VAL A   1     -13.302  12.994  72.087  0.00  0.00    +0.002 C 
ENDBRANCH   1   4
BRANCH   1   6
ATOM      6  C   VAL A   1     -14.256  15.376  72.029  0.00  0.00    +0.382 C 
ATOM      7  OXT VAL A   1     -14.134  16.286  73.098  0.00  0.00    -0.244 OA
ATOM      8  O   VAL A   1     -15.312  15.593  71.425  0.00  0.00    -0.244 OA
ENDBRANCH   1   6
TORSDOF 2
ENDMDL
MODEL 8
REMARK VINA RESULT:      -3.7      7.918      8.587
REMARK  Name = 
REMARK  2 active torsions:
REMARK  status: ('A' for Active; 'I' for Inactive)
REMARK    1  A    between atoms: CB_2  and  CA_4
REMARK    2  A    between atoms: CA_4  and  C_6
REMARK                            x       y       z     vdW  Elec       q    Type
REMARK                         _______ _______ _______ _____ _____    ______ ____
ROOT
ATOM      1  CA  VAL A   1     -11.031  12.887  65.154  0.00  0.00    +0.194 C 
ATOM      2  N   VAL A   1     -12.018  12.199  66.181  0.00  0.00    -0.121 NA
ENDROOT
BRANCH   1   4
ATOM      3  CG1 VAL A   1     -10.034  11.662  63.280  0.00  0.00    +0.002 C 
ATOM      4  CB  VAL A   1     -10.461  11.479  64.539  0.00  0.00    +0.029 C 
ATOM      5  CG2 VAL A   1     -10.176  10.485  65.476  0.00  0.00    +0.002 C 
ENDBRANCH   1   4
BRANCH   1   6
ATOM      6  C   VAL A   1     -12.182  13.073  64.035  0.00  0.00    +0.382 C 
ATOM      7  OXT VAL A   1     -13.299  12.311  64.433  0.00  0.00    -0.244 OA
ATOM      8  O   VAL A   1     -12.552  14.209  63.721  0.00  0.00    -0.244 OA
ENDBRANCH   1   6
TORSDOF 2
ENDMDL
MODEL 9
REMARK VINA RESULT:      -3.6      1.529      2.230
REMARK  Name = 
REMARK  2 active torsions:
REMARK  status: ('A' for Active; 'I' for Inactive)
REMARK    1  A    between atoms: CB_2  and  CA_4
REMARK    2  A    between atoms: CA_4  and  C_6
REMARK                            x       y       z     vdW  Elec       q    Type
REMARK                         _______ _______ _______ _____ _____    ______ ____
ROOT
ATOM      1  CA  VAL A   1     -12.596  16.035  72.096  0.00  0.00    +0.194 C 
ATOM      2  N   VAL A   1     -11.224  15.250  72.117  0.00  0.00    -0.121 NA
ENDROOT
BRANCH   1   4
ATOM      3  CG1 VAL A   1     -14.791  15.052  71.622  0.00  0.00    +0.002 C 
ATOM      4  CB  VAL A   1     -13.480  14.765  71.559  0.00  0.00    +0.029 C 
ATOM      5  CG2 VAL A   1     -12.778  13.811  70.821  0.00  0.00    +0.002 C 
ENDBRANCH   1   4
BRANCH   1   6
ATOM      6  C   VAL A   1     -12.883  15.756  73.661  0.00  0.00    +0.382 C 
ATOM      7  OXT VAL A   1     -12.142  14.619  74.040  0.00  0.00    -0.244 OA
ATOM      8  O   VAL A   1     -12.704  16.656  74.488  0.00  0.00    -0.244 OA
ENDBRANCH   1   6
TORSDOF 2
ENDMDL
