MODEL 1
REMARK VINA RESULT:      -6.1      0.000      0.000
REMARK  Name = 
REMARK  6 active torsions:
REMARK  status: ('A' for Active; 'I' for Inactive)
REMARK    1  A    between atoms: C_2  and  N_3
REMARK    2  A    between atoms: N_3  and  C_4
REMARK    3  A    between atoms: N_3  and  C_6
REMARK    4  A    between atoms: C_6  and  C_7
REMARK    5  A    between atoms: C_7  and  N_8
REMARK    6  A    between atoms: C_9  and  C_11
REMARK                            x       y       z     vdW  Elec       q    Type
REMARK                         _______ _______ _______ _____ _____    ______ ____
ROOT
ATOM      1  N   UNL     1     -12.215  13.700  68.698  0.00  0.00    -0.200 NA
ATOM      2  C   UNL     1     -11.868  12.746  67.687  0.00  0.00    +0.265 C 
ATOM      3  O   UNL     1     -12.089  11.551  67.976  0.00  0.00    -0.268 OA
ENDROOT
BRANCH   2   4
ATOM      4  C   UNL     1     -11.438  13.192  66.358  0.00  0.00    +0.055 A 
ATOM      5  C   UNL     1     -12.390  13.509  65.395  0.00  0.00    +0.006 A 
ATOM      6  C   UNL     1     -12.168  14.536  64.484  0.00  0.00    +0.018 A 
ATOM      7  C   UNL     1     -11.117  15.420  64.663  0.00  0.00    +0.089 A 
ATOM      8  N   UNL     1     -11.264  16.825  64.448  0.00  0.00    -0.128 NA
ATOM      9  C   UNL     1     -10.043  14.929  65.393  0.00  0.00    +0.018 A 
ATOM     10  C   UNL     1     -10.191  13.767  66.142  0.00  0.00    +0.006 A 
ENDBRANCH   2   4
BRANCH   1  11
ATOM     11  C   UNL     1     -11.878  13.442  70.091  0.00  0.00    +0.133 C 
BRANCH  11  12
ATOM     12  C   UNL     1     -12.133  14.731  70.833  0.00  0.00    +0.096 C 
BRANCH  12  13
ATOM     13  N   UNL     1     -12.567  14.498  72.202  0.00  0.00    -0.271 NA
BRANCH  13  14
ATOM     14  C   UNL     1     -13.920  13.956  72.117  0.00  0.00    +0.072 C 
ATOM     15  C   UNL     1     -14.871  15.022  71.591  0.00  0.00    +0.019 C 
ENDBRANCH  13  14
BRANCH  13  17
ATOM     16  C   UNL     1     -12.470  15.710  74.320  0.00  0.00    +0.019 C 
ATOM     17  C   UNL     1     -12.679  15.815  72.827  0.00  0.00    +0.072 C 
ENDBRANCH  13  17
ENDBRANCH  12  13
ENDBRANCH  11  12
ENDBRANCH   1  11
TORSDOF 6
ENDMDL
MODEL 2
REMARK VINA RESULT:      -5.8      3.254      4.802
REMARK  Name = 
REMARK  6 active torsions:
REMARK  status: ('A' for Active; 'I' for Inactive)
REMARK    1  A    between atoms: C_2  and  N_3
REMARK    2  A    between atoms: N_3  and  C_4
REMARK    3  A    between atoms: N_3  and  C_6
REMARK    4  A    between atoms: C_6  and  C_7
REMARK    5  A    between atoms: C_7  and  N_8
REMARK    6  A    between atoms: C_9  and  C_11
REMARK                            x       y       z     vdW  Elec       q    Type
REMARK                         _______ _______ _______ _____ _____    ______ ____
ROOT
ATOM      1  N   UNL     1     -10.000  16.838  65.608  0.00  0.00    -0.200 NA
ATOM      2  C   UNL     1     -10.901  16.046  64.826  0.00  0.00    +0.265 C 
ATOM      3  O   UNL     1     -11.611  16.679  64.016  0.00  0.00    -0.268 OA
ENDROOT
BRANCH   2   4
ATOM      4  C   UNL     1     -10.850  14.582  64.885  0.00  0.00    +0.055 A 
ATOM      5  C   UNL     1      -9.891  13.956  65.674  0.00  0.00    +0.006 A 
ATOM      6  C   UNL     1     -10.177  12.768  66.337  0.00  0.00    +0.018 A 
ATOM      7  C   UNL     1     -11.481  12.311  66.430  0.00  0.00    +0.089 A 
ATOM      8  N   UNL     1     -12.007  11.761  67.639  0.00  0.00    -0.128 NA
ATOM      9  C   UNL     1     -12.335  12.737  65.421  0.00  0.00    +0.018 A 
ATOM     10  C   UNL     1     -11.959  13.793  64.599  0.00  0.00    +0.006 A 
ENDBRANCH   2   4
BRANCH   1  11
ATOM     11  C   UNL     1     -10.453  18.090  66.198  0.00  0.00    +0.133 C 
BRANCH  11  12
ATOM     12  C   UNL     1     -10.036  18.048  67.648  0.00  0.00    +0.096 C 
BRANCH  12  13
ATOM     13  N   UNL     1      -9.827  16.687  68.120  0.00  0.00    -0.271 NA
BRANCH  13  14
ATOM     14  C   UNL     1     -10.862  16.436  69.120  0.00  0.00    +0.072 C 
ATOM     15  C   UNL     1     -11.794  15.335  68.632  0.00  0.00    +0.019 C 
ENDBRANCH  13  14
BRANCH  13  17
ATOM     16  C   UNL     1      -8.001  15.284  68.932  0.00  0.00    +0.019 C 
ATOM     17  C   UNL     1      -8.548  16.689  68.827  0.00  0.00    +0.072 C 
ENDBRANCH  13  17
ENDBRANCH  12  13
ENDBRANCH  11  12
ENDBRANCH   1  11
TORSDOF 6
ENDMDL
MODEL 3
REMARK VINA RESULT:      -5.6      1.614      6.976
REMARK  Name = 
REMARK  6 active torsions:
REMARK  status: ('A' for Active; 'I' for Inactive)
REMARK    1  A    between atoms: C_2  and  N_3
REMARK    2  A    between atoms: N_3  and  C_4
REMARK    3  A    between atoms: N_3  and  C_6
REMARK    4  A    between atoms: C_6  and  C_7
REMARK    5  A    between atoms: C_7  and  N_8
REMARK    6  A    between atoms: C_9  and  C_11
REMARK                            x       y       z     vdW  Elec       q    Type
REMARK                         _______ _______ _______ _____ _____    ______ ____
ROOT
ATOM      1  N   UNL     1     -11.730  14.108  68.512  0.00  0.00    -0.200 NA
ATOM      2  C   UNL     1     -12.215  13.865  69.838  0.00  0.00    +0.265 C 
ATOM      3  O   UNL     1     -12.069  12.698  70.259  0.00  0.00    -0.268 OA
ENDROOT
BRANCH   2   4
ATOM      4  C   UNL     1     -12.695  14.972  70.669  0.00  0.00    +0.055 A 
ATOM      5  C   UNL     1     -13.846  14.813  71.433  0.00  0.00    +0.006 A 
ATOM      6  C   UNL     1     -13.965  15.419  72.680  0.00  0.00    +0.018 A 
ATOM      7  C   UNL     1     -12.861  15.985  73.294  0.00  0.00    +0.089 A 
ATOM      8  N   UNL     1     -12.601  15.817  74.689  0.00  0.00    -0.128 NA
ATOM      9  C   UNL     1     -11.854  16.409  72.437  0.00  0.00    +0.018 A 
ATOM     10  C   UNL     1     -11.848  15.981  71.114  0.00  0.00    +0.006 A 
ENDBRANCH   2   4
BRANCH   1  11
ATOM     11  C   UNL     1     -11.993  13.146  67.451  0.00  0.00    +0.133 C 
BRANCH  11  12
ATOM     12  C   UNL     1     -10.689  12.961  66.715  0.00  0.00    +0.096 C 
BRANCH  12  13
ATOM     13  N   UNL     1     -10.850  13.085  65.274  0.00  0.00    -0.271 NA
BRANCH  13  14
ATOM     14  C   UNL     1     -10.845  14.517  64.983  0.00  0.00    +0.072 C 
ATOM     15  C   UNL     1      -9.661  15.179  65.674  0.00  0.00    +0.019 C 
ENDBRANCH  13  14
BRANCH  13  17
ATOM     16  C   UNL     1     -12.296  12.214  63.509  0.00  0.00    +0.019 C 
ATOM     17  C   UNL     1     -12.193  12.597  64.967  0.00  0.00    +0.072 C 
ENDBRANCH  13  17
ENDBRANCH  12  13
ENDBRANCH  11  12
ENDBRANCH   1  11
TORSDOF 6
ENDMDL
MODEL 4
REMARK VINA RESULT:      -5.6      1.889      2.109
REMARK  Name = 
REMARK  6 active torsions:
REMARK  status: ('A' for Active; 'I' for Inactive)
REMARK    1  A    between atoms: C_2  and  N_3
REMARK    2  A    between atoms: N_3  and  C_4
REMARK    3  A    between atoms: N_3  and  C_6
REMARK    4  A    between atoms: C_6  and  C_7
REMARK    5  A    between atoms: C_7  and  N_8
REMARK    6  A    between atoms: C_9  and  C_11
REMARK                            x       y       z     vdW  Elec       q    Type
REMARK                         _______ _______ _______ _____ _____    ______ ____
ROOT
ATOM      1  N   UNL     1     -10.482  15.167  69.617  0.00  0.00    -0.200 NA
ATOM      2  C   UNL     1     -10.849  15.433  68.258  0.00  0.00    +0.265 C 
ATOM      3  O   UNL     1     -11.068  16.632  67.984  0.00  0.00    -0.268 OA
ENDROOT
BRANCH   2   4
ATOM      4  C   UNL     1     -10.801  14.368  67.251  0.00  0.00    +0.055 A 
ATOM      5  C   UNL     1     -11.879  13.500  67.114  0.00  0.00    +0.006 A 
ATOM      6  C   UNL     1     -12.243  13.006  65.866  0.00  0.00    +0.018 A 
ATOM      7  C   UNL     1     -11.706  13.551  64.711  0.00  0.00    +0.089 A 
ATOM      8  N   UNL     1     -12.503  13.810  63.554  0.00  0.00    -0.128 NA
ATOM      9  C   UNL     1     -10.463  14.151  64.857  0.00  0.00    +0.018 A 
ATOM     10  C   UNL     1      -9.986  14.452  66.128  0.00  0.00    +0.006 A 
ENDBRANCH   2   4
BRANCH   1  11
ATOM     11  C   UNL     1     -11.199  15.816  70.706  0.00  0.00    +0.133 C 
BRANCH  11  12
ATOM     12  C   UNL     1     -12.551  15.149  70.778  0.00  0.00    +0.096 C 
BRANCH  12  13
ATOM     13  N   UNL     1     -12.846  14.652  72.114  0.00  0.00    -0.271 NA
BRANCH  13  14
ATOM     14  C   UNL     1     -14.171  14.042  72.041  0.00  0.00    +0.072 C 
ATOM     15  C   UNL     1     -15.178  15.055  71.513  0.00  0.00    +0.019 C 
ENDBRANCH  13  14
BRANCH  13  17
ATOM     16  C   UNL     1     -12.438  15.535  74.354  0.00  0.00    +0.019 C 
ATOM     17  C   UNL     1     -12.971  15.830  72.971  0.00  0.00    +0.072 C 
ENDBRANCH  13  17
ENDBRANCH  12  13
ENDBRANCH  11  12
ENDBRANCH   1  11
TORSDOF 6
ENDMDL
MODEL 5
REMARK VINA RESULT:      -5.6      2.102      2.359
REMARK  Name = 
REMARK  6 active torsions:
REMARK  status: ('A' for Active; 'I' for Inactive)
REMARK    1  A    between atoms: C_2  and  N_3
REMARK    2  A    between atoms: N_3  and  C_4
REMARK    3  A    between atoms: N_3  and  C_6
REMARK    4  A    between atoms: C_6  and  C_7
REMARK    5  A    between atoms: C_7  and  N_8
REMARK    6  A    between atoms: C_9  and  C_11
REMARK                            x       y       z     vdW  Elec       q    Type
REMARK                         _______ _______ _______ _____ _____    ______ ____
ROOT
ATOM      1  N   UNL     1     -11.131  14.703  69.070  0.00  0.00    -0.200 NA
ATOM      2  C   UNL     1     -11.354  14.844  67.662  0.00  0.00    +0.265 C 
ATOM      3  O   UNL     1     -10.931  15.903  67.153  0.00  0.00    -0.268 OA
ENDROOT
BRANCH   2   4
ATOM      4  C   UNL     1     -11.900  13.731  66.879  0.00  0.00    +0.055 A 
ATOM      5  C   UNL     1     -12.510  13.983  65.655  0.00  0.00    +0.006 A 
ATOM      6  C   UNL     1     -12.396  13.081  64.602  0.00  0.00    +0.018 A 
ATOM      7  C   UNL     1     -11.480  12.044  64.662  0.00  0.00    +0.089 A 
ATOM      8  N   UNL     1     -10.677  11.676  63.538  0.00  0.00    -0.128 NA
ATOM      9  C   UNL     1     -11.133  11.628  65.940  0.00  0.00    +0.018 A 
ATOM     10  C   UNL     1     -11.444  12.427  67.034  0.00  0.00    +0.006 A 
ENDBRANCH   2   4
BRANCH   1  11
ATOM     11  C   UNL     1     -11.369  15.828  69.963  0.00  0.00    +0.133 C 
BRANCH  11  12
ATOM     12  C   UNL     1     -12.666  15.533  70.676  0.00  0.00    +0.096 C 
BRANCH  12  13
ATOM     13  N   UNL     1     -12.448  14.931  71.983  0.00  0.00    -0.271 NA
BRANCH  13  14
ATOM     14  C   UNL     1     -13.706  14.288  72.354  0.00  0.00    +0.072 C 
ATOM     15  C   UNL     1     -14.856  14.923  71.584  0.00  0.00    +0.019 C 
ENDBRANCH  13  14
BRANCH  13  17
ATOM     16  C   UNL     1     -12.464  15.574  74.339  0.00  0.00    +0.019 C 
ATOM     17  C   UNL     1     -12.248  16.038  72.917  0.00  0.00    +0.072 C 
ENDBRANCH  13  17
ENDBRANCH  12  13
ENDBRANCH  11  12
ENDBRANCH   1  11
TORSDOF 6
ENDMDL
MODEL 6
REMARK VINA RESULT:      -5.5      3.382      3.886
REMARK  Name = 
REMARK  6 active torsions:
REMARK  status: ('A' for Active; 'I' for Inactive)
REMARK    1  A    between atoms: C_2  and  N_3
REMARK    2  A    between atoms: N_3  and  C_4
REMARK    3  A    between atoms: N_3  and  C_6
REMARK    4  A    between atoms: C_6  and  C_7
REMARK    5  A    between atoms: C_7  and  N_8
REMARK    6  A    between atoms: C_9  and  C_11
REMARK                            x       y       z     vdW  Elec       q    Type
REMARK                         _______ _______ _______ _____ _____    ______ ____
ROOT
ATOM      1  N   UNL     1     -11.239  16.845  69.197  0.00  0.00    -0.200 NA
ATOM      2  C   UNL     1     -10.825  16.593  67.849  0.00  0.00    +0.265 C 
ATOM      3  O   UNL     1     -11.098  15.457  67.405  0.00  0.00    -0.268 OA
ENDROOT
BRANCH   2   4
ATOM      4  C   UNL     1     -10.266  17.671  67.028  0.00  0.00    +0.055 A 
ATOM      5  C   UNL     1     -10.645  18.987  67.266  0.00  0.00    +0.006 A 
ATOM      6  C   UNL     1      -9.741  20.031  67.103  0.00  0.00    +0.018 A 
ATOM      7  C   UNL     1      -8.390  19.771  66.941  0.00  0.00    +0.089 A 
ATOM      8  N   UNL     1      -7.386  20.543  67.602  0.00  0.00    -0.128 NA
ATOM      9  C   UNL     1      -8.082  18.529  66.404  0.00  0.00    +0.018 A 
ATOM     10  C   UNL     1      -9.054  17.536  66.359  0.00  0.00    +0.006 A 
ENDBRANCH   2   4
BRANCH   1  11
ATOM     11  C   UNL     1     -11.036  15.833  70.224  0.00  0.00    +0.133 C 
BRANCH  11  12
ATOM     12  C   UNL     1     -12.403  15.509  70.774  0.00  0.00    +0.096 C 
BRANCH  12  13
ATOM     13  N   UNL     1     -12.335  14.948  72.115  0.00  0.00    -0.271 NA
BRANCH  13  14
ATOM     14  C   UNL     1     -13.633  14.326  72.366  0.00  0.00    +0.072 C 
ATOM     15  C   UNL     1     -14.716  15.062  71.589  0.00  0.00    +0.019 C 
ENDBRANCH  13  14
BRANCH  13  17
ATOM     16  C   UNL     1     -12.440  15.633  74.457  0.00  0.00    +0.019 C 
ATOM     17  C   UNL     1     -12.227  16.082  73.030  0.00  0.00    +0.072 C 
ENDBRANCH  13  17
ENDBRANCH  12  13
ENDBRANCH  11  12
ENDBRANCH   1  11
TORSDOF 6
ENDMDL
MODEL 7
REMARK VINA RESULT:      -5.5      3.410      4.192
REMARK  Name = 
REMARK  6 active torsions:
REMARK  status: ('A' for Active; 'I' for Inactive)
REMARK    1  A    between atoms: C_2  and  N_3
REMARK    2  A    between atoms: N_3  and  C_4
REMARK    3  A    between atoms: N_3  and  C_6
REMARK    4  A    between atoms: C_6  and  C_7
REMARK    5  A    between atoms: C_7  and  N_8
REMARK    6  A    between atoms: C_9  and  C_11
REMARK                            x       y       z     vdW  Elec       q    Type
REMARK                         _______ _______ _______ _____ _____    ______ ____
ROOT
ATOM      1  N   UNL     1     -11.296  16.767  69.075  0.00  0.00    -0.200 NA
ATOM      2  C   UNL     1     -10.587  16.510  67.857  0.00  0.00    +0.265 C 
ATOM      3  O   UNL     1     -10.523  15.311  67.514  0.00  0.00    -0.268 OA
ENDROOT
BRANCH   2   4
ATOM      4  C   UNL     1     -10.123  17.619  67.018  0.00  0.00    +0.055 A 
ATOM      5  C   UNL     1     -10.591  18.907  67.255  0.00  0.00    +0.006 A 
ATOM      6  C   UNL     1      -9.768  20.012  67.068  0.00  0.00    +0.018 A 
ATOM      7  C   UNL     1      -8.405  19.849  66.881  0.00  0.00    +0.089 A 
ATOM      8  N   UNL     1      -7.447  20.696  67.517  0.00  0.00    -0.128 NA
ATOM      9  C   UNL     1      -8.019  18.627  66.347  0.00  0.00    +0.018 A 
ATOM     10  C   UNL     1      -8.918  17.567  66.327  0.00  0.00    +0.006 A 
ENDBRANCH   2   4
BRANCH   1  11
ATOM     11  C   UNL     1     -11.083  15.915  70.236  0.00  0.00    +0.133 C 
BRANCH  11  12
ATOM     12  C   UNL     1     -12.418  15.281  70.545  0.00  0.00    +0.096 C 
BRANCH  12  13
ATOM     13  N   UNL     1     -13.094  15.940  71.653  0.00  0.00    -0.271 NA
BRANCH  13  14
ATOM     14  C   UNL     1     -12.083  16.142  72.688  0.00  0.00    +0.072 C 
ATOM     15  C   UNL     1     -12.446  15.336  73.928  0.00  0.00    +0.019 C 
ENDBRANCH  13  14
BRANCH  13  17
ATOM     16  C   UNL     1     -15.346  15.028  71.405  0.00  0.00    +0.019 C 
ATOM     17  C   UNL     1     -14.053  14.972  72.183  0.00  0.00    +0.072 C 
ENDBRANCH  13  17
ENDBRANCH  12  13
ENDBRANCH  11  12
ENDBRANCH   1  11
TORSDOF 6
ENDMDL
MODEL 8
REMARK VINA RESULT:      -5.5      4.186      5.744
REMARK  Name = 
REMARK  6 active torsions:
REMARK  status: ('A' for Active; 'I' for Inactive)
REMARK    1  A    between atoms: C_2  and  N_3
REMARK    2  A    between atoms: N_3  and  C_4
REMARK    3  A    between atoms: N_3  and  C_6
REMARK    4  A    between atoms: C_6  and  C_7
REMARK    5  A    between atoms: C_7  and  N_8
REMARK    6  A    between atoms: C_9  and  C_11
REMARK                            x       y       z     vdW  Elec       q    Type
REMARK                         _______ _______ _______ _____ _____    ______ ____
ROOT
ATOM      1  N   UNL     1      -9.871  16.841  65.676  0.00  0.00    -0.200 NA
ATOM      2  C   UNL     1     -10.810  16.081  64.906  0.00  0.00    +0.265 C 
ATOM      3  O   UNL     1     -11.537  16.743  64.136  0.00  0.00    -0.268 OA
ENDROOT
BRANCH   2   4
ATOM      4  C   UNL     1     -10.778  14.616  64.930  0.00  0.00    +0.055 A 
ATOM      5  C   UNL     1      -9.843  13.958  65.722  0.00  0.00    +0.006 A 
ATOM      6  C   UNL     1     -10.157  12.757  66.349  0.00  0.00    +0.018 A 
ATOM      7  C   UNL     1     -11.469  12.315  66.403  0.00  0.00    +0.089 A 
ATOM      8  N   UNL     1     -12.026  11.742  67.588  0.00  0.00    -0.128 NA
ATOM      9  C   UNL     1     -12.296  12.777  65.389  0.00  0.00    +0.018 A 
ATOM     10  C   UNL     1     -11.891  13.849  64.602  0.00  0.00    +0.006 A 
ENDBRANCH   2   4
BRANCH   1  11
ATOM     11  C   UNL     1     -10.286  18.085  66.310  0.00  0.00    +0.133 C 
BRANCH  11  12
ATOM     12  C   UNL     1     -10.099  17.885  67.794  0.00  0.00    +0.096 C 
BRANCH  12  13
ATOM     13  N   UNL     1      -9.154  18.837  68.360  0.00  0.00    -0.271 NA
BRANCH  13  14
ATOM     14  C   UNL     1      -9.036  19.923  67.391  0.00  0.00    +0.072 C 
ATOM     15  C   UNL     1      -7.595  20.416  67.342  0.00  0.00    +0.019 C 
ENDBRANCH  13  14
BRANCH  13  17
ATOM     16  C   UNL     1      -8.029  16.715  68.804  0.00  0.00    +0.019 C 
ATOM     17  C   UNL     1      -7.859  18.159  68.395  0.00  0.00    +0.072 C 
ENDBRANCH  13  17
ENDBRANCH  12  13
ENDBRANCH  11  12
ENDBRANCH   1  11
TORSDOF 6
ENDMDL
MODEL 9
REMARK VINA RESULT:      -5.5      4.599      5.775
REMARK  Name = 
REMARK  6 active torsions:
REMARK  status: ('A' for Active; 'I' for Inactive)
REMARK    1  A    between atoms: C_2  and  N_3
REMARK    2  A    between atoms: N_3  and  C_4
REMARK    3  A    between atoms: N_3  and  C_6
REMARK    4  A    between atoms: C_6  and  C_7
REMARK    5  A    between atoms: C_7  and  N_8
REMARK    6  A    between atoms: C_9  and  C_11
REMARK                            x       y       z     vdW  Elec       q    Type
REMARK                         _______ _______ _______ _____ _____    ______ ____
ROOT
ATOM      1  N   UNL     1      -9.651  16.831  65.842  0.00  0.00    -0.200 NA
ATOM      2  C   UNL     1     -10.715  16.166  65.152  0.00  0.00    +0.265 C 
ATOM      3  O   UNL     1     -11.319  16.855  64.303  0.00  0.00    -0.268 OA
ENDROOT
BRANCH   2   4
ATOM      4  C   UNL     1     -10.942  14.730  65.341  0.00  0.00    +0.055 A 
ATOM      5  C   UNL     1     -12.182  14.280  65.781  0.00  0.00    +0.006 A 
ATOM      6  C   UNL     1     -12.706  13.074  65.328  0.00  0.00    +0.018 A 
ATOM      7  C   UNL     1     -12.130  12.418  64.253  0.00  0.00    +0.089 A 
ATOM      8  N   UNL     1     -12.916  11.815  63.223  0.00  0.00    -0.128 NA
ATOM      9  C   UNL     1     -10.783  12.683  64.044  0.00  0.00    +0.018 A 
ATOM     10  C   UNL     1     -10.188  13.770  64.675  0.00  0.00    +0.006 A 
ENDBRANCH   2   4
BRANCH   1  11
ATOM     11  C   UNL     1      -9.834  18.192  66.326  0.00  0.00    +0.133 C 
BRANCH  11  12
ATOM     12  C   UNL     1      -9.719  18.124  67.829  0.00  0.00    +0.096 C 
BRANCH  12  13
ATOM     13  N   UNL     1      -8.744  19.072  68.348  0.00  0.00    -0.271 NA
BRANCH  13  14
ATOM     14  C   UNL     1      -8.655  20.148  67.365  0.00  0.00    +0.072 C 
ATOM     15  C   UNL     1      -7.220  20.650  67.278  0.00  0.00    +0.019 C 
ENDBRANCH  13  14
BRANCH  13  17
ATOM     16  C   UNL     1      -7.598  16.986  68.895  0.00  0.00    +0.019 C 
ATOM     17  C   UNL     1      -7.455  18.383  68.337  0.00  0.00    +0.072 C 
ENDBRANCH  13  17
ENDBRANCH  12  13
ENDBRANCH  11  12
ENDBRANCH   1  11
TORSDOF 6
ENDMDL
