MODEL 1
REMARK VINA RESULT:      -7.3      0.000      0.000
REMARK  Name = 
REMARK  5 active torsions:
REMARK  status: ('A' for Active; 'I' for Inactive)
REMARK    1  A    between atoms: C_4  and  C_5
REMARK    2  A    between atoms: C_10  and  O_11
REMARK    3  A    between atoms: O_11  and  C_12
REMARK    4  A    between atoms: N_15  and  C_16
REMARK    5  A    between atoms: C_19  and  C_20
REMARK                            x       y       z     vdW  Elec       q    Type
REMARK                         _______ _______ _______ _____ _____    ______ ____
ROOT
ATOM      1  C   UNL     1     -11.770  13.067  67.278  0.00  0.00    +0.241 A 
ATOM      2  C   UNL     1     -11.920  12.964  68.655  0.00  0.00    +0.123 A 
ATOM      3 BR   UNL     1     -11.815  11.285  69.568  0.00  0.00    -0.041 Br
ATOM      4  C   UNL     1     -12.001  14.159  69.344  0.00  0.00    +0.183 A 
ATOM      5  N   UNL     1     -12.302  14.082  70.725  0.00  0.00    -0.106 NA
ATOM      6  N   UNL     1     -11.716  15.288  68.690  0.00  0.00    -0.193 NA
ATOM      7  C   UNL     1     -11.079  15.272  67.494  0.00  0.00    +0.245 A 
ATOM      8  N   UNL     1     -10.531  16.486  67.005  0.00  0.00    -0.178 NA
ATOM      9  N   UNL     1     -11.058  14.115  66.795  0.00  0.00    -0.176 NA
ENDROOT
BRANCH   8  10
ATOM     10  C   UNL     1      -9.595  17.151  67.861  0.00  0.00    +0.074 A 
ATOM     11  C   UNL     1      -9.959  18.339  68.485  0.00  0.00    +0.017 A 
ATOM     12  C   UNL     1      -9.036  19.362  68.665  0.00  0.00    +0.012 A 
ATOM     13  C   UNL     1      -7.759  19.273  68.125  0.00  0.00    +0.069 A 
ATOM     14  C   UNL     1      -7.310  17.975  67.903  0.00  0.00    +0.012 A 
ATOM     15  C   UNL     1      -8.229  16.951  67.708  0.00  0.00    +0.017 A 
BRANCH  13  16
ATOM     16  C   UNL     1      -7.119  20.415  67.552  0.00  0.00    +0.100 C 
ATOM     17  N   UNL     1      -6.603  21.370  67.122  0.00  0.00    -0.191 NA
ENDBRANCH  13  16
ENDBRANCH   8  10
BRANCH   1  18
ATOM     18  O   UNL     1     -11.689  11.887  66.575  0.00  0.00    -0.436 OA
BRANCH  18  21
ATOM     19  C   UNL     1      -8.962  11.151  67.149  0.00  0.00    +0.034 C 
ATOM     20  C   UNL     1      -9.707  10.775  65.907  0.00  0.00    +0.013 A 
ATOM     21  C   UNL     1     -10.775  11.604  65.587  0.00  0.00    +0.139 A 
ATOM     22  C   UNL     1     -11.177  11.709  64.262  0.00  0.00    +0.013 A 
ATOM     23  C   UNL     1     -12.255  12.630  63.855  0.00  0.00    +0.034 C 
ATOM     24  C   UNL     1     -10.457  11.060  63.275  0.00  0.00    +0.009 A 
ATOM     25  C   UNL     1      -9.497  10.125  63.645  0.00  0.00    +0.068 A 
ATOM     26  C   UNL     1      -9.178   9.889  64.976  0.00  0.00    +0.009 A 
BRANCH  25  27
ATOM     27  C   UNL     1      -8.831   9.313  62.659  0.00  0.00    +0.100 C 
ATOM     28  N   UNL     1      -8.514   8.612  61.787  0.00  0.00    -0.191 NA
ENDBRANCH  25  27
ENDBRANCH  18  21
ENDBRANCH   1  18
TORSDOF 5
ENDMDL
MODEL 2
REMARK VINA RESULT:      -6.8      3.628      8.470
REMARK  Name = 
REMARK  5 active torsions:
REMARK  status: ('A' for Active; 'I' for Inactive)
REMARK    1  A    between atoms: C_4  and  C_5
REMARK    2  A    between atoms: C_10  and  O_11
REMARK    3  A    between atoms: O_11  and  C_12
REMARK    4  A    between atoms: N_15  and  C_16
REMARK    5  A    between atoms: C_19  and  C_20
REMARK                            x       y       z     vdW  Elec       q    Type
REMARK                         _______ _______ _______ _____ _____    ______ ____
ROOT
ATOM      1  C   UNL     1     -10.148  15.325  67.850  0.00  0.00    +0.241 A 
ATOM      2  C   UNL     1     -10.818  14.879  66.717  0.00  0.00    +0.123 A 
ATOM      3 BR   UNL     1     -10.041  14.978  64.971  0.00  0.00    -0.041 Br
ATOM      4  C   UNL     1     -12.014  14.226  66.942  0.00  0.00    +0.183 A 
ATOM      5  N   UNL     1     -12.786  13.895  65.803  0.00  0.00    -0.106 NA
ATOM      6  N   UNL     1     -12.324  13.883  68.195  0.00  0.00    -0.193 NA
ATOM      7  C   UNL     1     -11.393  13.888  69.180  0.00  0.00    +0.245 A 
ATOM      8  N   UNL     1     -11.696  13.225  70.398  0.00  0.00    -0.178 NA
ATOM      9  N   UNL     1     -10.250  14.582  68.979  0.00  0.00    -0.176 NA
ENDROOT
BRANCH   8  10
ATOM     10  C   UNL     1     -12.053  11.841  70.297  0.00  0.00    +0.074 A 
ATOM     11  C   UNL     1     -12.960  11.299  71.199  0.00  0.00    +0.017 A 
ATOM     12  C   UNL     1     -12.812   9.999  71.666  0.00  0.00    +0.012 A 
ATOM     13  C   UNL     1     -11.691   9.247  71.335  0.00  0.00    +0.069 A 
ATOM     14  C   UNL     1     -11.062   9.628  70.155  0.00  0.00    +0.012 A 
ATOM     15  C   UNL     1     -11.196  10.931  69.691  0.00  0.00    +0.017 A 
BRANCH  13  16
ATOM     16  C   UNL     1     -11.070   8.389  72.295  0.00  0.00    +0.100 C 
ATOM     17  N   UNL     1     -10.602   7.672  73.088  0.00  0.00    -0.191 NA
ENDBRANCH  13  16
ENDBRANCH   8  10
BRANCH   1  18
ATOM     18  O   UNL     1      -8.955  15.979  67.645  0.00  0.00    -0.436 OA
BRANCH  18  21
ATOM     19  C   UNL     1      -6.931  15.437  69.624  0.00  0.00    +0.034 C 
ATOM     20  C   UNL     1      -7.154  16.763  68.968  0.00  0.00    +0.013 A 
ATOM     21  C   UNL     1      -8.430  16.959  68.454  0.00  0.00    +0.139 A 
ATOM     22  C   UNL     1      -8.919  18.254  68.332  0.00  0.00    +0.013 A 
ATOM     23  C   UNL     1     -10.292  18.517  67.864  0.00  0.00    +0.034 C 
ATOM     24  C   UNL     1      -8.168  19.316  68.803  0.00  0.00    +0.009 A 
ATOM     25  C   UNL     1      -6.844  19.098  69.167  0.00  0.00    +0.068 A 
ATOM     26  C   UNL     1      -6.280  17.828  69.155  0.00  0.00    +0.009 A 
BRANCH  25  27
ATOM     27  C   UNL     1      -5.978  20.195  69.516  0.00  0.00    +0.100 C 
ATOM     28  N   UNL     1      -5.393  21.073  70.005  0.00  0.00    -0.191 NA
ENDBRANCH  25  27
ENDBRANCH  18  21
ENDBRANCH   1  18
TORSDOF 5
ENDMDL
MODEL 3
REMARK VINA RESULT:      -6.6      3.418      7.308
REMARK  Name = 
REMARK  5 active torsions:
REMARK  status: ('A' for Active; 'I' for Inactive)
REMARK    1  A    between atoms: C_4  and  C_5
REMARK    2  A    between atoms: C_10  and  O_11
REMARK    3  A    between atoms: O_11  and  C_12
REMARK    4  A    between atoms: N_15  and  C_16
REMARK    5  A    between atoms: C_19  and  C_20
REMARK                            x       y       z     vdW  Elec       q    Type
REMARK                         _______ _______ _______ _____ _____    ______ ____
ROOT
ATOM      1  C   UNL     1      -9.837  15.357  67.277  0.00  0.00    +0.241 A 
ATOM      2  C   UNL     1      -9.565  14.006  67.462  0.00  0.00    +0.123 A 
ATOM      3 BR   UNL     1      -7.814  13.278  67.205  0.00  0.00    -0.041 Br
ATOM      4  C   UNL     1     -10.595  13.249  67.984  0.00  0.00    +0.183 A 
ATOM      5  N   UNL     1     -10.394  11.849  68.042  0.00  0.00    -0.106 NA
ATOM      6  N   UNL     1     -11.667  13.883  68.467  0.00  0.00    -0.193 NA
ATOM      7  C   UNL     1     -11.644  15.213  68.726  0.00  0.00    +0.245 A 
ATOM      8  N   UNL     1     -12.685  15.763  69.519  0.00  0.00    -0.178 NA
ATOM      9  N   UNL     1     -10.670  15.960  68.161  0.00  0.00    -0.176 NA
ENDROOT
BRANCH   8  10
ATOM     10  C   UNL     1     -12.872  15.184  70.815  0.00  0.00    +0.074 A 
ATOM     11  C   UNL     1     -13.997  15.516  71.560  0.00  0.00    +0.017 A 
ATOM     12  C   UNL     1     -13.924  15.651  72.941  0.00  0.00    +0.012 A 
ATOM     13  C   UNL     1     -12.704  15.573  73.601  0.00  0.00    +0.069 A 
ATOM     14  C   UNL     1     -11.725  14.849  72.930  0.00  0.00    +0.012 A 
ATOM     15  C   UNL     1     -11.785  14.722  71.548  0.00  0.00    +0.017 A 
BRANCH  13  16
ATOM     16  C   UNL     1     -12.404  16.436  74.700  0.00  0.00    +0.100 C 
ATOM     17  N   UNL     1     -12.200  17.136  75.611  0.00  0.00    -0.191 NA
ENDBRANCH  13  16
ENDBRANCH   8  10
BRANCH   1  18
ATOM     18  O   UNL     1      -8.823  16.126  66.757  0.00  0.00    -0.436 OA
BRANCH  18  21
ATOM     19  C   UNL     1      -7.009  16.534  68.959  0.00  0.00    +0.034 C 
ATOM     20  C   UNL     1      -7.243  17.511  67.851  0.00  0.00    +0.013 A 
ATOM     21  C   UNL     1      -8.461  17.379  67.196  0.00  0.00    +0.139 A 
ATOM     22  C   UNL     1      -9.019  18.487  66.571  0.00  0.00    +0.013 A 
ATOM     23  C   UNL     1     -10.344  18.422  65.927  0.00  0.00    +0.034 C 
ATOM     24  C   UNL     1      -8.401  19.720  66.686  0.00  0.00    +0.009 A 
ATOM     25  C   UNL     1      -7.116  19.783  67.213  0.00  0.00    +0.068 A 
ATOM     26  C   UNL     1      -6.471  18.658  67.711  0.00  0.00    +0.009 A 
BRANCH  25  27
ATOM     27  C   UNL     1      -6.371  21.017  67.211  0.00  0.00    +0.100 C 
ATOM     28  N   UNL     1      -5.600  21.881  67.110  0.00  0.00    -0.191 NA
ENDBRANCH  25  27
ENDBRANCH  18  21
ENDBRANCH   1  18
TORSDOF 5
ENDMDL
MODEL 4
REMARK VINA RESULT:      -6.6      3.418      4.978
REMARK  Name = 
REMARK  5 active torsions:
REMARK  status: ('A' for Active; 'I' for Inactive)
REMARK    1  A    between atoms: C_4  and  C_5
REMARK    2  A    between atoms: C_10  and  O_11
REMARK    3  A    between atoms: O_11  and  C_12
REMARK    4  A    between atoms: N_15  and  C_16
REMARK    5  A    between atoms: C_19  and  C_20
REMARK                            x       y       z     vdW  Elec       q    Type
REMARK                         _______ _______ _______ _____ _____    ______ ____
ROOT
ATOM      1  C   UNL     1     -10.674  12.056  65.874  0.00  0.00    +0.241 A 
ATOM      2  C   UNL     1     -11.134  13.125  65.114  0.00  0.00    +0.123 A 
ATOM      3 BR   UNL     1     -12.095  12.871  63.479  0.00  0.00    -0.041 Br
ATOM      4  C   UNL     1     -10.987  14.375  65.682  0.00  0.00    +0.183 A 
ATOM      5  N   UNL     1     -11.310  15.488  64.869  0.00  0.00    -0.106 NA
ATOM      6  N   UNL     1     -10.631  14.451  66.967  0.00  0.00    -0.193 NA
ATOM      7  C   UNL     1     -10.702  13.373  67.785  0.00  0.00    +0.245 A 
ATOM      8  N   UNL     1     -10.615  13.583  69.186  0.00  0.00    -0.178 NA
ATOM      9  N   UNL     1     -10.782  12.146  67.223  0.00  0.00    -0.176 NA
ENDROOT
BRANCH   8  10
ATOM     10  C   UNL     1     -11.573  14.483  69.754  0.00  0.00    +0.074 A 
ATOM     11  C   UNL     1     -11.161  15.736  70.192  0.00  0.00    +0.017 A 
ATOM     12  C   UNL     1     -11.719  16.314  71.326  0.00  0.00    +0.012 A 
ATOM     13  C   UNL     1     -12.615  15.608  72.118  0.00  0.00    +0.069 A 
ATOM     14  C   UNL     1     -13.300  14.593  71.459  0.00  0.00    +0.012 A 
ATOM     15  C   UNL     1     -12.741  14.002  70.332  0.00  0.00    +0.017 A 
BRANCH  13  16
ATOM     16  C   UNL     1     -12.580  15.710  73.543  0.00  0.00    +0.100 C 
ATOM     17  N   UNL     1     -12.511  15.813  74.704  0.00  0.00    -0.191 NA
ENDBRANCH  13  16
ENDBRANCH   8  10
BRANCH   1  18
ATOM     18  O   UNL     1     -10.811  10.803  65.324  0.00  0.00    -0.436 OA
BRANCH  18  21
ATOM     19  C   UNL     1      -9.336  10.684  62.850  0.00  0.00    +0.034 C 
ATOM     20  C   UNL     1      -8.816  10.236  64.180  0.00  0.00    +0.013 A 
ATOM     21  C   UNL     1      -9.790   9.905  65.113  0.00  0.00    +0.139 A 
ATOM     22  C   UNL     1      -9.483   9.001  66.122  0.00  0.00    +0.013 A 
ATOM     23  C   UNL     1     -10.499   8.556  67.093  0.00  0.00    +0.034 C 
ATOM     24  C   UNL     1      -8.246   8.380  66.130  0.00  0.00    +0.009 A 
ATOM     25  C   UNL     1      -7.251   8.847  65.279  0.00  0.00    +0.068 A 
ATOM     26  C   UNL     1      -7.490   9.859  64.357  0.00  0.00    +0.009 A 
BRANCH  25  27
ATOM     27  C   UNL     1      -5.905   8.339  65.358  0.00  0.00    +0.100 C 
ATOM     28  N   UNL     1      -4.889   7.785  65.246  0.00  0.00    -0.191 NA
ENDBRANCH  25  27
ENDBRANCH  18  21
ENDBRANCH   1  18
TORSDOF 5
ENDMDL
MODEL 5
REMARK VINA RESULT:      -6.6      1.612      2.338
REMARK  Name = 
REMARK  5 active torsions:
REMARK  status: ('A' for Active; 'I' for Inactive)
REMARK    1  A    between atoms: C_4  and  C_5
REMARK    2  A    between atoms: C_10  and  O_11
REMARK    3  A    between atoms: O_11  and  C_12
REMARK    4  A    between atoms: N_15  and  C_16
REMARK    5  A    between atoms: C_19  and  C_20
REMARK                            x       y       z     vdW  Elec       q    Type
REMARK                         _______ _______ _______ _____ _____    ______ ____
ROOT
ATOM      1  C   UNL     1     -11.801  13.683  67.137  0.00  0.00    +0.241 A 
ATOM      2  C   UNL     1     -11.839  14.038  68.480  0.00  0.00    +0.123 A 
ATOM      3 BR   UNL     1     -11.947  12.731  69.874  0.00  0.00    -0.041 Br
ATOM      4  C   UNL     1     -11.644  15.377  68.756  0.00  0.00    +0.183 A 
ATOM      5  N   UNL     1     -11.826  15.786  70.098  0.00  0.00    -0.106 NA
ATOM      6  N   UNL     1     -11.227  16.174  67.769  0.00  0.00    -0.193 NA
ATOM      7  C   UNL     1     -10.716  15.668  66.620  0.00  0.00    +0.245 A 
ATOM      8  N   UNL     1     -10.010  16.543  65.753  0.00  0.00    -0.178 NA
ATOM      9  N   UNL     1     -10.963  14.372  66.324  0.00  0.00    -0.176 NA
ENDROOT
BRANCH   8  10
ATOM     10  C   UNL     1      -8.897  17.241  66.323  0.00  0.00    +0.074 A 
ATOM     11  C   UNL     1      -8.941  18.625  66.440  0.00  0.00    +0.017 A 
ATOM     12  C   UNL     1      -7.800  19.394  66.250  0.00  0.00    +0.012 A 
ATOM     13  C   UNL     1      -6.612  18.813  65.822  0.00  0.00    +0.069 A 
ATOM     14  C   UNL     1      -6.486  17.461  66.121  0.00  0.00    +0.012 A 
ATOM     15  C   UNL     1      -7.624  16.684  66.299  0.00  0.00    +0.017 A 
BRANCH  13  16
ATOM     16  C   UNL     1      -5.765  19.474  64.881  0.00  0.00    +0.100 C 
ATOM     17  N   UNL     1      -5.082  19.983  64.083  0.00  0.00    -0.191 NA
ENDBRANCH  13  16
ENDBRANCH   8  10
BRANCH   1  18
ATOM     18  O   UNL     1     -11.994  12.353  66.843  0.00  0.00    -0.436 OA
BRANCH  18  21
ATOM     19  C   UNL     1     -13.112  12.405  64.187  0.00  0.00    +0.034 C 
ATOM     20  C   UNL     1     -11.673  12.150  64.505  0.00  0.00    +0.013 A 
ATOM     21  C   UNL     1     -11.428  11.676  65.788  0.00  0.00    +0.139 A 
ATOM     22  C   UNL     1     -10.292  10.913  66.023  0.00  0.00    +0.013 A 
ATOM     23  C   UNL     1     -10.021  10.321  67.347  0.00  0.00    +0.034 C 
ATOM     24  C   UNL     1      -9.472  10.563  64.965  0.00  0.00    +0.009 A 
ATOM     25  C   UNL     1      -9.662  11.178  63.732  0.00  0.00    +0.068 A 
ATOM     26  C   UNL     1     -10.707  12.066  63.509  0.00  0.00    +0.009 A 
BRANCH  25  27
ATOM     27  C   UNL     1      -8.742  10.964  62.644  0.00  0.00    +0.100 C 
ATOM     28  N   UNL     1      -7.948  11.021  61.797  0.00  0.00    -0.191 NA
ENDBRANCH  25  27
ENDBRANCH  18  21
ENDBRANCH   1  18
TORSDOF 5
ENDMDL
MODEL 6
REMARK VINA RESULT:      -6.5      2.927      4.512
REMARK  Name = 
REMARK  5 active torsions:
REMARK  status: ('A' for Active; 'I' for Inactive)
REMARK    1  A    between atoms: C_4  and  C_5
REMARK    2  A    between atoms: C_10  and  O_11
REMARK    3  A    between atoms: O_11  and  C_12
REMARK    4  A    between atoms: N_15  and  C_16
REMARK    5  A    between atoms: C_19  and  C_20
REMARK                            x       y       z     vdW  Elec       q    Type
REMARK                         _______ _______ _______ _____ _____    ______ ____
ROOT
ATOM      1  C   UNL     1     -10.170  13.666  66.337  0.00  0.00    +0.241 A 
ATOM      2  C   UNL     1     -11.039  14.456  65.594  0.00  0.00    +0.123 A 
ATOM      3 BR   UNL     1     -12.883  14.000  65.361  0.00  0.00    -0.041 Br
ATOM      4  C   UNL     1     -10.530  15.663  65.156  0.00  0.00    +0.183 A 
ATOM      5  N   UNL     1     -11.342  16.417  64.274  0.00  0.00    -0.106 NA
ATOM      6  N   UNL     1      -9.358  16.073  65.648  0.00  0.00    -0.193 NA
ATOM      7  C   UNL     1      -8.816  15.504  66.752  0.00  0.00    +0.245 A 
ATOM      8  N   UNL     1      -7.748  16.176  67.401  0.00  0.00    -0.178 NA
ATOM      9  N   UNL     1      -9.274  14.293  67.139  0.00  0.00    -0.176 NA
ENDROOT
BRANCH   8  10
ATOM     10  C   UNL     1      -8.005  17.520  67.824  0.00  0.00    +0.074 A 
ATOM     11  C   UNL     1      -8.574  18.422  66.933  0.00  0.00    +0.017 A 
ATOM     12  C   UNL     1      -8.195  19.759  66.931  0.00  0.00    +0.012 A 
ATOM     13  C   UNL     1      -7.156  20.206  67.738  0.00  0.00    +0.069 A 
ATOM     14  C   UNL     1      -6.917  19.427  68.865  0.00  0.00    +0.012 A 
ATOM     15  C   UNL     1      -7.282  18.086  68.866  0.00  0.00    +0.017 A 
BRANCH  13  16
ATOM     16  C   UNL     1      -6.222  21.178  67.265  0.00  0.00    +0.100 C 
ATOM     17  N   UNL     1      -5.436  21.968  66.916  0.00  0.00    -0.191 NA
ENDBRANCH  13  16
ENDBRANCH   8  10
BRANCH   1  18
ATOM     18  O   UNL     1     -10.660  12.459  66.780  0.00  0.00    -0.436 OA
BRANCH  18  21
ATOM     19  C   UNL     1     -12.027  13.614  69.039  0.00  0.00    +0.034 C 
ATOM     20  C   UNL     1     -11.569  12.192  68.951  0.00  0.00    +0.013 A 
ATOM     21  C   UNL     1     -10.531  11.962  68.057  0.00  0.00    +0.139 A 
ATOM     22  C   UNL     1      -9.684  10.882  68.266  0.00  0.00    +0.013 A 
ATOM     23  C   UNL     1      -8.522  10.634  67.392  0.00  0.00    +0.034 C 
ATOM     24  C   UNL     1      -9.830  10.108  69.403  0.00  0.00    +0.009 A 
ATOM     25  C   UNL     1     -10.966  10.272  70.190  0.00  0.00    +0.068 A 
ATOM     26  C   UNL     1     -11.912  11.252  69.916  0.00  0.00    +0.009 A 
BRANCH  25  27
ATOM     27  C   UNL     1     -11.240   9.388  71.294  0.00  0.00    +0.100 C 
ATOM     28  N   UNL     1     -11.573   8.545  72.021  0.00  0.00    -0.191 NA
ENDBRANCH  25  27
ENDBRANCH  18  21
ENDBRANCH   1  18
TORSDOF 5
ENDMDL
MODEL 7
REMARK VINA RESULT:      -6.3      3.524      8.892
REMARK  Name = 
REMARK  5 active torsions:
REMARK  status: ('A' for Active; 'I' for Inactive)
REMARK    1  A    between atoms: C_4  and  C_5
REMARK    2  A    between atoms: C_10  and  O_11
REMARK    3  A    between atoms: O_11  and  C_12
REMARK    4  A    between atoms: N_15  and  C_16
REMARK    5  A    between atoms: C_19  and  C_20
REMARK                            x       y       z     vdW  Elec       q    Type
REMARK                         _______ _______ _______ _____ _____    ______ ____
ROOT
ATOM      1  C   UNL     1     -11.096  10.972  68.159  0.00  0.00    +0.241 A 
ATOM      2  C   UNL     1     -11.055  10.460  69.450  0.00  0.00    +0.123 A 
ATOM      3 BR   UNL     1     -12.427  10.825  70.733  0.00  0.00    -0.041 Br
ATOM      4  C   UNL     1     -10.045   9.553  69.707  0.00  0.00    +0.183 A 
ATOM      5  N   UNL     1      -9.891   9.132  71.050  0.00  0.00    -0.106 NA
ATOM      6  N   UNL     1      -9.341   9.079  68.677  0.00  0.00    -0.193 NA
ATOM      7  C   UNL     1      -9.770   9.225  67.400  0.00  0.00    +0.245 A 
ATOM      8  N   UNL     1      -9.155   8.442  66.388  0.00  0.00    -0.178 NA
ATOM      9  N   UNL     1     -10.714  10.158  67.143  0.00  0.00    -0.176 NA
ENDROOT
BRANCH   8  10
ATOM     10  C   UNL     1      -9.183   7.023  66.578  0.00  0.00    +0.074 A 
ATOM     11  C   UNL     1      -8.211   6.231  65.977  0.00  0.00    +0.017 A 
ATOM     12  C   UNL     1      -8.524   4.973  65.477  0.00  0.00    +0.012 A 
ATOM     13  C   UNL     1      -9.838   4.522  65.457  0.00  0.00    +0.069 A 
ATOM     14  C   UNL     1     -10.670   5.110  66.404  0.00  0.00    +0.012 A 
ATOM     15  C   UNL     1     -10.368   6.374  66.897  0.00  0.00    +0.017 A 
BRANCH  13  16
ATOM     16  C   UNL     1     -10.344   3.772  64.350  0.00  0.00    +0.100 C 
ATOM     17  N   UNL     1     -10.762   3.125  63.473  0.00  0.00    -0.191 NA
ENDBRANCH  13  16
ENDBRANCH   8  10
BRANCH   1  18
ATOM     18  O   UNL     1     -12.094  11.877  67.884  0.00  0.00    -0.436 OA
BRANCH  18  21
ATOM     19  C   UNL     1     -12.017  14.117  69.697  0.00  0.00    +0.034 C 
ATOM     20  C   UNL     1     -11.361  14.081  68.353  0.00  0.00    +0.013 A 
ATOM     21  C   UNL     1     -11.907  13.171  67.456  0.00  0.00    +0.139 A 
ATOM     22  C   UNL     1     -11.782  13.406  66.093  0.00  0.00    +0.013 A 
ATOM     23  C   UNL     1     -12.405  12.515  65.097  0.00  0.00    +0.034 C 
ATOM     24  C   UNL     1     -11.198  14.580  65.652  0.00  0.00    +0.009 A 
ATOM     25  C   UNL     1     -10.531  15.387  66.568  0.00  0.00    +0.068 A 
ATOM     26  C   UNL     1     -10.512  15.094  67.926  0.00  0.00    +0.009 A 
BRANCH  25  27
ATOM     27  C   UNL     1      -9.777  16.537  66.136  0.00  0.00    +0.100 C 
ATOM     28  N   UNL     1      -8.989  17.357  65.899  0.00  0.00    -0.191 NA
ENDBRANCH  25  27
ENDBRANCH  18  21
ENDBRANCH   1  18
TORSDOF 5
ENDMDL
MODEL 8
REMARK VINA RESULT:      -6.3      3.883      8.587
REMARK  Name = 
REMARK  5 active torsions:
REMARK  status: ('A' for Active; 'I' for Inactive)
REMARK    1  A    between atoms: C_4  and  C_5
REMARK    2  A    between atoms: C_10  and  O_11
REMARK    3  A    between atoms: O_11  and  C_12
REMARK    4  A    between atoms: N_15  and  C_16
REMARK    5  A    between atoms: C_19  and  C_20
REMARK                            x       y       z     vdW  Elec       q    Type
REMARK                         _______ _______ _______ _____ _____    ______ ____
ROOT
ATOM      1  C   UNL     1     -10.613  12.775  68.383  0.00  0.00    +0.241 A 
ATOM      2  C   UNL     1     -10.171  11.711  67.605  0.00  0.00    +0.123 A 
ATOM      3 BR   UNL     1      -8.518  11.772  66.642  0.00  0.00    -0.041 Br
ATOM      4  C   UNL     1     -10.921  10.554  67.685  0.00  0.00    +0.183 A 
ATOM      5  N   UNL     1     -10.581   9.509  66.792  0.00  0.00    -0.106 NA
ATOM      6  N   UNL     1     -11.853  10.467  68.637  0.00  0.00    -0.193 NA
ATOM      7  C   UNL     1     -11.879  11.328  69.683  0.00  0.00    +0.245 A 
ATOM      8  N   UNL     1     -12.680  11.001  70.807  0.00  0.00    -0.178 NA
ATOM      9  N   UNL     1     -11.194  12.489  69.574  0.00  0.00    -0.176 NA
ENDROOT
BRANCH   8  10
ATOM     10  C   UNL     1     -12.413   9.741  71.434  0.00  0.00    +0.074 A 
ATOM     11  C   UNL     1     -11.099   9.370  71.696  0.00  0.00    +0.017 A 
ATOM     12  C   UNL     1     -10.693   8.047  71.573  0.00  0.00    +0.012 A 
ATOM     13  C   UNL     1     -11.557   7.080  71.072  0.00  0.00    +0.069 A 
ATOM     14  C   UNL     1     -12.908   7.371  71.226  0.00  0.00    +0.012 A 
ATOM     15  C   UNL     1     -13.321   8.694  71.336  0.00  0.00    +0.017 A 
BRANCH  13  16
ATOM     16  C   UNL     1     -11.087   6.055  70.195  0.00  0.00    +0.100 C 
ATOM     17  N   UNL     1     -10.691   5.248  69.450  0.00  0.00    -0.191 NA
ENDBRANCH  13  16
ENDBRANCH   8  10
BRANCH   1  18
ATOM     18  O   UNL     1      -9.879  13.936  68.315  0.00  0.00    -0.436 OA
BRANCH  18  21
ATOM     19  C   UNL     1     -11.078  15.606  70.336  0.00  0.00    +0.034 C 
ATOM     20  C   UNL     1     -10.440  16.108  69.079  0.00  0.00    +0.013 A 
ATOM     21  C   UNL     1     -10.382  15.187  68.040  0.00  0.00    +0.139 A 
ATOM     22  C   UNL     1     -10.336  15.646  66.730  0.00  0.00    +0.013 A 
ATOM     23  C   UNL     1     -10.349  14.715  65.586  0.00  0.00    +0.034 C 
ATOM     24  C   UNL     1     -10.439  17.003  66.476  0.00  0.00    +0.009 A 
ATOM     25  C   UNL     1     -10.342  17.896  67.537  0.00  0.00    +0.068 A 
ATOM     26  C   UNL     1     -10.234  17.463  68.853  0.00  0.00    +0.009 A 
BRANCH  25  27
ATOM     27  C   UNL     1     -10.287  19.318  67.310  0.00  0.00    +0.100 C 
ATOM     28  N   UNL     1     -10.021  20.421  67.055  0.00  0.00    -0.191 NA
ENDBRANCH  25  27
ENDBRANCH  18  21
ENDBRANCH   1  18
TORSDOF 5
ENDMDL
MODEL 9
REMARK VINA RESULT:      -6.3      3.998      8.585
REMARK  Name = 
REMARK  5 active torsions:
REMARK  status: ('A' for Active; 'I' for Inactive)
REMARK    1  A    between atoms: C_4  and  C_5
REMARK    2  A    between atoms: C_10  and  O_11
REMARK    3  A    between atoms: O_11  and  C_12
REMARK    4  A    between atoms: N_15  and  C_16
REMARK    5  A    between atoms: C_19  and  C_20
REMARK                            x       y       z     vdW  Elec       q    Type
REMARK                         _______ _______ _______ _____ _____    ______ ____
ROOT
ATOM      1  C   UNL     1     -11.153  11.091  68.299  0.00  0.00    +0.241 A 
ATOM      2  C   UNL     1     -11.158  10.544  69.577  0.00  0.00    +0.123 A 
ATOM      3 BR   UNL     1     -12.541  10.929  70.843  0.00  0.00    -0.041 Br
ATOM      4  C   UNL     1     -10.189   9.593  69.829  0.00  0.00    +0.183 A 
ATOM      5  N   UNL     1     -10.079   9.131  71.162  0.00  0.00    -0.106 NA
ATOM      6  N   UNL     1      -9.483   9.119  68.800  0.00  0.00    -0.193 NA
ATOM      7  C   UNL     1      -9.879   9.315  67.519  0.00  0.00    +0.245 A 
ATOM      8  N   UNL     1      -9.275   8.536  66.499  0.00  0.00    -0.178 NA
ATOM      9  N   UNL     1     -10.781  10.291  67.270  0.00  0.00    -0.176 NA
ENDROOT
BRANCH   8  10
ATOM     10  C   UNL     1      -9.361   7.114  66.649  0.00  0.00    +0.074 A 
ATOM     11  C   UNL     1     -10.598   6.521  66.869  0.00  0.00    +0.017 A 
ATOM     12  C   UNL     1     -10.724   5.423  67.711  0.00  0.00    +0.012 A 
ATOM     13  C   UNL     1      -9.639   4.962  68.447  0.00  0.00    +0.069 A 
ATOM     14  C   UNL     1      -8.395   5.274  67.909  0.00  0.00    +0.012 A 
ATOM     15  C   UNL     1      -8.262   6.379  67.076  0.00  0.00    +0.017 A 
BRANCH  13  16
ATOM     16  C   UNL     1      -9.801   4.503  69.791  0.00  0.00    +0.100 C 
ATOM     17  N   UNL     1      -9.891   4.137  70.895  0.00  0.00    -0.191 NA
ENDBRANCH  13  16
ENDBRANCH   8  10
BRANCH   1  18
ATOM     18  O   UNL     1     -12.110  12.042  68.030  0.00  0.00    -0.436 OA
BRANCH  18  21
ATOM     19  C   UNL     1     -11.901  14.291  69.821  0.00  0.00    +0.034 C 
ATOM     20  C   UNL     1     -11.265  14.211  68.469  0.00  0.00    +0.013 A 
ATOM     21  C   UNL     1     -11.867  13.321  67.587  0.00  0.00    +0.139 A 
ATOM     22  C   UNL     1     -11.748  13.538  66.220  0.00  0.00    +0.013 A 
ATOM     23  C   UNL     1     -12.428  12.669  65.241  0.00  0.00    +0.034 C 
ATOM     24  C   UNL     1     -11.114  14.679  65.761  0.00  0.00    +0.009 A 
ATOM     25  C   UNL     1     -10.398  15.461  66.660  0.00  0.00    +0.068 A 
ATOM     26  C   UNL     1     -10.374  15.179  68.021  0.00  0.00    +0.009 A 
BRANCH  25  27
ATOM     27  C   UNL     1      -9.595  16.568  66.208  0.00  0.00    +0.100 C 
ATOM     28  N   UNL     1      -8.766  17.312  65.873  0.00  0.00    -0.191 NA
ENDBRANCH  25  27
ENDBRANCH  18  21
ENDBRANCH   1  18
TORSDOF 5
ENDMDL
