MODEL 1
REMARK VINA RESULT:      -7.2      0.000      0.000
REMARK  Name = 
REMARK  10 active torsions:
REMARK  status: ('A' for Active; 'I' for Inactive)
REMARK    1  A    between atoms: O_2  and  C_3
REMARK    2  A    between atoms: C_8  and  O_9
REMARK    3  A    between atoms: O_9  and  C_10
REMARK    4  A    between atoms: C_10  and  C_11
REMARK    5  A    between atoms: C_11  and  N_12
REMARK    6  A    between atoms: N_12  and  C_13
REMARK    7  A    between atoms: C_13  and  C_14
REMARK    8  A    between atoms: C_14  and  C_16
REMARK    9  A    between atoms: C_16  and  O_17
REMARK   10  A    between atoms: O_17  and  C_18
REMARK                            x       y       z     vdW  Elec       q    Type
REMARK                         _______ _______ _______ _____ _____    ______ ____
ROOT
ATOM      1  C   UNL     1     -10.973  11.831  65.926  0.00  0.00    +0.213 C 
ATOM      2  O   UNL     1     -12.387  12.376  66.224  0.00  0.00    -0.218 OA
ENDROOT
BRANCH   1   3
ATOM      3  C   UNL     1     -10.555  13.139  64.967  0.00  0.00    +0.126 C 
BRANCH   3   4
ATOM      4  N   UNL     1     -11.721  13.958  64.878  0.00  0.00    -0.211 NA
BRANCH   4   5
ATOM      5  C   UNL     1     -11.224  15.301  64.578  0.00  0.00    +0.136 C 
BRANCH   5   6
ATOM      6  C   UNL     1     -10.512  15.913  65.771  0.00  0.00    +0.224 C 
BRANCH   6   7
ATOM      7  O   UNL     1     -10.192  17.241  65.387  0.00  0.00    -0.471 OA
BRANCH   7   9
ATOM      8  C   UNL     1      -8.511  18.667  66.265  0.00  0.00    +0.172 A 
ATOM      9  C   UNL     1      -9.762  18.105  66.400  0.00  0.00    +0.172 A 
ATOM     10  C   UNL     1     -10.597  18.522  67.419  0.00  0.00    +0.040 A 
ATOM     11  C   UNL     1     -10.343  19.721  68.016  0.00  0.00    +0.003 A 
ATOM     12  C   UNL     1      -9.269  20.493  67.601  0.00  0.00    +0.003 A 
ATOM     13  C   UNL     1      -8.277  19.899  66.832  0.00  0.00    +0.040 A 
BRANCH   8  15
ATOM     14  C   UNL     1      -6.837  17.753  65.730  0.00  0.00    +0.253 C 
ATOM     15  O   UNL     1      -7.481  17.852  65.787  0.00  0.00    -0.468 OA
ENDBRANCH   8  15
ENDBRANCH   7   9
ENDBRANCH   6   7
ENDBRANCH   5   6
ENDBRANCH   4   5
ENDBRANCH   3   4
ENDBRANCH   1   3
BRANCH   1  16
ATOM     16  C   UNL     1     -10.351  12.591  67.282  0.00  0.00    +0.240 C 
BRANCH  16  17
ATOM     17  O   UNL     1     -11.435  12.970  68.036  0.00  0.00    -0.473 OA
BRANCH  17  18
ATOM     18  C   UNL     1     -11.476  13.662  69.221  0.00  0.00    +0.140 A 
ATOM     19  C   UNL     1     -12.000  13.023  70.342  0.00  0.00    +0.053 A 
ATOM     20  C   UNL     1     -12.814  13.665  71.254  0.00  0.00    +0.084 A 
ATOM     21  N   UNL     1     -13.490  12.721  71.949  0.00  0.00    -0.245 NA
ATOM     22  C   UNL     1     -12.994  11.508  71.611  0.00  0.00    +0.081 A 
ATOM     23  C   UNL     1     -13.258  10.204  71.992  0.00  0.00    +0.019 A 
ATOM     24  C   UNL     1     -12.482   9.156  71.513  0.00  0.00    +0.002 A 
ATOM     25  C   UNL     1     -11.507   9.399  70.563  0.00  0.00    +0.000 A 
ATOM     26  C   UNL     1     -11.668  10.565  69.821  0.00  0.00    +0.002 A 
ATOM     27  C   UNL     1     -13.052  15.015  71.131  0.00  0.00    +0.019 A 
ATOM     28  C   UNL     1     -12.303  15.696  70.195  0.00  0.00    +0.005 A 
ATOM     29  C   UNL     1     -12.075  11.657  70.578  0.00  0.00    +0.022 A 
ATOM     30  C   UNL     1     -11.483  15.047  69.284  0.00  0.00    +0.037 A 
ENDBRANCH  17  18
ENDBRANCH  16  17
ENDBRANCH   1  16
TORSDOF 10
ENDMDL
MODEL 2
REMARK VINA RESULT:      -7.1      1.320      1.947
REMARK  Name = 
REMARK  10 active torsions:
REMARK  status: ('A' for Active; 'I' for Inactive)
REMARK    1  A    between atoms: O_2  and  C_3
REMARK    2  A    between atoms: C_8  and  O_9
REMARK    3  A    between atoms: O_9  and  C_10
REMARK    4  A    between atoms: C_10  and  C_11
REMARK    5  A    between atoms: C_11  and  N_12
REMARK    6  A    between atoms: N_12  and  C_13
REMARK    7  A    between atoms: C_13  and  C_14
REMARK    8  A    between atoms: C_14  and  C_16
REMARK    9  A    between atoms: C_16  and  O_17
REMARK   10  A    between atoms: O_17  and  C_18
REMARK                            x       y       z     vdW  Elec       q    Type
REMARK                         _______ _______ _______ _____ _____    ______ ____
ROOT
ATOM      1  C   UNL     1     -11.708  12.804  65.789  0.00  0.00    +0.213 C 
ATOM      2  O   UNL     1     -12.994  13.040  64.966  0.00  0.00    -0.218 OA
ENDROOT
BRANCH   1   3
ATOM      3  C   UNL     1     -10.861  14.023  65.014  0.00  0.00    +0.126 C 
BRANCH   3   4
ATOM      4  N   UNL     1      -9.745  14.329  65.848  0.00  0.00    -0.211 NA
BRANCH   4   5
ATOM      5  C   UNL     1      -9.630  15.786  65.819  0.00  0.00    +0.136 C 
BRANCH   5   6
ATOM      6  C   UNL     1      -8.236  16.245  66.206  0.00  0.00    +0.224 C 
BRANCH   6   7
ATOM      7  O   UNL     1      -8.121  17.575  65.720  0.00  0.00    -0.471 OA
BRANCH   7   9
ATOM      8  C   UNL     1      -8.734  19.023  67.497  0.00  0.00    +0.172 A 
ATOM      9  C   UNL     1      -7.754  18.556  66.648  0.00  0.00    +0.172 A 
ATOM     10  C   UNL     1      -6.439  18.938  66.837  0.00  0.00    +0.040 A 
ATOM     11  C   UNL     1      -6.078  19.435  68.055  0.00  0.00    +0.003 A 
ATOM     12  C   UNL     1      -7.016  19.549  69.069  0.00  0.00    +0.003 A 
ATOM     13  C   UNL     1      -8.364  19.481  68.741  0.00  0.00    +0.040 A 
BRANCH   8  15
ATOM     14  C   UNL     1     -10.497  19.666  66.864  0.00  0.00    +0.253 C 
ATOM     15  O   UNL     1     -10.005  19.246  66.960  0.00  0.00    -0.468 OA
ENDBRANCH   8  15
ENDBRANCH   7   9
ENDBRANCH   6   7
ENDBRANCH   5   6
ENDBRANCH   4   5
ENDBRANCH   3   4
ENDBRANCH   1   3
BRANCH   1  16
ATOM     16  C   UNL     1     -12.220  13.874  66.971  0.00  0.00    +0.240 C 
BRANCH  16  17
ATOM     17  O   UNL     1     -11.863  13.313  68.173  0.00  0.00    -0.473 OA
BRANCH  17  18
ATOM     18  C   UNL     1     -11.851  13.869  69.428  0.00  0.00    +0.140 A 
ATOM     19  C   UNL     1     -12.229  13.075  70.507  0.00  0.00    +0.053 A 
ATOM     20  C   UNL     1     -13.005  13.549  71.546  0.00  0.00    +0.084 A 
ATOM     21  N   UNL     1     -13.548  12.484  72.181  0.00  0.00    -0.245 NA
ATOM     22  C   UNL     1     -12.997  11.358  71.672  0.00  0.00    +0.081 A 
ATOM     23  C   UNL     1     -13.132  10.004  71.923  0.00  0.00    +0.019 A 
ATOM     24  C   UNL     1     -12.326   9.079  71.271  0.00  0.00    +0.002 A 
ATOM     25  C   UNL     1     -11.457   9.500  70.282  0.00  0.00    +0.000 A 
ATOM     26  C   UNL     1     -11.766  10.721  69.690  0.00  0.00    +0.002 A 
ATOM     27  C   UNL     1     -13.351  14.880  71.594  0.00  0.00    +0.019 A 
ATOM     28  C   UNL     1     -12.736  15.715  70.685  0.00  0.00    +0.005 A 
ATOM     29  C   UNL     1     -12.184  11.690  70.594  0.00  0.00    +0.022 A 
ATOM     30  C   UNL     1     -11.953  15.235  69.646  0.00  0.00    +0.037 A 
ENDBRANCH  17  18
ENDBRANCH  16  17
ENDBRANCH   1  16
TORSDOF 10
ENDMDL
MODEL 3
REMARK VINA RESULT:      -7.0      2.194      7.031
REMARK  Name = 
REMARK  10 active torsions:
REMARK  status: ('A' for Active; 'I' for Inactive)
REMARK    1  A    between atoms: O_2  and  C_3
REMARK    2  A    between atoms: C_8  and  O_9
REMARK    3  A    between atoms: O_9  and  C_10
REMARK    4  A    between atoms: C_10  and  C_11
REMARK    5  A    between atoms: C_11  and  N_12
REMARK    6  A    between atoms: N_12  and  C_13
REMARK    7  A    between atoms: C_13  and  C_14
REMARK    8  A    between atoms: C_14  and  C_16
REMARK    9  A    between atoms: C_16  and  O_17
REMARK   10  A    between atoms: O_17  and  C_18
REMARK                            x       y       z     vdW  Elec       q    Type
REMARK                         _______ _______ _______ _____ _____    ______ ____
ROOT
ATOM      1  C   UNL     1     -11.861  14.090  65.683  0.00  0.00    +0.213 C 
ATOM      2  O   UNL     1     -12.637  13.910  64.360  0.00  0.00    -0.218 OA
ENDROOT
BRANCH   1   3
ATOM      3  C   UNL     1     -11.420  12.476  65.767  0.00  0.00    +0.126 C 
BRANCH   3   4
ATOM      4  N   UNL     1     -12.120  11.928  66.882  0.00  0.00    -0.211 NA
BRANCH   4   5
ATOM      5  C   UNL     1     -11.079  11.450  67.792  0.00  0.00    +0.136 C 
BRANCH   5   6
ATOM      6  C   UNL     1     -10.833  12.432  68.924  0.00  0.00    +0.224 C 
BRANCH   6   7
ATOM      7  O   UNL     1     -12.023  13.199  69.031  0.00  0.00    -0.471 OA
BRANCH   7   9
ATOM      8  C   UNL     1     -12.447  15.009  70.506  0.00  0.00    +0.172 A 
ATOM      9  C   UNL     1     -12.371  13.647  70.311  0.00  0.00    +0.172 A 
ATOM     10  C   UNL     1     -12.787  12.784  71.307  0.00  0.00    +0.040 A 
ATOM     11  C   UNL     1     -13.608  13.267  72.283  0.00  0.00    +0.003 A 
ATOM     12  C   UNL     1     -14.010  14.594  72.262  0.00  0.00    +0.003 A 
ATOM     13  C   UNL     1     -13.313  15.490  71.461  0.00  0.00    +0.040 A 
BRANCH   8  15
ATOM     14  C   UNL     1     -11.088  16.339  69.952  0.00  0.00    +0.253 C 
ATOM     15  O   UNL     1     -11.464  15.805  69.912  0.00  0.00    -0.468 OA
ENDBRANCH   8  15
ENDBRANCH   7   9
ENDBRANCH   6   7
ENDBRANCH   5   6
ENDBRANCH   4   5
ENDBRANCH   3   4
ENDBRANCH   1   3
BRANCH   1  16
ATOM     16  C   UNL     1     -10.454  14.460  64.854  0.00  0.00    +0.240 C 
BRANCH  16  17
ATOM     17  O   UNL     1      -9.838  15.454  65.575  0.00  0.00    -0.473 OA
BRANCH  17  18
ATOM     18  C   UNL     1      -9.048  15.361  66.694  0.00  0.00    +0.140 A 
ATOM     19  C   UNL     1      -8.571  16.536  67.267  0.00  0.00    +0.053 A 
ATOM     20  C   UNL     1      -7.289  16.656  67.764  0.00  0.00    +0.084 A 
ATOM     21  N   UNL     1      -6.993  17.975  67.843  0.00  0.00    -0.245 NA
ATOM     22  C   UNL     1      -8.115  18.680  67.569  0.00  0.00    +0.081 A 
ATOM     23  C   UNL     1      -8.435  20.025  67.515  0.00  0.00    +0.019 A 
ATOM     24  C   UNL     1      -9.744  20.433  67.290  0.00  0.00    +0.002 A 
ATOM     25  C   UNL     1     -10.719  19.494  67.008  0.00  0.00    +0.000 A 
ATOM     26  C   UNL     1     -10.257  18.275  66.520  0.00  0.00    +0.002 A 
ATOM     27  C   UNL     1      -6.460  15.559  67.799  0.00  0.00    +0.019 A 
ATOM     28  C   UNL     1      -7.030  14.339  67.502  0.00  0.00    +0.005 A 
ATOM     29  C   UNL     1      -9.122  17.807  67.171  0.00  0.00    +0.022 A 
ATOM     30  C   UNL     1      -8.321  14.223  67.007  0.00  0.00    +0.037 A 
ENDBRANCH  17  18
ENDBRANCH  16  17
ENDBRANCH   1  16
TORSDOF 10
ENDMDL
MODEL 4
REMARK VINA RESULT:      -6.9      1.797      2.225
REMARK  Name = 
REMARK  10 active torsions:
REMARK  status: ('A' for Active; 'I' for Inactive)
REMARK    1  A    between atoms: O_2  and  C_3
REMARK    2  A    between atoms: C_8  and  O_9
REMARK    3  A    between atoms: O_9  and  C_10
REMARK    4  A    between atoms: C_10  and  C_11
REMARK    5  A    between atoms: C_11  and  N_12
REMARK    6  A    between atoms: N_12  and  C_13
REMARK    7  A    between atoms: C_13  and  C_14
REMARK    8  A    between atoms: C_14  and  C_16
REMARK    9  A    between atoms: C_16  and  O_17
REMARK   10  A    between atoms: O_17  and  C_18
REMARK                            x       y       z     vdW  Elec       q    Type
REMARK                         _______ _______ _______ _____ _____    ______ ____
ROOT
ATOM      1  C   UNL     1     -11.337  13.799  66.188  0.00  0.00    +0.213 C 
ATOM      2  O   UNL     1     -11.000  15.004  65.283  0.00  0.00    -0.218 OA
ENDROOT
BRANCH   1   3
ATOM      3  C   UNL     1      -9.761  13.630  66.730  0.00  0.00    +0.126 C 
BRANCH   3   4
ATOM      4  N   UNL     1      -9.197  14.941  66.733  0.00  0.00    -0.211 NA
BRANCH   4   5
ATOM      5  C   UNL     1      -8.184  14.921  67.787  0.00  0.00    +0.136 C 
BRANCH   5   6
ATOM      6  C   UNL     1      -8.571  15.814  68.951  0.00  0.00    +0.224 C 
BRANCH   6   7
ATOM      7  O   UNL     1      -7.851  17.024  68.763  0.00  0.00    -0.471 OA
BRANCH   7   9
ATOM      8  C   UNL     1      -7.914  19.334  68.227  0.00  0.00    +0.172 A 
ATOM      9  C   UNL     1      -8.605  18.168  68.480  0.00  0.00    +0.172 A 
ATOM     10  C   UNL     1      -9.973  18.125  68.294  0.00  0.00    +0.040 A 
ATOM     11  C   UNL     1     -10.552  19.079  67.511  0.00  0.00    +0.003 A 
ATOM     12  C   UNL     1      -9.774  20.064  66.921  0.00  0.00    +0.003 A 
ATOM     13  C   UNL     1      -8.486  20.272  67.399  0.00  0.00    +0.040 A 
BRANCH   8  15
ATOM     14  C   UNL     1      -6.410  20.068  69.288  0.00  0.00    +0.253 C 
ATOM     15  O   UNL     1      -6.798  19.613  69.022  0.00  0.00    -0.468 OA
ENDBRANCH   8  15
ENDBRANCH   7   9
ENDBRANCH   6   7
ENDBRANCH   5   6
ENDBRANCH   4   5
ENDBRANCH   3   4
ENDBRANCH   1   3
BRANCH   1  16
ATOM     16  C   UNL     1     -11.700  14.812  67.470  0.00  0.00    +0.240 C 
BRANCH  16  17
ATOM     17  O   UNL     1     -12.112  13.994  68.496  0.00  0.00    -0.473 OA
BRANCH  17  18
ATOM     18  C   UNL     1     -12.187  14.252  69.842  0.00  0.00    +0.140 A 
ATOM     19  C   UNL     1     -12.371  13.180  70.711  0.00  0.00    +0.053 A 
ATOM     20  C   UNL     1     -13.205  13.246  71.810  0.00  0.00    +0.084 A 
ATOM     21  N   UNL     1     -13.505  11.980  72.183  0.00  0.00    -0.245 NA
ATOM     22  C   UNL     1     -12.746  11.130  71.453  0.00  0.00    +0.081 A 
ATOM     23  C   UNL     1     -12.596   9.756  71.398  0.00  0.00    +0.019 A 
ATOM     24  C   UNL     1     -11.632   9.181  70.578  0.00  0.00    +0.002 A 
ATOM     25  C   UNL     1     -10.889   9.977  69.727  0.00  0.00    +0.000 A 
ATOM     26  C   UNL     1     -11.454  11.209  69.409  0.00  0.00    +0.002 A 
ATOM     27  C   UNL     1     -13.814  14.435  72.140  0.00  0.00    +0.019 A 
ATOM     28  C   UNL     1     -13.403  15.557  71.451  0.00  0.00    +0.005 A 
ATOM     29  C   UNL     1     -12.041  11.849  70.494  0.00  0.00    +0.022 A 
ATOM     30  C   UNL     1     -12.561  15.486  70.351  0.00  0.00    +0.037 A 
ENDBRANCH  17  18
ENDBRANCH  16  17
ENDBRANCH   1  16
TORSDOF 10
ENDMDL
MODEL 5
REMARK VINA RESULT:      -6.8      3.152      5.071
REMARK  Name = 
REMARK  10 active torsions:
REMARK  status: ('A' for Active; 'I' for Inactive)
REMARK    1  A    between atoms: O_2  and  C_3
REMARK    2  A    between atoms: C_8  and  O_9
REMARK    3  A    between atoms: O_9  and  C_10
REMARK    4  A    between atoms: C_10  and  C_11
REMARK    5  A    between atoms: C_11  and  N_12
REMARK    6  A    between atoms: N_12  and  C_13
REMARK    7  A    between atoms: C_13  and  C_14
REMARK    8  A    between atoms: C_14  and  C_16
REMARK    9  A    between atoms: C_16  and  O_17
REMARK   10  A    between atoms: O_17  and  C_18
REMARK                            x       y       z     vdW  Elec       q    Type
REMARK                         _______ _______ _______ _____ _____    ______ ____
ROOT
ATOM      1  C   UNL     1     -12.432  13.078  65.805  0.00  0.00    +0.213 C 
ATOM      2  O   UNL     1     -13.543  14.059  65.369  0.00  0.00    -0.218 OA
ENDROOT
BRANCH   1   3
ATOM      3  C   UNL     1     -11.361  13.602  64.629  0.00  0.00    +0.126 C 
BRANCH   3   4
ATOM      4  N   UNL     1     -11.425  12.645  63.573  0.00  0.00    -0.211 NA
BRANCH   4   5
ATOM      5  C   UNL     1     -10.128  11.971  63.586  0.00  0.00    +0.136 C 
BRANCH   5   6
ATOM      6  C   UNL     1     -10.221  10.591  64.210  0.00  0.00    +0.224 C 
BRANCH   6   7
ATOM      7  O   UNL     1      -8.989  10.393  64.889  0.00  0.00    -0.471 OA
BRANCH   7   9
ATOM      8  C   UNL     1      -8.882   9.490  67.080  0.00  0.00    +0.172 A 
ATOM      9  C   UNL     1      -8.991  10.601  66.272  0.00  0.00    +0.172 A 
ATOM     10  C   UNL     1      -8.938  11.865  66.829  0.00  0.00    +0.040 A 
ATOM     11  C   UNL     1      -8.398  12.003  68.074  0.00  0.00    +0.003 A 
ATOM     12  C   UNL     1      -7.918  10.894  68.753  0.00  0.00    +0.003 A 
ATOM     13  C   UNL     1      -8.294   9.630  68.317  0.00  0.00    +0.040 A 
BRANCH   8  15
ATOM     14  C   UNL     1     -10.162   8.018  66.738  0.00  0.00    +0.253 C 
ATOM     15  O   UNL     1      -9.597   8.347  66.713  0.00  0.00    -0.468 OA
ENDBRANCH   8  15
ENDBRANCH   7   9
ENDBRANCH   6   7
ENDBRANCH   5   6
ENDBRANCH   4   5
ENDBRANCH   3   4
ENDBRANCH   1   3
BRANCH   1  16
ATOM     16  C   UNL     1     -11.822  14.191  66.897  0.00  0.00    +0.240 C 
BRANCH  16  17
ATOM     17  O   UNL     1     -11.720  13.530  68.097  0.00  0.00    -0.473 OA
BRANCH  17  18
ATOM     18  C   UNL     1     -11.714  14.034  69.374  0.00  0.00    +0.140 A 
ATOM     19  C   UNL     1     -12.107  13.199  70.416  0.00  0.00    +0.053 A 
ATOM     20  C   UNL     1     -12.887  13.637  71.468  0.00  0.00    +0.084 A 
ATOM     21  N   UNL     1     -13.445  12.552  72.055  0.00  0.00    -0.245 NA
ATOM     22  C   UNL     1     -12.900  11.443  71.503  0.00  0.00    +0.081 A 
ATOM     23  C   UNL     1     -13.049  10.081  71.697  0.00  0.00    +0.019 A 
ATOM     24  C   UNL     1     -12.247   9.176  71.013  0.00  0.00    +0.002 A 
ATOM     25  C   UNL     1     -11.366   9.630  70.049  0.00  0.00    +0.000 A 
ATOM     26  C   UNL     1     -11.659  10.877  69.506  0.00  0.00    +0.002 A 
ATOM     27  C   UNL     1     -13.221  14.968  71.569  0.00  0.00    +0.019 A 
ATOM     28  C   UNL     1     -12.592  15.835  70.700  0.00  0.00    +0.005 A 
ATOM     29  C   UNL     1     -12.075  11.811  70.446  0.00  0.00    +0.022 A 
ATOM     30  C   UNL     1     -11.805  15.390  69.648  0.00  0.00    +0.037 A 
ENDBRANCH  17  18
ENDBRANCH  16  17
ENDBRANCH   1  16
TORSDOF 10
ENDMDL
MODEL 6
REMARK VINA RESULT:      -6.6      1.744      2.088
REMARK  Name = 
REMARK  10 active torsions:
REMARK  status: ('A' for Active; 'I' for Inactive)
REMARK    1  A    between atoms: O_2  and  C_3
REMARK    2  A    between atoms: C_8  and  O_9
REMARK    3  A    between atoms: O_9  and  C_10
REMARK    4  A    between atoms: C_10  and  C_11
REMARK    5  A    between atoms: C_11  and  N_12
REMARK    6  A    between atoms: N_12  and  C_13
REMARK    7  A    between atoms: C_13  and  C_14
REMARK    8  A    between atoms: C_14  and  C_16
REMARK    9  A    between atoms: C_16  and  O_17
REMARK   10  A    between atoms: O_17  and  C_18
REMARK                            x       y       z     vdW  Elec       q    Type
REMARK                         _______ _______ _______ _____ _____    ______ ____
ROOT
ATOM      1  C   UNL     1     -11.061  13.084  65.920  0.00  0.00    +0.213 C 
ATOM      2  O   UNL     1     -12.240  12.841  64.953  0.00  0.00    -0.218 OA
ENDROOT
BRANCH   1   3
ATOM      3  C   UNL     1     -10.659  14.556  65.229  0.00  0.00    +0.126 C 
BRANCH   3   4
ATOM      4  N   UNL     1     -10.582  15.494  66.301  0.00  0.00    -0.211 NA
BRANCH   4   5
ATOM      5  C   UNL     1      -9.908  16.664  65.740  0.00  0.00    +0.136 C 
BRANCH   5   6
ATOM      6  C   UNL     1     -10.195  17.916  66.550  0.00  0.00    +0.224 C 
BRANCH   6   7
ATOM      7  O   UNL     1      -9.962  17.558  67.904  0.00  0.00    -0.471 OA
BRANCH   7   9
ATOM      8  C   UNL     1      -7.800  17.008  68.711  0.00  0.00    +0.172 A 
ATOM      9  C   UNL     1      -8.750  17.976  68.467  0.00  0.00    +0.172 A 
ATOM     10  C   UNL     1      -8.431  19.310  68.627  0.00  0.00    +0.040 A 
ATOM     11  C   UNL     1      -7.115  19.666  68.640  0.00  0.00    +0.003 A 
ATOM     12  C   UNL     1      -6.131  18.700  68.494  0.00  0.00    +0.003 A 
ATOM     13  C   UNL     1      -6.472  17.367  68.677  0.00  0.00    +0.040 A 
BRANCH   8  15
ATOM     14  C   UNL     1      -8.296  15.140  69.145  0.00  0.00    +0.253 C 
ATOM     15  O   UNL     1      -8.236  15.786  69.231  0.00  0.00    -0.468 OA
ENDBRANCH   8  15
ENDBRANCH   7   9
ENDBRANCH   6   7
ENDBRANCH   5   6
ENDBRANCH   4   5
ENDBRANCH   3   4
ENDBRANCH   1   3
BRANCH   1  16
ATOM     16  C   UNL     1     -12.068  13.845  67.020  0.00  0.00    +0.240 C 
BRANCH  16  17
ATOM     17  O   UNL     1     -11.796  13.277  68.241  0.00  0.00    -0.473 OA
BRANCH  17  18
ATOM     18  C   UNL     1     -11.836  13.837  69.494  0.00  0.00    +0.140 A 
ATOM     19  C   UNL     1     -12.245  13.043  70.561  0.00  0.00    +0.053 A 
ATOM     20  C   UNL     1     -13.064  13.513  71.569  0.00  0.00    +0.084 A 
ATOM     21  N   UNL     1     -13.620  12.446  72.188  0.00  0.00    -0.245 NA
ATOM     22  C   UNL     1     -13.040  11.323  71.703  0.00  0.00    +0.081 A 
ATOM     23  C   UNL     1     -13.172   9.969  71.954  0.00  0.00    +0.019 A 
ATOM     24  C   UNL     1     -12.334   9.049  71.335  0.00  0.00    +0.002 A 
ATOM     25  C   UNL     1     -11.433   9.475  70.377  0.00  0.00    +0.000 A 
ATOM     26  C   UNL     1     -11.731  10.691  69.770  0.00  0.00    +0.002 A 
ATOM     27  C   UNL     1     -13.423  14.842  71.600  0.00  0.00    +0.019 A 
ATOM     28  C   UNL     1     -12.783  15.680  70.711  0.00  0.00    +0.005 A 
ATOM     29  C   UNL     1     -12.191  11.659  70.655  0.00  0.00    +0.022 A 
ATOM     30  C   UNL     1     -11.957  15.203  69.703  0.00  0.00    +0.037 A 
ENDBRANCH  17  18
ENDBRANCH  16  17
ENDBRANCH   1  16
TORSDOF 10
ENDMDL
MODEL 7
REMARK VINA RESULT:      -6.6      1.793      2.386
REMARK  Name = 
REMARK  10 active torsions:
REMARK  status: ('A' for Active; 'I' for Inactive)
REMARK    1  A    between atoms: O_2  and  C_3
REMARK    2  A    between atoms: C_8  and  O_9
REMARK    3  A    between atoms: O_9  and  C_10
REMARK    4  A    between atoms: C_10  and  C_11
REMARK    5  A    between atoms: C_11  and  N_12
REMARK    6  A    between atoms: N_12  and  C_13
REMARK    7  A    between atoms: C_13  and  C_14
REMARK    8  A    between atoms: C_14  and  C_16
REMARK    9  A    between atoms: C_16  and  O_17
REMARK   10  A    between atoms: O_17  and  C_18
REMARK                            x       y       z     vdW  Elec       q    Type
REMARK                         _______ _______ _______ _____ _____    ______ ____
ROOT
ATOM      1  C   UNL     1      -9.936  14.056  67.152  0.00  0.00    +0.213 C 
ATOM      2  O   UNL     1     -10.251  13.601  65.710  0.00  0.00    -0.218 OA
ENDROOT
BRANCH   1   3
ATOM      3  C   UNL     1      -9.423  15.577  66.673  0.00  0.00    +0.126 C 
BRANCH   3   4
ATOM      4  N   UNL     1     -10.430  16.493  67.101  0.00  0.00    -0.211 NA
BRANCH   4   5
ATOM      5  C   UNL     1     -10.012  17.794  66.582  0.00  0.00    +0.136 C 
BRANCH   5   6
ATOM      6  C   UNL     1     -10.037  18.861  67.662  0.00  0.00    +0.224 C 
BRANCH   6   7
ATOM      7  O   UNL     1      -9.173  19.891  67.204  0.00  0.00    -0.471 OA
BRANCH   7   9
ATOM      8  C   UNL     1      -6.888  20.445  66.888  0.00  0.00    +0.172 A 
ATOM      9  C   UNL     1      -7.857  19.867  67.680  0.00  0.00    +0.172 A 
ATOM     10  C   UNL     1      -7.540  19.439  68.954  0.00  0.00    +0.040 A 
ATOM     11  C   UNL     1      -6.413  19.933  69.543  0.00  0.00    +0.003 A 
ATOM     12  C   UNL     1      -5.615  20.844  68.868  0.00  0.00    +0.003 A 
ATOM     13  C   UNL     1      -5.776  20.982  67.495  0.00  0.00    +0.040 A 
BRANCH   8  15
ATOM     14  C   UNL     1      -6.662  20.263  64.928  0.00  0.00    +0.253 C 
ATOM     15  O   UNL     1      -6.961  20.227  65.509  0.00  0.00    -0.468 OA
ENDBRANCH   8  15
ENDBRANCH   7   9
ENDBRANCH   6   7
ENDBRANCH   5   6
ENDBRANCH   4   5
ENDBRANCH   3   4
ENDBRANCH   1   3
BRANCH   1  16
ATOM     16  C   UNL     1     -11.500  14.619  67.358  0.00  0.00    +0.240 C 
BRANCH  16  17
ATOM     17  O   UNL     1     -12.027  13.902  68.405  0.00  0.00    -0.473 OA
BRANCH  17  18
ATOM     18  C   UNL     1     -12.073  14.212  69.741  0.00  0.00    +0.140 A 
ATOM     19  C   UNL     1     -12.324  13.188  70.650  0.00  0.00    +0.053 A 
ATOM     20  C   UNL     1     -13.142  13.352  71.751  0.00  0.00    +0.084 A 
ATOM     21  N   UNL     1     -13.528  12.124  72.171  0.00  0.00    -0.245 NA
ATOM     22  C   UNL     1     -12.837  11.197  71.468  0.00  0.00    +0.081 A 
ATOM     23  C   UNL     1     -12.785   9.815  71.462  0.00  0.00    +0.019 A 
ATOM     24  C   UNL     1     -11.871   9.144  70.658  0.00  0.00    +0.002 A 
ATOM     25  C   UNL     1     -11.081   9.854  69.773  0.00  0.00    +0.000 A 
ATOM     26  C   UNL     1     -11.560  11.111  69.415  0.00  0.00    +0.002 A 
ATOM     27  C   UNL     1     -13.663  14.592  72.041  0.00  0.00    +0.019 A 
ATOM     28  C   UNL     1     -13.180  15.656  71.309  0.00  0.00    +0.005 A 
ATOM     29  C   UNL     1     -12.092  11.830  70.479  0.00  0.00    +0.022 A 
ATOM     30  C   UNL     1     -12.354  15.487  70.208  0.00  0.00    +0.037 A 
ENDBRANCH  17  18
ENDBRANCH  16  17
ENDBRANCH   1  16
TORSDOF 10
ENDMDL
MODEL 8
REMARK VINA RESULT:      -6.6      2.423      9.231
REMARK  Name = 
REMARK  10 active torsions:
REMARK  status: ('A' for Active; 'I' for Inactive)
REMARK    1  A    between atoms: O_2  and  C_3
REMARK    2  A    between atoms: C_8  and  O_9
REMARK    3  A    between atoms: O_9  and  C_10
REMARK    4  A    between atoms: C_10  and  C_11
REMARK    5  A    between atoms: C_11  and  N_12
REMARK    6  A    between atoms: N_12  and  C_13
REMARK    7  A    between atoms: C_13  and  C_14
REMARK    8  A    between atoms: C_14  and  C_16
REMARK    9  A    between atoms: C_16  and  O_17
REMARK   10  A    between atoms: O_17  and  C_18
REMARK                            x       y       z     vdW  Elec       q    Type
REMARK                         _______ _______ _______ _____ _____    ______ ____
ROOT
ATOM      1  C   UNL     1     -11.682  14.929  71.412  0.00  0.00    +0.213 C 
ATOM      2  O   UNL     1     -12.601  15.997  72.045  0.00  0.00    -0.218 OA
ENDROOT
BRANCH   1   3
ATOM      3  C   UNL     1     -12.962  13.974  70.907  0.00  0.00    +0.126 C 
BRANCH   3   4
ATOM      4  N   UNL     1     -12.614  12.631  71.239  0.00  0.00    -0.211 NA
BRANCH   4   5
ATOM      5  C   UNL     1     -12.010  12.079  70.026  0.00  0.00    +0.136 C 
BRANCH   5   6
ATOM      6  C   UNL     1     -12.014  10.561  70.041  0.00  0.00    +0.224 C 
BRANCH   6   7
ATOM      7  O   UNL     1     -12.189  10.191  71.401  0.00  0.00    -0.471 OA
BRANCH   7   9
ATOM      8  C   UNL     1     -12.700   7.882  71.584  0.00  0.00    +0.172 A 
ATOM      9  C   UNL     1     -11.788   8.899  71.759  0.00  0.00    +0.172 A 
ATOM     10  C   UNL     1     -10.487   8.604  72.119  0.00  0.00    +0.040 A 
ATOM     11  C   UNL     1     -10.031   7.334  71.918  0.00  0.00    +0.003 A 
ATOM     12  C   UNL     1     -10.863   6.374  71.364  0.00  0.00    +0.003 A 
ATOM     13  C   UNL     1     -12.231   6.612  71.336  0.00  0.00    +0.040 A 
BRANCH   8  15
ATOM     14  C   UNL     1     -14.663   8.082  71.758  0.00  0.00    +0.253 C 
ATOM     15  O   UNL     1     -14.032   8.139  71.921  0.00  0.00    -0.468 OA
ENDBRANCH   8  15
ENDBRANCH   7   9
ENDBRANCH   6   7
ENDBRANCH   5   6
ENDBRANCH   4   5
ENDBRANCH   3   4
ENDBRANCH   1   3
BRANCH   1  16
ATOM     16  C   UNL     1     -11.677  15.744  69.949  0.00  0.00    +0.240 C 
BRANCH  16  17
ATOM     17  O   UNL     1     -10.376  15.721  69.506  0.00  0.00    -0.473 OA
BRANCH  17  18
ATOM     18  C   UNL     1      -9.878  15.364  68.277  0.00  0.00    +0.140 A 
ATOM     19  C   UNL     1      -9.885  16.313  67.259  0.00  0.00    +0.053 A 
ATOM     20  C   UNL     1     -10.202  16.001  65.952  0.00  0.00    +0.084 A 
ATOM     21  N   UNL     1     -10.540  17.150  65.319  0.00  0.00    -0.245 NA
ATOM     22  C   UNL     1     -10.277  18.186  66.149  0.00  0.00    +0.081 A 
ATOM     23  C   UNL     1     -10.392  19.561  66.060  0.00  0.00    +0.019 A 
ATOM     24  C   UNL     1      -9.933  20.378  67.086  0.00  0.00    +0.002 A 
ATOM     25  C   UNL     1      -9.459  19.813  68.256  0.00  0.00    +0.000 A 
ATOM     26  C   UNL     1      -9.888  18.515  68.514  0.00  0.00    +0.002 A 
ATOM     27  C   UNL     1     -10.427  14.692  65.592  0.00  0.00    +0.019 A 
ATOM     28  C   UNL     1     -10.136  13.729  66.536  0.00  0.00    +0.005 A 
ATOM     29  C   UNL     1      -9.893  17.695  67.392  0.00  0.00    +0.022 A 
ATOM     30  C   UNL     1      -9.813  14.048  67.847  0.00  0.00    +0.037 A 
ENDBRANCH  17  18
ENDBRANCH  16  17
ENDBRANCH   1  16
TORSDOF 10
ENDMDL
MODEL 9
REMARK VINA RESULT:      -6.5      2.151      4.439
REMARK  Name = 
REMARK  10 active torsions:
REMARK  status: ('A' for Active; 'I' for Inactive)
REMARK    1  A    between atoms: O_2  and  C_3
REMARK    2  A    between atoms: C_8  and  O_9
REMARK    3  A    between atoms: O_9  and  C_10
REMARK    4  A    between atoms: C_10  and  C_11
REMARK    5  A    between atoms: C_11  and  N_12
REMARK    6  A    between atoms: N_12  and  C_13
REMARK    7  A    between atoms: C_13  and  C_14
REMARK    8  A    between atoms: C_14  and  C_16
REMARK    9  A    between atoms: C_16  and  O_17
REMARK   10  A    between atoms: O_17  and  C_18
REMARK                            x       y       z     vdW  Elec       q    Type
REMARK                         _______ _______ _______ _____ _____    ______ ____
ROOT
ATOM      1  C   UNL     1      -9.024  16.760  66.758  0.00  0.00    +0.213 C 
ATOM      2  O   UNL     1      -7.905  17.125  65.757  0.00  0.00    -0.218 OA
ENDROOT
BRANCH   1   3
ATOM      3  C   UNL     1     -10.250  17.252  65.729  0.00  0.00    +0.126 C 
BRANCH   3   4
ATOM      4  N   UNL     1     -10.457  18.640  65.988  0.00  0.00    -0.211 NA
BRANCH   4   5
ATOM      5  C   UNL     1     -10.590  18.744  67.440  0.00  0.00    +0.136 C 
BRANCH   5   6
ATOM      6  C   UNL     1     -10.015  20.049  67.962  0.00  0.00    +0.224 C 
BRANCH   6   7
ATOM      7  O   UNL     1      -8.953  20.379  67.079  0.00  0.00    -0.471 OA
BRANCH   7   9
ATOM      8  C   UNL     1      -6.615  20.643  66.772  0.00  0.00    +0.172 A 
ATOM      9  C   UNL     1      -7.652  20.188  67.558  0.00  0.00    +0.172 A 
ATOM     10  C   UNL     1      -7.396  19.718  68.831  0.00  0.00    +0.040 A 
ATOM     11  C   UNL     1      -6.218  20.064  69.426  0.00  0.00    +0.003 A 
ATOM     12  C   UNL     1      -5.310  20.870  68.758  0.00  0.00    +0.003 A 
ATOM     13  C   UNL     1      -5.446  21.033  67.385  0.00  0.00    +0.040 A 
BRANCH   8  15
ATOM     14  C   UNL     1      -6.407  20.272  64.837  0.00  0.00    +0.253 C 
ATOM     15  O   UNL     1      -6.710  20.441  65.392  0.00  0.00    -0.468 OA
ENDBRANCH   8  15
ENDBRANCH   7   9
ENDBRANCH   6   7
ENDBRANCH   5   6
ENDBRANCH   4   5
ENDBRANCH   3   4
ENDBRANCH   1   3
BRANCH   1  16
ATOM     16  C   UNL     1      -9.107  15.200  66.158  0.00  0.00    +0.240 C 
BRANCH  16  17
ATOM     17  O   UNL     1     -10.445  14.924  66.001  0.00  0.00    -0.473 OA
BRANCH  17  18
ATOM     18  C   UNL     1     -11.055  13.766  65.588  0.00  0.00    +0.140 A 
ATOM     19  C   UNL     1     -11.425  12.833  66.553  0.00  0.00    +0.053 A 
ATOM     20  C   UNL     1     -11.274  11.473  66.370  0.00  0.00    +0.084 A 
ATOM     21  N   UNL     1     -11.303  10.882  67.588  0.00  0.00    -0.245 NA
ATOM     22  C   UNL     1     -11.637  11.818  68.507  0.00  0.00    +0.081 A 
ATOM     23  C   UNL     1     -11.836  11.815  69.875  0.00  0.00    +0.019 A 
ATOM     24  C   UNL     1     -12.278  12.958  70.529  0.00  0.00    +0.002 A 
ATOM     25  C   UNL     1     -12.416  14.142  69.828  0.00  0.00    +0.000 A 
ATOM     26  C   UNL     1     -11.680  14.232  68.650  0.00  0.00    +0.002 A 
ATOM     27  C   UNL     1     -10.838  10.986  65.159  0.00  0.00    +0.019 A 
ATOM     28  C   UNL     1     -10.752  11.889  64.120  0.00  0.00    +0.005 A 
ATOM     29  C   UNL     1     -11.691  13.065  67.895  0.00  0.00    +0.022 A 
ATOM     30  C   UNL     1     -10.909  13.254  64.308  0.00  0.00    +0.037 A 
ENDBRANCH  17  18
ENDBRANCH  16  17
ENDBRANCH   1  16
TORSDOF 10
ENDMDL
