MODEL 1
REMARK VINA RESULT:      -7.3      0.000      0.000
REMARK  Name = 
REMARK  0 active torsions:
REMARK  status: ('A' for Active; 'I' for Inactive)
REMARK                            x       y       z     vdW  Elec       q    Type
REMARK                         _______ _______ _______ _____ _____    ______ ____
ROOT
ATOM      1  C   UNL     1      -6.838  18.088  66.755  0.00  0.00    +0.033 C 
ATOM      2  C   UNL     1      -8.161  18.623  66.734  0.00  0.00    +0.127 C 
ATOM      3  C   UNL     1      -9.252  17.690  66.782  0.00  0.00    +0.028 C 
ATOM      4  C   UNL     1      -9.072  17.325  68.350  0.00  0.00    +0.005 C 
ATOM      5  C   UNL     1     -10.590  16.577  68.286  0.00  0.00    +0.033 C 
ATOM      6  C   UNL     1      -9.892  15.144  68.192  0.00  0.00    +0.164 C 
ATOM      7  C   UNL     1      -8.735  15.225  67.050  0.00  0.00    +0.182 C 
ATOM      8  O   UNL     1      -9.372  14.162  66.165  0.00  0.00    -0.220 OA
ATOM      9  F   UNL     1      -9.054  14.984  69.286  0.00  0.00    -0.237 F 
ATOM     10  C   UNL     1     -10.807  14.071  68.101  0.00  0.00    +0.046 C 
ATOM     11  C   UNL     1     -11.620  14.216  69.354  0.00  0.00    -0.039 C 
ATOM     12  C   UNL     1     -12.232  13.127  69.818  0.00  0.00    +0.029 C 
ATOM     13  C   UNL     1     -11.890  11.779  69.419  0.00  0.00    +0.173 C 
ATOM     14  C   UNL     1     -10.966  11.586  68.259  0.00  0.00    +0.070 C 
ATOM     15  O   UNL     1     -12.318  10.739  69.974  0.00  0.00    -0.291 OA
ATOM     16  C   UNL     1     -11.812  15.461  70.092  0.00  0.00    +0.022 C 
ATOM     17  C   UNL     1     -11.754  13.984  66.951  0.00  0.00    +0.007 C 
ATOM     18  C   UNL     1     -10.046  12.774  68.241  0.00  0.00    +0.014 C 
ATOM     19  C   UNL     1     -10.777  16.523  69.896  0.00  0.00    +0.007 C 
ATOM     20  C   UNL     1      -9.568  18.814  68.733  0.00  0.00    +0.003 C 
ATOM     21  C   UNL     1     -10.565  18.457  66.646  0.00  0.00    +0.003 C 
ATOM     22  C   UNL     1      -9.394  16.432  66.136  0.00  0.00    +0.038 C 
ATOM     23  C   UNL     1      -8.441  19.502  67.958  0.00  0.00    +0.030 C 
ATOM     24  O   UNL     1      -8.225  19.500  65.638  0.00  0.00    -0.226 OA
ENDROOT
TORSDOF 0
ENDMDL
MODEL 2
REMARK VINA RESULT:      -7.1      1.517      6.159
REMARK  Name = 
REMARK  0 active torsions:
REMARK  status: ('A' for Active; 'I' for Inactive)
REMARK                            x       y       z     vdW  Elec       q    Type
REMARK                         _______ _______ _______ _____ _____    ______ ____
ROOT
ATOM      1  C   UNL     1     -11.501  12.591  69.542  0.00  0.00    +0.033 C 
ATOM      2  C   UNL     1     -11.114  12.448  68.175  0.00  0.00    +0.127 C 
ATOM      3  C   UNL     1     -10.829  13.648  67.440  0.00  0.00    +0.028 C 
ATOM      4  C   UNL     1      -9.403  13.930  68.154  0.00  0.00    +0.005 C 
ATOM      5  C   UNL     1      -9.092  15.074  66.945  0.00  0.00    +0.033 C 
ATOM      6  C   UNL     1      -9.477  16.255  67.948  0.00  0.00    +0.164 C 
ATOM      7  C   UNL     1     -10.887  15.867  68.661  0.00  0.00    +0.182 C 
ATOM      8  O   UNL     1     -11.631  17.076  68.110  0.00  0.00    -0.220 OA
ATOM      9  F   UNL     1      -8.673  16.160  69.075  0.00  0.00    -0.237 F 
ATOM     10  C   UNL     1      -9.382  17.542  67.373  0.00  0.00    +0.046 C 
ATOM     11  C   UNL     1      -7.946  17.615  66.946  0.00  0.00    -0.039 C 
ATOM     12  C   UNL     1      -7.406  18.826  66.813  0.00  0.00    +0.029 C 
ATOM     13  C   UNL     1      -7.977  20.030  67.378  0.00  0.00    +0.173 C 
ATOM     14  C   UNL     1      -9.360  19.970  67.946  0.00  0.00    +0.070 C 
ATOM     15  O   UNL     1      -7.398  21.140  67.426  0.00  0.00    -0.291 OA
ATOM     16  C   UNL     1      -7.099  16.465  66.644  0.00  0.00    +0.022 C 
ATOM     17  C   UNL     1     -10.226  17.904  66.196  0.00  0.00    +0.007 C 
ATOM     18  C   UNL     1      -9.551  18.572  68.463  0.00  0.00    +0.014 C 
ATOM     19  C   UNL     1      -7.502  15.158  67.251  0.00  0.00    +0.007 C 
ATOM     20  C   UNL     1      -8.794  12.634  67.405  0.00  0.00    +0.003 C 
ATOM     21  C   UNL     1     -10.540  13.281  65.987  0.00  0.00    +0.003 C 
ATOM     22  C   UNL     1     -11.495  14.904  67.465  0.00  0.00    +0.038 C 
ATOM     23  C   UNL     1      -9.804  11.668  68.032  0.00  0.00    +0.030 C 
ATOM     24  O   UNL     1     -12.086  11.637  67.564  0.00  0.00    -0.226 OA
ENDROOT
TORSDOF 0
ENDMDL
MODEL 3
REMARK VINA RESULT:      -6.7      1.940      6.059
REMARK  Name = 
REMARK  0 active torsions:
REMARK  status: ('A' for Active; 'I' for Inactive)
REMARK                            x       y       z     vdW  Elec       q    Type
REMARK                         _______ _______ _______ _____ _____    ______ ____
ROOT
ATOM      1  C   UNL     1      -9.590  11.704  66.340  0.00  0.00    +0.033 C 
ATOM      2  C   UNL     1     -10.848  12.334  66.586  0.00  0.00    +0.127 C 
ATOM      3  C   UNL     1     -10.826  13.648  67.166  0.00  0.00    +0.028 C 
ATOM      4  C   UNL     1     -10.341  14.402  65.817  0.00  0.00    +0.005 C 
ATOM      5  C   UNL     1     -10.741  15.868  66.567  0.00  0.00    +0.033 C 
ATOM      6  C   UNL     1      -9.200  16.131  66.896  0.00  0.00    +0.164 C 
ATOM      7  C   UNL     1      -8.589  14.773  67.551  0.00  0.00    +0.182 C 
ATOM      8  O   UNL     1      -8.231  15.433  68.875  0.00  0.00    -0.220 OA
ATOM      9  F   UNL     1      -8.481  16.100  65.711  0.00  0.00    -0.237 F 
ATOM     10  C   UNL     1      -8.967  17.338  67.592  0.00  0.00    +0.046 C 
ATOM     11  C   UNL     1      -9.526  18.376  66.663  0.00  0.00    -0.039 C 
ATOM     12  C   UNL     1      -9.055  19.617  66.774  0.00  0.00    +0.029 C 
ATOM     13  C   UNL     1      -7.825  19.954  67.457  0.00  0.00    +0.173 C 
ATOM     14  C   UNL     1      -7.153  18.905  68.285  0.00  0.00    +0.070 C 
ATOM     15  O   UNL     1      -7.270  21.077  67.416  0.00  0.00    -0.291 OA
ATOM     16  C   UNL     1     -10.562  18.136  65.662  0.00  0.00    +0.022 C 
ATOM     17  C   UNL     1      -9.571  17.561  68.938  0.00  0.00    +0.007 C 
ATOM     18  C   UNL     1      -7.478  17.583  67.649  0.00  0.00    +0.014 C 
ATOM     19  C   UNL     1     -10.726  16.726  65.191  0.00  0.00    +0.007 C 
ATOM     20  C   UNL     1     -11.779  14.089  65.149  0.00  0.00    +0.003 C 
ATOM     21  C   UNL     1     -12.261  14.091  67.440  0.00  0.00    +0.003 C 
ATOM     22  C   UNL     1      -9.988  14.171  68.189  0.00  0.00    +0.038 C 
ATOM     23  C   UNL     1     -11.630  12.571  65.291  0.00  0.00    +0.030 C 
ATOM     24  O   UNL     1     -11.623  11.416  67.313  0.00  0.00    -0.226 OA
ENDROOT
TORSDOF 0
ENDMDL
MODEL 4
REMARK VINA RESULT:      -6.6      1.801      2.951
REMARK  Name = 
REMARK  0 active torsions:
REMARK  status: ('A' for Active; 'I' for Inactive)
REMARK                            x       y       z     vdW  Elec       q    Type
REMARK                         _______ _______ _______ _____ _____    ______ ____
ROOT
ATOM      1  C   UNL     1      -6.896  20.062  65.458  0.00  0.00    +0.033 C 
ATOM      2  C   UNL     1      -6.827  19.976  66.882  0.00  0.00    +0.127 C 
ATOM      3  C   UNL     1      -7.793  19.140  67.540  0.00  0.00    +0.028 C 
ATOM      4  C   UNL     1      -7.111  17.740  67.096  0.00  0.00    +0.005 C 
ATOM      5  C   UNL     1      -8.106  16.967  68.227  0.00  0.00    +0.033 C 
ATOM      6  C   UNL     1      -9.090  16.501  67.059  0.00  0.00    +0.164 C 
ATOM      7  C   UNL     1      -9.406  17.795  66.125  0.00  0.00    +0.182 C 
ATOM      8  O   UNL     1     -10.903  17.774  66.400  0.00  0.00    -0.220 OA
ATOM      9  F   UNL     1      -8.362  15.777  66.126  0.00  0.00    -0.237 F 
ATOM     10  C   UNL     1     -10.199  15.754  67.516  0.00  0.00    +0.046 C 
ATOM     11  C   UNL     1      -9.558  14.587  68.207  0.00  0.00    -0.039 C 
ATOM     12  C   UNL     1     -10.279  13.473  68.327  0.00  0.00    +0.029 C 
ATOM     13  C   UNL     1     -11.466  13.193  67.548  0.00  0.00    +0.173 C 
ATOM     14  C   UNL     1     -12.062  14.294  66.728  0.00  0.00    +0.070 C 
ATOM     15  O   UNL     1     -12.050  12.085  67.508  0.00  0.00    -0.291 OA
ATOM     16  C   UNL     1      -8.215  14.583  68.778  0.00  0.00    +0.022 C 
ATOM     17  C   UNL     1     -11.178  16.363  68.464  0.00  0.00    +0.007 C 
ATOM     18  C   UNL     1     -10.926  15.188  66.320  0.00  0.00    +0.014 C 
ATOM     19  C   UNL     1      -7.251  15.589  68.233  0.00  0.00    +0.007 C 
ATOM     20  C   UNL     1      -5.863  18.061  68.071  0.00  0.00    +0.003 C 
ATOM     21  C   UNL     1      -7.611  19.270  69.050  0.00  0.00    +0.003 C 
ATOM     22  C   UNL     1      -9.176  18.967  67.264  0.00  0.00    +0.038 C 
ATOM     23  C   UNL     1      -5.504  19.366  67.354  0.00  0.00    +0.030 C 
ATOM     24  O   UNL     1      -6.810  21.295  67.366  0.00  0.00    -0.226 OA
ENDROOT
TORSDOF 0
ENDMDL
MODEL 5
REMARK VINA RESULT:      -6.6      3.240      5.877
REMARK  Name = 
REMARK  0 active torsions:
REMARK  status: ('A' for Active; 'I' for Inactive)
REMARK                            x       y       z     vdW  Elec       q    Type
REMARK                         _______ _______ _______ _____ _____    ______ ____
ROOT
ATOM      1  C   UNL     1      -9.793  10.825  63.805  0.00  0.00    +0.033 C 
ATOM      2  C   UNL     1      -9.100  10.291  64.933  0.00  0.00    +0.127 C 
ATOM      3  C   UNL     1      -9.092  11.076  66.136  0.00  0.00    +0.028 C 
ATOM      4  C   UNL     1     -10.634  10.773  66.527  0.00  0.00    +0.005 C 
ATOM      5  C   UNL     1     -10.308  11.417  68.059  0.00  0.00    +0.033 C 
ATOM      6  C   UNL     1     -11.009  12.790  67.642  0.00  0.00    +0.164 C 
ATOM      7  C   UNL     1     -10.419  13.233  66.192  0.00  0.00    +0.182 C 
ATOM      8  O   UNL     1      -9.824  14.538  66.702  0.00  0.00    -0.220 OA
ATOM      9  F   UNL     1     -12.307  12.521  67.234  0.00  0.00    -0.237 F 
ATOM     10  C   UNL     1     -10.998  13.766  68.664  0.00  0.00    +0.046 C 
ATOM     11  C   UNL     1     -11.723  13.086  69.787  0.00  0.00    -0.039 C 
ATOM     12  C   UNL     1     -12.302  13.862  70.703  0.00  0.00    +0.029 C 
ATOM     13  C   UNL     1     -12.582  15.268  70.507  0.00  0.00    +0.173 C 
ATOM     14  C   UNL     1     -11.993  15.959  69.317  0.00  0.00    +0.070 C 
ATOM     15  O   UNL     1     -13.286  15.969  71.271  0.00  0.00    -0.291 OA
ATOM     16  C   UNL     1     -11.826  11.641  69.968  0.00  0.00    +0.022 C 
ATOM     17  C   UNL     1      -9.703  14.279  69.201  0.00  0.00    +0.007 C 
ATOM     18  C   UNL     1     -11.871  14.922  68.237  0.00  0.00    +0.014 C 
ATOM     19  C   UNL     1     -11.640  10.798  68.747  0.00  0.00    +0.007 C 
ATOM     20  C   UNL     1     -10.233   9.238  66.835  0.00  0.00    +0.003 C 
ATOM     21  C   UNL     1      -8.218  10.379  67.176  0.00  0.00    +0.003 C 
ATOM     22  C   UNL     1      -8.952  12.482  66.297  0.00  0.00    +0.038 C 
ATOM     23  C   UNL     1      -9.723   8.977  65.415  0.00  0.00    +0.030 C 
ATOM     24  O   UNL     1      -7.815   9.940  64.488  0.00  0.00    -0.226 OA
ENDROOT
TORSDOF 0
ENDMDL
MODEL 6
REMARK VINA RESULT:      -6.6      3.043      7.011
REMARK  Name = 
REMARK  0 active torsions:
REMARK  status: ('A' for Active; 'I' for Inactive)
REMARK                            x       y       z     vdW  Elec       q    Type
REMARK                         _______ _______ _______ _____ _____    ______ ____
ROOT
ATOM      1  C   UNL     1      -7.189   9.364  68.421  0.00  0.00    +0.033 C 
ATOM      2  C   UNL     1      -8.557   8.957  68.377  0.00  0.00    +0.127 C 
ATOM      3  C   UNL     1      -9.542   9.974  68.130  0.00  0.00    +0.028 C 
ATOM      4  C   UNL     1      -9.200  10.138  66.556  0.00  0.00    +0.005 C 
ATOM      5  C   UNL     1     -10.635  11.024  66.400  0.00  0.00    +0.033 C 
ATOM      6  C   UNL     1      -9.807  12.388  66.405  0.00  0.00    +0.164 C 
ATOM      7  C   UNL     1      -8.760  12.335  67.650  0.00  0.00    +0.182 C 
ATOM      8  O   UNL     1      -9.356  13.545  68.355  0.00  0.00    -0.220 OA
ATOM      9  F   UNL     1      -8.872  12.345  65.381  0.00  0.00    -0.237 F 
ATOM     10  C   UNL     1     -10.614  13.543  66.296  0.00  0.00    +0.046 C 
ATOM     11  C   UNL     1     -11.334  13.330  64.997  0.00  0.00    -0.039 C 
ATOM     12  C   UNL     1     -11.793  14.409  64.365  0.00  0.00    +0.029 C 
ATOM     13  C   UNL     1     -11.351  15.758  64.648  0.00  0.00    +0.173 C 
ATOM     14  C   UNL     1     -10.509  15.998  65.861  0.00  0.00    +0.070 C 
ATOM     15  O   UNL     1     -11.627  16.761  63.949  0.00  0.00    -0.291 OA
ATOM     16  C   UNL     1     -11.589  12.031  64.381  0.00  0.00    +0.022 C 
ATOM     17  C   UNL     1     -11.637  13.848  67.339  0.00  0.00    +0.007 C 
ATOM     18  C   UNL     1      -9.718  14.741  66.089  0.00  0.00    +0.014 C 
ATOM     19  C   UNL     1     -10.685  10.909  64.783  0.00  0.00    +0.007 C 
ATOM     20  C   UNL     1      -9.810   8.666  66.290  0.00  0.00    +0.003 C 
ATOM     21  C   UNL     1     -10.932   9.350  68.227  0.00  0.00    +0.003 C 
ATOM     22  C   UNL     1      -9.609  11.305  68.623  0.00  0.00    +0.038 C 
ATOM     23  C   UNL     1      -8.824   7.973  67.233  0.00  0.00    +0.030 C 
ATOM     24  O   UNL     1      -8.797   8.221  69.550  0.00  0.00    -0.226 OA
ENDROOT
TORSDOF 0
ENDMDL
MODEL 7
REMARK VINA RESULT:      -6.5      1.994      6.251
REMARK  Name = 
REMARK  0 active torsions:
REMARK  status: ('A' for Active; 'I' for Inactive)
REMARK                            x       y       z     vdW  Elec       q    Type
REMARK                         _______ _______ _______ _____ _____    ______ ____
ROOT
ATOM      1  C   UNL     1     -10.279  13.404  66.136  0.00  0.00    +0.033 C 
ATOM      2  C   UNL     1     -10.489  13.782  67.497  0.00  0.00    +0.127 C 
ATOM      3  C   UNL     1      -9.629  14.795  68.043  0.00  0.00    +0.028 C 
ATOM      4  C   UNL     1     -10.323  16.026  67.252  0.00  0.00    +0.005 C 
ATOM      5  C   UNL     1      -9.477  17.079  68.274  0.00  0.00    +0.033 C 
ATOM      6  C   UNL     1      -8.404  17.350  67.123  0.00  0.00    +0.164 C 
ATOM      7  C   UNL     1      -7.944  15.912  66.517  0.00  0.00    +0.182 C 
ATOM      8  O   UNL     1      -6.483  16.082  66.910  0.00  0.00    -0.220 OA
ATOM      9  F   UNL     1      -9.067  17.816  65.997  0.00  0.00    -0.237 F 
ATOM     10  C   UNL     1      -7.377  18.243  67.503  0.00  0.00    +0.046 C 
ATOM     11  C   UNL     1      -8.131  19.487  67.871  0.00  0.00    -0.039 C 
ATOM     12  C   UNL     1      -7.473  20.644  67.811  0.00  0.00    +0.029 C 
ATOM     13  C   UNL     1      -6.228  20.828  67.096  0.00  0.00    +0.173 C 
ATOM     14  C   UNL     1      -5.509  19.619  66.585  0.00  0.00    +0.070 C 
ATOM     15  O   UNL     1      -5.691  21.937  66.871  0.00  0.00    -0.291 OA
ATOM     16  C   UNL     1      -9.523  19.527  68.309  0.00  0.00    +0.022 C 
ATOM     17  C   UNL     1      -6.471  17.908  68.641  0.00  0.00    +0.007 C 
ATOM     18  C   UNL     1      -6.561  18.591  66.281  0.00  0.00    +0.014 C 
ATOM     19  C   UNL     1     -10.385  18.372  67.910  0.00  0.00    +0.007 C 
ATOM     20  C   UNL     1     -11.645  15.839  68.161  0.00  0.00    +0.003 C 
ATOM     21  C   UNL     1      -9.952  14.972  69.524  0.00  0.00    +0.003 C 
ATOM     22  C   UNL     1      -8.234  14.991  67.857  0.00  0.00    +0.038 C 
ATOM     23  C   UNL     1     -11.877  14.394  67.711  0.00  0.00    +0.030 C 
ATOM     24  O   UNL     1     -10.499  12.594  68.248  0.00  0.00    -0.226 OA
ENDROOT
TORSDOF 0
ENDMDL
MODEL 8
REMARK VINA RESULT:      -6.5      1.969      6.369
REMARK  Name = 
REMARK  0 active torsions:
REMARK  status: ('A' for Active; 'I' for Inactive)
REMARK                            x       y       z     vdW  Elec       q    Type
REMARK                         _______ _______ _______ _____ _____    ______ ____
ROOT
ATOM      1  C   UNL     1     -11.843  14.729  68.682  0.00  0.00    +0.033 C 
ATOM      2  C   UNL     1     -11.288  14.533  67.381  0.00  0.00    +0.127 C 
ATOM      3  C   UNL     1     -10.386  15.538  66.890  0.00  0.00    +0.028 C 
ATOM      4  C   UNL     1      -9.148  15.109  67.841  0.00  0.00    +0.005 C 
ATOM      5  C   UNL     1      -8.152  16.087  66.881  0.00  0.00    +0.033 C 
ATOM      6  C   UNL     1      -8.199  17.238  67.987  0.00  0.00    +0.164 C 
ATOM      7  C   UNL     1      -9.753  17.458  68.417  0.00  0.00    +0.182 C 
ATOM      8  O   UNL     1      -9.797  18.908  67.956  0.00  0.00    -0.220 OA
ATOM      9  F   UNL     1      -7.751  16.716  69.192  0.00  0.00    -0.237 F 
ATOM     10  C   UNL     1      -7.462  18.392  67.638  0.00  0.00    +0.046 C 
ATOM     11  C   UNL     1      -6.073  17.858  67.443  0.00  0.00    -0.039 C 
ATOM     12  C   UNL     1      -5.061  18.714  67.579  0.00  0.00    +0.029 C 
ATOM     13  C   UNL     1      -5.176  20.000  68.233  0.00  0.00    +0.173 C 
ATOM     14  C   UNL     1      -6.540  20.512  68.576  0.00  0.00    +0.070 C 
ATOM     15  O   UNL     1      -4.208  20.736  68.537  0.00  0.00    -0.291 OA
ATOM     16  C   UNL     1      -5.744  16.479  67.095  0.00  0.00    +0.022 C 
ATOM     17  C   UNL     1      -7.823  19.176  66.420  0.00  0.00    +0.007 C 
ATOM     18  C   UNL     1      -7.397  19.306  68.838  0.00  0.00    +0.014 C 
ATOM     19  C   UNL     1      -6.769  15.441  67.426  0.00  0.00    +0.007 C 
ATOM     20  C   UNL     1      -9.001  13.738  66.998  0.00  0.00    +0.003 C 
ATOM     21  C   UNL     1      -9.995  15.192  65.456  0.00  0.00    +0.003 C 
ATOM     22  C   UNL     1     -10.457  16.953  67.011  0.00  0.00    +0.038 C 
ATOM     23  C   UNL     1     -10.425  13.270  67.313  0.00  0.00    +0.030 C 
ATOM     24  O   UNL     1     -12.366  14.281  66.517  0.00  0.00    -0.226 OA
ENDROOT
TORSDOF 0
ENDMDL
MODEL 9
REMARK VINA RESULT:      -6.5      1.887      2.838
REMARK  Name = 
REMARK  0 active torsions:
REMARK  status: ('A' for Active; 'I' for Inactive)
REMARK                            x       y       z     vdW  Elec       q    Type
REMARK                         _______ _______ _______ _____ _____    ______ ____
ROOT
ATOM      1  C   UNL     1      -7.077  19.589  69.330  0.00  0.00    +0.033 C 
ATOM      2  C   UNL     1      -6.772  19.337  67.958  0.00  0.00    +0.127 C 
ATOM      3  C   UNL     1      -7.047  18.022  67.451  0.00  0.00    +0.028 C 
ATOM      4  C   UNL     1      -8.654  18.212  67.397  0.00  0.00    +0.005 C 
ATOM      5  C   UNL     1      -8.729  16.798  66.467  0.00  0.00    +0.033 C 
ATOM      6  C   UNL     1      -9.181  15.964  67.751  0.00  0.00    +0.164 C 
ATOM      7  C   UNL     1      -8.175  16.340  68.973  0.00  0.00    +0.182 C 
ATOM      8  O   UNL     1      -7.655  14.918  69.137  0.00  0.00    -0.220 OA
ATOM      9  F   UNL     1     -10.327  16.542  68.276  0.00  0.00    -0.237 F 
ATOM     10  C   UNL     1      -9.388  14.590  67.491  0.00  0.00    +0.046 C 
ATOM     11  C   UNL     1     -10.449  14.604  66.430  0.00  0.00    -0.039 C 
ATOM     12  C   UNL     1     -11.205  13.515  66.303  0.00  0.00    +0.029 C 
ATOM     13  C   UNL     1     -11.315  12.488  67.317  0.00  0.00    +0.173 C 
ATOM     14  C   UNL     1     -10.365  12.515  68.473  0.00  0.00    +0.070 C 
ATOM     15  O   UNL     1     -12.153  11.556  67.302  0.00  0.00    -0.291 OA
ATOM     16  C   UNL     1     -10.703  15.710  65.511  0.00  0.00    +0.022 C 
ATOM     17  C   UNL     1      -8.265  13.739  67.000  0.00  0.00    +0.007 C 
ATOM     18  C   UNL     1     -10.019  13.958  68.708  0.00  0.00    +0.014 C 
ATOM     19  C   UNL     1     -10.241  17.064  65.946  0.00  0.00    +0.007 C 
ATOM     20  C   UNL     1      -8.469  19.270  66.191  0.00  0.00    +0.003 C 
ATOM     21  C   UNL     1      -6.555  17.936  66.008  0.00  0.00    +0.003 C 
ATOM     22  C   UNL     1      -6.857  16.756  68.069  0.00  0.00    +0.038 C 
ATOM     23  C   UNL     1      -7.599  20.220  67.018  0.00  0.00    +0.030 C 
ATOM     24  O   UNL     1      -5.442  19.745  67.760  0.00  0.00    -0.226 OA
ENDROOT
TORSDOF 0
ENDMDL
