MODEL 1
REMARK VINA RESULT:      -4.5      0.000      0.000
REMARK  Name = 
REMARK  3 active torsions:
REMARK  status: ('A' for Active; 'I' for Inactive)
REMARK    1  A    between atoms: C_2  and  C_4
REMARK    2  A    between atoms: C_4  and  C_6
REMARK    3  A    between atoms: C_6  and  C_8
REMARK                            x       y       z     vdW  Elec       q    Type
REMARK                         _______ _______ _______ _____ _____    ______ ____
ROOT
ATOM      1  C   UNL     1     -11.350  14.208  64.402  0.00  0.00    +0.287 C 
ATOM      2  O   UNL     1     -12.578  14.864  63.750  0.00  0.00    -0.208 OA
ENDROOT
BRANCH   1   4
ATOM      3  O   UNL     1     -10.538  15.754  65.640  0.00  0.00    -0.243 OA
ATOM      4  C   UNL     1     -10.896  15.645  65.053  0.00  0.00    +0.397 C 
ATOM      5  O   UNL     1     -11.409  16.632  64.201  0.00  0.00    -0.243 OA
ENDBRANCH   1   4
BRANCH   1   6
ATOM      6  C   UNL     1     -12.282  13.807  65.844  0.00  0.00    +0.226 C 
ATOM      7  O   UNL     1     -13.170  12.841  65.056  0.00  0.00    -0.217 OA
BRANCH   6   8
ATOM      8  C   UNL     1     -11.231  12.580  66.236  0.00  0.00    +0.218 C 
ATOM      9  O   UNL     1     -12.008  11.809  67.115  0.00  0.00    -0.217 OA
ENDBRANCH   6   8
ENDBRANCH   1   6
TORSDOF 3
ENDMDL
MODEL 2
REMARK VINA RESULT:      -4.5      1.399      3.616
REMARK  Name = 
REMARK  3 active torsions:
REMARK  status: ('A' for Active; 'I' for Inactive)
REMARK    1  A    between atoms: C_2  and  C_4
REMARK    2  A    between atoms: C_4  and  C_6
REMARK    3  A    between atoms: C_6  and  C_8
REMARK                            x       y       z     vdW  Elec       q    Type
REMARK                         _______ _______ _______ _____ _____    ______ ____
ROOT
ATOM      1  C   UNL     1     -11.275  13.112  65.087  0.00  0.00    +0.287 C 
ATOM      2  O   UNL     1     -12.226  12.304  65.985  0.00  0.00    -0.208 OA
ENDROOT
BRANCH   1   4
ATOM      3  O   UNL     1     -12.003  12.847  63.091  0.00  0.00    -0.243 OA
ATOM      4  C   UNL     1     -12.156  12.720  63.758  0.00  0.00    +0.397 C 
ATOM      5  O   UNL     1     -13.318  12.102  64.236  0.00  0.00    -0.243 OA
ENDBRANCH   1   4
BRANCH   1   6
ATOM      6  C   UNL     1     -12.226  14.577  65.332  0.00  0.00    +0.226 C 
ATOM      7  O   UNL     1     -11.787  14.670  66.795  0.00  0.00    -0.217 OA
BRANCH   6   8
ATOM      8  C   UNL     1     -10.955  15.535  64.851  0.00  0.00    +0.218 C 
ATOM      9  O   UNL     1     -11.594  16.448  63.997  0.00  0.00    -0.217 OA
ENDBRANCH   6   8
ENDBRANCH   1   6
TORSDOF 3
ENDMDL
MODEL 3
REMARK VINA RESULT:      -4.4      6.633      7.800
REMARK  Name = 
REMARK  3 active torsions:
REMARK  status: ('A' for Active; 'I' for Inactive)
REMARK    1  A    between atoms: C_2  and  C_4
REMARK    2  A    between atoms: C_4  and  C_6
REMARK    3  A    between atoms: C_6  and  C_8
REMARK                            x       y       z     vdW  Elec       q    Type
REMARK                         _______ _______ _______ _____ _____    ______ ____
ROOT
ATOM      1  C   UNL     1     -13.416  15.341  72.533  0.00  0.00    +0.287 C 
ATOM      2  O   UNL     1     -13.931  13.912  72.773  0.00  0.00    -0.208 OA
ENDROOT
BRANCH   1   4
ATOM      3  O   UNL     1     -12.246  14.733  74.219  0.00  0.00    -0.243 OA
ATOM      4  C   UNL     1     -12.545  15.288  73.923  0.00  0.00    +0.397 C 
ATOM      5  O   UNL     1     -12.550  16.594  74.429  0.00  0.00    -0.243 OA
ENDBRANCH   1   4
BRANCH   1   6
ATOM      6  C   UNL     1     -12.045  14.732  71.606  0.00  0.00    +0.226 C 
ATOM      7  O   UNL     1     -12.939  14.418  70.404  0.00  0.00    -0.217 OA
BRANCH   6   8
ATOM      8  C   UNL     1     -11.715  16.250  71.013  0.00  0.00    +0.218 C 
ATOM      9  O   UNL     1     -12.043  16.103  69.656  0.00  0.00    -0.217 OA
ENDBRANCH   6   8
ENDBRANCH   1   6
TORSDOF 3
ENDMDL
MODEL 4
REMARK VINA RESULT:      -4.3      1.152      1.396
REMARK  Name = 
REMARK  3 active torsions:
REMARK  status: ('A' for Active; 'I' for Inactive)
REMARK    1  A    between atoms: C_2  and  C_4
REMARK    2  A    between atoms: C_4  and  C_6
REMARK    3  A    between atoms: C_6  and  C_8
REMARK                            x       y       z     vdW  Elec       q    Type
REMARK                         _______ _______ _______ _____ _____    ______ ____
ROOT
ATOM      1  C   UNL     1     -11.459  14.145  64.358  0.00  0.00    +0.287 C 
ATOM      2  O   UNL     1     -12.456  13.997  63.197  0.00  0.00    -0.208 OA
ENDROOT
BRANCH   1   4
ATOM      3  O   UNL     1     -12.081  16.158  63.974  0.00  0.00    -0.243 OA
ATOM      4  C   UNL     1     -11.594  15.781  64.299  0.00  0.00    +0.397 C 
ATOM      5  O   UNL     1     -10.499  16.283  65.013  0.00  0.00    -0.243 OA
ENDBRANCH   1   4
BRANCH   1   6
ATOM      6  C   UNL     1     -12.763  14.043  65.541  0.00  0.00    +0.226 C 
ATOM      7  O   UNL     1     -13.109  12.618  65.101  0.00  0.00    -0.217 OA
BRANCH   6   8
ATOM      8  C   UNL     1     -11.722  13.471  66.705  0.00  0.00    +0.218 C 
ATOM      9  O   UNL     1     -12.002  14.325  67.782  0.00  0.00    -0.217 OA
ENDBRANCH   6   8
ENDBRANCH   1   6
TORSDOF 3
ENDMDL
MODEL 5
REMARK VINA RESULT:      -4.3      0.831      3.498
REMARK  Name = 
REMARK  3 active torsions:
REMARK  status: ('A' for Active; 'I' for Inactive)
REMARK    1  A    between atoms: C_2  and  C_4
REMARK    2  A    between atoms: C_4  and  C_6
REMARK    3  A    between atoms: C_6  and  C_8
REMARK                            x       y       z     vdW  Elec       q    Type
REMARK                         _______ _______ _______ _____ _____    ______ ____
ROOT
ATOM      1  C   UNL     1     -12.363  13.786  65.834  0.00  0.00    +0.287 C 
ATOM      2  O   UNL     1     -13.152  12.770  64.991  0.00  0.00    -0.208 OA
ENDROOT
BRANCH   1   4
ATOM      3  O   UNL     1     -11.077  12.074  65.829  0.00  0.00    -0.243 OA
ATOM      4  C   UNL     1     -11.230  12.651  66.187  0.00  0.00    +0.397 C 
ATOM      5  O   UNL     1     -10.646  13.054  67.394  0.00  0.00    -0.243 OA
ENDBRANCH   1   4
BRANCH   1   6
ATOM      6  C   UNL     1     -11.450  14.308  64.418  0.00  0.00    +0.226 C 
ATOM      7  O   UNL     1     -12.672  15.027  63.841  0.00  0.00    -0.217 OA
BRANCH   6   8
ATOM      8  C   UNL     1     -10.955  15.693  65.193  0.00  0.00    +0.218 C 
ATOM      9  O   UNL     1     -11.280  16.680  64.250  0.00  0.00    -0.217 OA
ENDBRANCH   6   8
ENDBRANCH   1   6
TORSDOF 3
ENDMDL
MODEL 6
REMARK VINA RESULT:      -4.2      6.129      6.878
REMARK  Name = 
REMARK  3 active torsions:
REMARK  status: ('A' for Active; 'I' for Inactive)
REMARK    1  A    between atoms: C_2  and  C_4
REMARK    2  A    between atoms: C_4  and  C_6
REMARK    3  A    between atoms: C_6  and  C_8
REMARK                            x       y       z     vdW  Elec       q    Type
REMARK                         _______ _______ _______ _____ _____    ______ ____
ROOT
ATOM      1  C   UNL     1     -13.466  15.321  71.432  0.00  0.00    +0.287 C 
ATOM      2  O   UNL     1     -14.215  16.039  72.567  0.00  0.00    -0.208 OA
ENDROOT
BRANCH   1   4
ATOM      3  O   UNL     1     -11.884  16.349  72.445  0.00  0.00    -0.243 OA
ATOM      4  C   UNL     1     -12.075  16.100  71.823  0.00  0.00    +0.397 C 
ATOM      5  O   UNL     1     -11.346  16.206  70.632  0.00  0.00    -0.243 OA
ENDBRANCH   1   4
BRANCH   1   6
ATOM      6  C   UNL     1     -13.058  13.979  72.500  0.00  0.00    +0.226 C 
ATOM      7  O   UNL     1     -14.505  13.481  72.501  0.00  0.00    -0.217 OA
BRANCH   6   8
ATOM      8  C   UNL     1     -12.684  13.005  71.205  0.00  0.00    +0.218 C 
ATOM      9  O   UNL     1     -13.113  11.748  71.660  0.00  0.00    -0.217 OA
ENDBRANCH   6   8
ENDBRANCH   1   6
TORSDOF 3
ENDMDL
MODEL 7
REMARK VINA RESULT:      -4.2      1.455      2.051
REMARK  Name = 
REMARK  3 active torsions:
REMARK  status: ('A' for Active; 'I' for Inactive)
REMARK    1  A    between atoms: C_2  and  C_4
REMARK    2  A    between atoms: C_4  and  C_6
REMARK    3  A    between atoms: C_6  and  C_8
REMARK                            x       y       z     vdW  Elec       q    Type
REMARK                         _______ _______ _______ _____ _____    ______ ____
ROOT
ATOM      1  C   UNL     1     -12.310  14.552  65.253  0.00  0.00    +0.287 C 
ATOM      2  O   UNL     1     -11.920  14.602  66.739  0.00  0.00    -0.208 OA
ENDROOT
BRANCH   1   4
ATOM      3  O   UNL     1     -10.445  15.597  65.138  0.00  0.00    -0.243 OA
ATOM      4  C   UNL     1     -11.087  15.580  64.872  0.00  0.00    +0.397 C 
ATOM      5  O   UNL     1     -11.608  16.458  63.913  0.00  0.00    -0.243 OA
ENDBRANCH   1   4
BRANCH   1   6
ATOM      6  C   UNL     1     -11.268  13.155  64.987  0.00  0.00    +0.226 C 
ATOM      7  O   UNL     1     -12.238  12.234  65.733  0.00  0.00    -0.217 OA
BRANCH   6   8
ATOM      8  C   UNL     1     -12.009  12.822  63.537  0.00  0.00    +0.218 C 
ATOM      9  O   UNL     1     -11.697  11.465  63.361  0.00  0.00    -0.217 OA
ENDBRANCH   6   8
ENDBRANCH   1   6
TORSDOF 3
ENDMDL
MODEL 8
REMARK VINA RESULT:      -4.1      1.446      3.031
REMARK  Name = 
REMARK  3 active torsions:
REMARK  status: ('A' for Active; 'I' for Inactive)
REMARK    1  A    between atoms: C_2  and  C_4
REMARK    2  A    between atoms: C_4  and  C_6
REMARK    3  A    between atoms: C_6  and  C_8
REMARK                            x       y       z     vdW  Elec       q    Type
REMARK                         _______ _______ _______ _____ _____    ______ ____
ROOT
ATOM      1  C   UNL     1     -12.368  14.347  65.320  0.00  0.00    +0.287 C 
ATOM      2  O   UNL     1     -12.684  14.629  63.842  0.00  0.00    -0.208 OA
ENDROOT
BRANCH   1   4
ATOM      3  O   UNL     1     -12.298  12.214  65.500  0.00  0.00    -0.243 OA
ATOM      4  C   UNL     1     -12.448  12.728  65.055  0.00  0.00    +0.397 C 
ATOM      5  O   UNL     1     -12.848  12.577  63.721  0.00  0.00    -0.243 OA
ENDBRANCH   1   4
BRANCH   1   6
ATOM      6  C   UNL     1     -10.636  14.353  64.990  0.00  0.00    +0.226 C 
ATOM      7  O   UNL     1     -10.642  15.864  64.745  0.00  0.00    -0.217 OA
BRANCH   6   8
ATOM      8  C   UNL     1     -10.285  14.577  66.600  0.00  0.00    +0.218 C 
ATOM      9  O   UNL     1      -9.258  13.642  66.800  0.00  0.00    -0.217 OA
ENDBRANCH   6   8
ENDBRANCH   1   6
TORSDOF 3
ENDMDL
MODEL 9
REMARK VINA RESULT:      -4.1      1.297      3.787
REMARK  Name = 
REMARK  3 active torsions:
REMARK  status: ('A' for Active; 'I' for Inactive)
REMARK    1  A    between atoms: C_2  and  C_4
REMARK    2  A    between atoms: C_4  and  C_6
REMARK    3  A    between atoms: C_6  and  C_8
REMARK                            x       y       z     vdW  Elec       q    Type
REMARK                         _______ _______ _______ _____ _____    ______ ____
ROOT
ATOM      1  C   UNL     1     -10.843  13.361  64.751  0.00  0.00    +0.287 C 
ATOM      2  O   UNL     1      -9.989  12.820  65.909  0.00  0.00    -0.208 OA
ENDROOT
BRANCH   1   4
ATOM      3  O   UNL     1     -12.303  12.448  66.024  0.00  0.00    -0.243 OA
ATOM      4  C   UNL     1     -12.181  12.632  65.364  0.00  0.00    +0.397 C 
ATOM      5  O   UNL     1     -13.031  12.410  64.273  0.00  0.00    -0.243 OA
ENDBRANCH   1   4
BRANCH   1   6
ATOM      6  C   UNL     1     -11.192  14.838  65.648  0.00  0.00    +0.226 C 
ATOM      7  O   UNL     1      -9.794  15.393  65.365  0.00  0.00    -0.217 OA
BRANCH   6   8
ATOM      8  C   UNL     1     -11.800  15.574  64.286  0.00  0.00    +0.218 C 
ATOM      9  O   UNL     1     -11.237  16.856  64.380  0.00  0.00    -0.217 OA
ENDBRANCH   6   8
ENDBRANCH   1   6
TORSDOF 3
ENDMDL
