MODEL 1
REMARK VINA RESULT:      -7.0      0.000      0.000
REMARK  Name = 
REMARK  2 active torsions:
REMARK  status: ('A' for Active; 'I' for Inactive)
REMARK    1  A    between atoms: C_2  and  C_4
REMARK    2  A    between atoms: C_6  and  C_7
REMARK                            x       y       z     vdW  Elec       q    Type
REMARK                         _______ _______ _______ _____ _____    ______ ____
ROOT
ATOM      1  C   UNL     1     -11.587  14.113  66.874  0.00  0.00    +0.119 A 
ATOM      2  C   UNL     1     -11.801  12.750  66.862  0.00  0.00    +0.202 A 
ATOM      3  O   UNL     1     -12.293  12.167  65.695  0.00  0.00    -0.286 OA
ATOM      4  C   UNL     1     -11.744  12.068  68.066  0.00  0.00    +0.042 A 
ATOM      5  C   UNL     1     -11.482  12.750  69.248  0.00  0.00    +0.003 A 
ATOM      6  C   UNL     1     -11.650  14.128  69.305  0.00  0.00    +0.003 A 
ATOM      7  C   UNL     1     -11.650  14.779  68.082  0.00  0.00    +0.010 A 
ENDROOT
BRANCH   6   8
ATOM      8  C   UNL     1     -12.342  14.769  70.430  0.00  0.00    +0.028 A 
ATOM      9  C   UNL     1     -11.847  15.924  71.027  0.00  0.00    +0.142 A 
ATOM     10  F   UNL     1     -11.152  16.767  70.235  0.00  0.00    -0.204 F 
ATOM     11  C   UNL     1     -11.922  16.063  72.408  0.00  0.00    +0.059 A 
ATOM     12  C   UNL     1     -12.609  15.147  73.189  0.00  0.00    +0.142 A 
ATOM     13  F   UNL     1     -12.335  14.925  74.491  0.00  0.00    -0.204 F 
ATOM     14  C   UNL     1     -13.547  14.383  72.505  0.00  0.00    +0.030 A 
ATOM     15  C   UNL     1     -13.284  14.073  71.176  0.00  0.00    +0.005 A 
ENDBRANCH   6   8
BRANCH   1  17
ATOM     16  O   UNL     1      -9.974  15.433  65.887  0.00  0.00    -0.240 OA
ATOM     17  C   UNL     1     -11.005  14.724  65.672  0.00  0.00    +0.391 C 
ATOM     18  O   UNL     1     -11.904  15.148  64.694  0.00  0.00    -0.240 OA
ENDBRANCH   1  17
TORSDOF 2
ENDMDL
MODEL 2
REMARK VINA RESULT:      -6.9      1.868      2.337
REMARK  Name = 
REMARK  2 active torsions:
REMARK  status: ('A' for Active; 'I' for Inactive)
REMARK    1  A    between atoms: C_2  and  C_4
REMARK    2  A    between atoms: C_6  and  C_7
REMARK                            x       y       z     vdW  Elec       q    Type
REMARK                         _______ _______ _______ _____ _____    ______ ____
ROOT
ATOM      1  C   UNL     1     -11.308  15.052  66.015  0.00  0.00    +0.119 A 
ATOM      2  C   UNL     1     -11.984  13.987  65.458  0.00  0.00    +0.202 A 
ATOM      3  O   UNL     1     -12.669  14.189  64.261  0.00  0.00    -0.286 OA
ATOM      4  C   UNL     1     -12.147  12.843  66.222  0.00  0.00    +0.042 A 
ATOM      5  C   UNL     1     -11.643  12.785  67.516  0.00  0.00    +0.003 A 
ATOM      6  C   UNL     1     -11.320  13.958  68.186  0.00  0.00    +0.003 A 
ATOM      7  C   UNL     1     -11.114  15.067  67.382  0.00  0.00    +0.010 A 
ENDROOT
BRANCH   6   8
ATOM      8  C   UNL     1     -11.725  14.180  69.580  0.00  0.00    +0.028 A 
ATOM      9  C   UNL     1     -12.086  13.125  70.411  0.00  0.00    +0.142 A 
ATOM     10  F   UNL     1     -11.491  11.936  70.177  0.00  0.00    -0.204 F 
ATOM     11  C   UNL     1     -13.148  13.284  71.293  0.00  0.00    +0.059 A 
ATOM     12  C   UNL     1     -13.761  14.515  71.468  0.00  0.00    +0.142 A 
ATOM     13  F   UNL     1     -15.036  14.658  71.888  0.00  0.00    -0.204 F 
ATOM     14  C   UNL     1     -12.999  15.608  71.078  0.00  0.00    +0.030 A 
ATOM     15  C   UNL     1     -12.121  15.438  70.015  0.00  0.00    +0.005 A 
ENDBRANCH   6   8
BRANCH   1  17
ATOM     16  O   UNL     1      -9.454  16.346  65.559  0.00  0.00    -0.240 OA
ATOM     17  C   UNL     1     -10.570  15.943  65.109  0.00  0.00    +0.391 C 
ATOM     18  O   UNL     1     -11.335  16.830  64.353  0.00  0.00    -0.240 OA
ENDBRANCH   1  17
TORSDOF 2
ENDMDL
MODEL 3
REMARK VINA RESULT:      -6.7      1.941      2.579
REMARK  Name = 
REMARK  2 active torsions:
REMARK  status: ('A' for Active; 'I' for Inactive)
REMARK    1  A    between atoms: C_2  and  C_4
REMARK    2  A    between atoms: C_6  and  C_7
REMARK                            x       y       z     vdW  Elec       q    Type
REMARK                         _______ _______ _______ _____ _____    ______ ____
ROOT
ATOM      1  C   UNL     1     -11.560  13.454  66.125  0.00  0.00    +0.119 A 
ATOM      2  C   UNL     1     -10.235  13.085  66.032  0.00  0.00    +0.202 A 
ATOM      3  O   UNL     1      -9.895  12.045  65.169  0.00  0.00    -0.286 OA
ATOM      4  C   UNL     1      -9.346  13.598  66.963  0.00  0.00    +0.042 A 
ATOM      5  C   UNL     1      -9.791  14.456  67.962  0.00  0.00    +0.003 A 
ATOM      6  C   UNL     1     -11.144  14.510  68.275  0.00  0.00    +0.003 A 
ATOM      7  C   UNL     1     -12.002  14.036  67.297  0.00  0.00    +0.010 A 
ENDROOT
BRANCH   6   8
ATOM      8  C   UNL     1     -11.608  14.497  69.668  0.00  0.00    +0.028 A 
ATOM      9  C   UNL     1     -12.011  13.320  70.290  0.00  0.00    +0.142 A 
ATOM     10  F   UNL     1     -11.414  12.180  69.882  0.00  0.00    -0.204 F 
ATOM     11  C   UNL     1     -13.110  13.341  71.141  0.00  0.00    +0.059 A 
ATOM     12  C   UNL     1     -13.722  14.532  71.499  0.00  0.00    +0.142 A 
ATOM     13  F   UNL     1     -15.013  14.618  71.884  0.00  0.00    -0.204 F 
ATOM     14  C   UNL     1     -12.937  15.665  71.334  0.00  0.00    +0.030 A 
ATOM     15  C   UNL     1     -12.015  15.667  70.294  0.00  0.00    +0.005 A 
ENDBRANCH   6   8
BRANCH   1  17
ATOM     16  O   UNL     1     -12.702  14.661  64.525  0.00  0.00    -0.240 OA
ATOM     17  C   UNL     1     -12.347  13.497  64.884  0.00  0.00    +0.391 C 
ATOM     18  O   UNL     1     -13.236  12.443  64.677  0.00  0.00    -0.240 OA
ENDBRANCH   1  17
TORSDOF 2
ENDMDL
MODEL 4
REMARK VINA RESULT:      -6.5      4.506      5.756
REMARK  Name = 
REMARK  2 active torsions:
REMARK  status: ('A' for Active; 'I' for Inactive)
REMARK    1  A    between atoms: C_2  and  C_4
REMARK    2  A    between atoms: C_6  and  C_7
REMARK                            x       y       z     vdW  Elec       q    Type
REMARK                         _______ _______ _______ _____ _____    ______ ____
ROOT
ATOM      1  C   UNL     1     -12.959   9.029  71.894  0.00  0.00    +0.119 A 
ATOM      2  C   UNL     1     -11.607   8.765  71.823  0.00  0.00    +0.202 A 
ATOM      3  O   UNL     1     -11.073   7.800  72.675  0.00  0.00    -0.286 OA
ATOM      4  C   UNL     1     -10.811   9.625  71.085  0.00  0.00    +0.042 A 
ATOM      5  C   UNL     1     -11.370  10.724  70.443  0.00  0.00    +0.003 A 
ATOM      6  C   UNL     1     -12.622  11.187  70.828  0.00  0.00    +0.003 A 
ATOM      7  C   UNL     1     -13.407  10.279  71.518  0.00  0.00    +0.010 A 
ENDROOT
BRANCH   6   8
ATOM      8  C   UNL     1     -12.880  12.619  71.030  0.00  0.00    +0.028 A 
ATOM      9  C   UNL     1     -12.169  13.592  70.335  0.00  0.00    +0.142 A 
ATOM     10  F   UNL     1     -11.739  13.263  69.098  0.00  0.00    -0.204 F 
ATOM     11  C   UNL     1     -11.781  14.753  70.992  0.00  0.00    +0.059 A 
ATOM     12  C   UNL     1     -12.210  15.029  72.281  0.00  0.00    +0.142 A 
ATOM     13  F   UNL     1     -11.532  15.822  73.137  0.00  0.00    -0.204 F 
ATOM     14  C   UNL     1     -13.350  14.343  72.677  0.00  0.00    +0.030 A 
ATOM     15  C   UNL     1     -13.551  13.069  72.159  0.00  0.00    +0.005 A 
ENDBRANCH   6   8
BRANCH   1  17
ATOM     16  O   UNL     1     -13.706   6.953  71.221  0.00  0.00    -0.240 OA
ATOM     17  C   UNL     1     -13.870   7.888  72.064  0.00  0.00    +0.391 C 
ATOM     18  O   UNL     1     -15.169   8.187  72.472  0.00  0.00    -0.240 OA
ENDBRANCH   1  17
TORSDOF 2
ENDMDL
MODEL 5
REMARK VINA RESULT:      -6.4      1.505      1.915
REMARK  Name = 
REMARK  2 active torsions:
REMARK  status: ('A' for Active; 'I' for Inactive)
REMARK    1  A    between atoms: C_2  and  C_4
REMARK    2  A    between atoms: C_6  and  C_7
REMARK                            x       y       z     vdW  Elec       q    Type
REMARK                         _______ _______ _______ _____ _____    ______ ____
ROOT
ATOM      1  C   UNL     1     -11.545  12.486  66.222  0.00  0.00    +0.119 A 
ATOM      2  C   UNL     1     -10.531  11.648  66.637  0.00  0.00    +0.202 A 
ATOM      3  O   UNL     1     -10.497  10.348  66.134  0.00  0.00    -0.286 OA
ATOM      4  C   UNL     1      -9.741  12.053  67.700  0.00  0.00    +0.042 A 
ATOM      5  C   UNL     1      -9.977  13.271  68.327  0.00  0.00    +0.003 A 
ATOM      6  C   UNL     1     -11.201  13.908  68.163  0.00  0.00    +0.003 A 
ATOM      7  C   UNL     1     -11.937  13.510  67.059  0.00  0.00    +0.010 A 
ENDROOT
BRANCH   6   8
ATOM      8  C   UNL     1     -11.923  14.483  69.305  0.00  0.00    +0.028 A 
ATOM      9  C   UNL     1     -11.732  15.804  69.697  0.00  0.00    +0.142 A 
ATOM     10  F   UNL     1     -11.414  16.686  68.726  0.00  0.00    -0.204 F 
ATOM     11  C   UNL     1     -11.690  16.115  71.051  0.00  0.00    +0.059 A 
ATOM     12  C   UNL     1     -11.981  15.164  72.018  0.00  0.00    +0.142 A 
ATOM     13  F   UNL     1     -11.509  15.220  73.281  0.00  0.00    -0.204 F 
ATOM     14  C   UNL     1     -12.717  14.077  71.566  0.00  0.00    +0.030 A 
ATOM     15  C   UNL     1     -12.524  13.666  70.253  0.00  0.00    +0.005 A 
ENDBRANCH   6   8
BRANCH   1  17
ATOM     16  O   UNL     1     -11.190  13.118  64.032  0.00  0.00    -0.240 OA
ATOM     17  C   UNL     1     -11.933  12.438  64.805  0.00  0.00    +0.391 C 
ATOM     18  O   UNL     1     -13.301  12.399  64.538  0.00  0.00    -0.240 OA
ENDBRANCH   1  17
TORSDOF 2
ENDMDL
MODEL 6
REMARK VINA RESULT:      -6.4      3.890      5.110
REMARK  Name = 
REMARK  2 active torsions:
REMARK  status: ('A' for Active; 'I' for Inactive)
REMARK    1  A    between atoms: C_2  and  C_4
REMARK    2  A    between atoms: C_6  and  C_7
REMARK                            x       y       z     vdW  Elec       q    Type
REMARK                         _______ _______ _______ _____ _____    ______ ____
ROOT
ATOM      1  C   UNL     1     -11.094  13.635  65.344  0.00  0.00    +0.119 A 
ATOM      2  C   UNL     1     -10.862  12.704  66.335  0.00  0.00    +0.202 A 
ATOM      3  O   UNL     1     -11.835  11.736  66.577  0.00  0.00    -0.286 OA
ATOM      4  C   UNL     1      -9.795  12.915  67.192  0.00  0.00    +0.042 A 
ATOM      5  C   UNL     1      -8.990  14.040  67.051  0.00  0.00    +0.003 A 
ATOM      6  C   UNL     1      -9.450  15.132  66.325  0.00  0.00    +0.003 A 
ATOM      7  C   UNL     1     -10.483  14.868  65.441  0.00  0.00    +0.010 A 
ENDROOT
BRANCH   6   8
ATOM      8  C   UNL     1      -9.305  16.502  66.831  0.00  0.00    +0.028 A 
ATOM      9  C   UNL     1     -10.328  17.132  67.533  0.00  0.00    +0.142 A 
ATOM     10  F   UNL     1     -11.138  16.341  68.267  0.00  0.00    -0.204 F 
ATOM     11  C   UNL     1     -10.581  18.480  67.305  0.00  0.00    +0.059 A 
ATOM     12  C   UNL     1      -9.747  19.246  66.506  0.00  0.00    +0.142 A 
ATOM     13  F   UNL     1     -10.153  20.356  65.856  0.00  0.00    -0.204 F 
ATOM     14  C   UNL     1      -8.469  18.730  66.333  0.00  0.00    +0.030 A 
ATOM     15  C   UNL     1      -8.325  17.347  66.328  0.00  0.00    +0.005 A 
ENDBRANCH   6   8
BRANCH   1  17
ATOM     16  O   UNL     1     -10.964  12.449  63.370  0.00  0.00    -0.240 OA
ATOM     17  C   UNL     1     -11.718  13.165  64.098  0.00  0.00    +0.391 C 
ATOM     18  O   UNL     1     -12.594  14.050  63.471  0.00  0.00    -0.240 OA
ENDBRANCH   1  17
TORSDOF 2
ENDMDL
MODEL 7
REMARK VINA RESULT:      -6.3      2.884      3.657
REMARK  Name = 
REMARK  2 active torsions:
REMARK  status: ('A' for Active; 'I' for Inactive)
REMARK    1  A    between atoms: C_2  and  C_4
REMARK    2  A    between atoms: C_6  and  C_7
REMARK                            x       y       z     vdW  Elec       q    Type
REMARK                         _______ _______ _______ _____ _____    ______ ____
ROOT
ATOM      1  C   UNL     1     -11.134  14.733  65.608  0.00  0.00    +0.119 A 
ATOM      2  C   UNL     1     -12.043  14.023  64.851  0.00  0.00    +0.202 A 
ATOM      3  O   UNL     1     -12.918  14.732  64.029  0.00  0.00    -0.286 OA
ATOM      4  C   UNL     1     -12.202  12.673  65.115  0.00  0.00    +0.042 A 
ATOM      5  C   UNL     1     -11.464  12.062  66.123  0.00  0.00    +0.003 A 
ATOM      6  C   UNL     1     -10.860  12.837  67.105  0.00  0.00    +0.003 A 
ATOM      7  C   UNL     1     -10.672  14.170  66.781  0.00  0.00    +0.010 A 
ENDROOT
BRANCH   6   8
ATOM      8  C   UNL     1     -10.948  12.476  68.526  0.00  0.00    +0.028 A 
ATOM      9  C   UNL     1     -10.542  11.227  68.986  0.00  0.00    +0.142 A 
ATOM     10  F   UNL     1      -9.540  10.626  68.310  0.00  0.00    -0.204 F 
ATOM     11  C   UNL     1     -11.286  10.589  69.971  0.00  0.00    +0.059 A 
ATOM     12  C   UNL     1     -12.337  11.229  70.609  0.00  0.00    +0.142 A 
ATOM     13  F   UNL     1     -13.372  10.574  71.177  0.00  0.00    -0.204 F 
ATOM     14  C   UNL     1     -12.309  12.615  70.534  0.00  0.00    +0.030 A 
ATOM     15  C   UNL     1     -11.762  13.191  69.394  0.00  0.00    +0.005 A 
ENDBRANCH   6   8
BRANCH   1  17
ATOM     16  O   UNL     1      -9.464  16.324  65.610  0.00  0.00    -0.240 OA
ATOM     17  C   UNL     1     -10.478  15.890  64.982  0.00  0.00    +0.391 C 
ATOM     18  O   UNL     1     -11.316  16.815  64.361  0.00  0.00    -0.240 OA
ENDBRANCH   1  17
TORSDOF 2
ENDMDL
MODEL 8
REMARK VINA RESULT:      -6.3      2.545      3.569
REMARK  Name = 
REMARK  2 active torsions:
REMARK  status: ('A' for Active; 'I' for Inactive)
REMARK    1  A    between atoms: C_2  and  C_4
REMARK    2  A    between atoms: C_6  and  C_7
REMARK                            x       y       z     vdW  Elec       q    Type
REMARK                         _______ _______ _______ _____ _____    ______ ____
ROOT
ATOM      1  C   UNL     1     -11.668  13.869  66.058  0.00  0.00    +0.119 A 
ATOM      2  C   UNL     1     -10.803  14.939  66.157  0.00  0.00    +0.202 A 
ATOM      3  O   UNL     1      -9.940  15.195  65.093  0.00  0.00    -0.286 OA
ATOM      4  C   UNL     1     -10.668  15.558  67.388  0.00  0.00    +0.042 A 
ATOM      5  C   UNL     1     -11.385  15.101  68.488  0.00  0.00    +0.003 A 
ATOM      6  C   UNL     1     -11.935  13.825  68.474  0.00  0.00    +0.003 A 
ATOM      7  C   UNL     1     -12.102  13.263  67.220  0.00  0.00    +0.010 A 
ENDROOT
BRANCH   6   8
ATOM      8  C   UNL     1     -11.807  12.924  69.625  0.00  0.00    +0.028 A 
ATOM      9  C   UNL     1     -11.220  11.668  69.506  0.00  0.00    +0.142 A 
ATOM     10  F   UNL     1     -10.253  11.536  68.574  0.00  0.00    -0.204 F 
ATOM     11  C   UNL     1     -11.765  10.592  70.196  0.00  0.00    +0.059 A 
ATOM     12  C   UNL     1     -12.790  10.768  71.113  0.00  0.00    +0.142 A 
ATOM     13  F   UNL     1     -13.672   9.799  71.437  0.00  0.00    -0.204 F 
ATOM     14  C   UNL     1     -12.915  12.059  71.608  0.00  0.00    +0.030 A 
ATOM     15  C   UNL     1     -12.577  13.111  70.766  0.00  0.00    +0.005 A 
ENDBRANCH   6   8
BRANCH   1  17
ATOM     16  O   UNL     1     -12.694  14.686  64.161  0.00  0.00    -0.240 OA
ATOM     17  C   UNL     1     -12.317  13.633  64.761  0.00  0.00    +0.391 C 
ATOM     18  O   UNL     1     -13.121  12.498  64.667  0.00  0.00    -0.240 OA
ENDBRANCH   1  17
TORSDOF 2
ENDMDL
MODEL 9
REMARK VINA RESULT:      -6.3      1.772      2.916
REMARK  Name = 
REMARK  2 active torsions:
REMARK  status: ('A' for Active; 'I' for Inactive)
REMARK    1  A    between atoms: C_2  and  C_4
REMARK    2  A    between atoms: C_6  and  C_7
REMARK                            x       y       z     vdW  Elec       q    Type
REMARK                         _______ _______ _______ _____ _____    ______ ____
ROOT
ATOM      1  C   UNL     1     -10.904  12.511  68.814  0.00  0.00    +0.119 A 
ATOM      2  C   UNL     1     -10.163  13.256  67.921  0.00  0.00    +0.202 A 
ATOM      3  O   UNL     1      -8.902  12.789  67.552  0.00  0.00    -0.286 OA
ATOM      4  C   UNL     1     -10.598  14.536  67.618  0.00  0.00    +0.042 A 
ATOM      5  C   UNL     1     -11.749  15.045  68.208  0.00  0.00    +0.003 A 
ATOM      6  C   UNL     1     -12.254  14.457  69.361  0.00  0.00    +0.003 A 
ATOM      7  C   UNL     1     -11.835  13.159  69.600  0.00  0.00    +0.010 A 
ENDROOT
BRANCH   6   8
ATOM      8  C   UNL     1     -12.687  15.267  70.506  0.00  0.00    +0.028 A 
ATOM      9  C   UNL     1     -11.814  16.134  71.157  0.00  0.00    +0.142 A 
ATOM     10  F   UNL     1     -10.838  16.689  70.408  0.00  0.00    -0.204 F 
ATOM     11  C   UNL     1     -11.865  16.240  72.542  0.00  0.00    +0.059 A 
ATOM     12  C   UNL     1     -12.861  15.615  73.277  0.00  0.00    +0.142 A 
ATOM     13  F   UNL     1     -12.718  15.260  74.571  0.00  0.00    -0.204 F 
ATOM     14  C   UNL     1     -13.997  15.278  72.553  0.00  0.00    +0.030 A 
ATOM     15  C   UNL     1     -13.836  14.942  71.215  0.00  0.00    +0.005 A 
ENDBRANCH   6   8
BRANCH   1  17
ATOM     16  O   UNL     1     -11.752  10.593  67.853  0.00  0.00    -0.240 OA
ATOM     17  C   UNL     1     -10.887  11.049  68.662  0.00  0.00    +0.391 C 
ATOM     18  O   UNL     1     -10.604  10.310  69.810  0.00  0.00    -0.240 OA
ENDBRANCH   1  17
TORSDOF 2
ENDMDL
