MODEL 1
REMARK VINA RESULT:      -7.6      0.000      0.000
REMARK  Name = 
REMARK  4 active torsions:
REMARK  status: ('A' for Active; 'I' for Inactive)
REMARK    1  A    between atoms: N_4  and  C_5
REMARK    2  A    between atoms: C_5  and  C_6
REMARK    3  A    between atoms: N_8  and  C_9
REMARK    4  A    between atoms: C_12  and  N_13
REMARK                            x       y       z     vdW  Elec       q    Type
REMARK                         _______ _______ _______ _____ _____    ______ ____
ROOT
ATOM      1  C   UNL     1     -11.272  13.865  67.469  0.00  0.00    +0.059 A 
ATOM      2  C   UNL     1     -11.602  15.084  68.050  0.00  0.00    +0.046 A 
ATOM      3  C   UNL     1     -11.780  15.204  69.421  0.00  0.00    +0.155 A 
ATOM      4  F   UNL     1     -11.832  16.412  70.038  0.00  0.00    -0.203 F 
ATOM      5  C   UNL     1     -12.265  14.085  70.085  0.00  0.00    +0.076 A 
ATOM      6  C   UNL     1     -11.870  12.861  69.567  0.00  0.00    +0.018 A 
ATOM      7  C   UNL     1     -11.193  12.805  68.365  0.00  0.00    +0.016 A 
ENDROOT
BRANCH   1  12
ATOM      8  C   UNL     1     -11.044  11.825  64.751  0.00  0.00    +0.212 C 
ATOM      9  O   UNL     1     -12.204  12.705  64.176  0.00  0.00    -0.434 OA
ATOM     10  C   UNL     1     -12.441  13.570  65.239  0.00  0.00    +0.409 C 
ATOM     11  O   UNL     1     -13.592  14.031  65.507  0.00  0.00    -0.226 OA
ATOM     12  N   UNL     1     -11.269  13.671  66.056  0.00  0.00    -0.221 N 
ATOM     13  C   UNL     1     -10.187  13.194  65.198  0.00  0.00    +0.147 C 
BRANCH   8  14
ATOM     14  C   UNL     1     -10.283  11.784  63.257  0.00  0.00    +0.160 C 
BRANCH  14  17
ATOM     15  C   UNL     1      -9.102   8.712  61.467  0.00  0.00    +0.096 C 
ATOM     16  C   UNL     1      -8.963   9.965  62.106  0.00  0.00    +0.242 C 
ATOM     17  N   UNL     1      -9.787  10.422  63.182  0.00  0.00    -0.201 NA
ATOM     18  O   UNL     1      -8.213  10.825  61.567  0.00  0.00    -0.273 OA
ENDBRANCH  14  17
ENDBRANCH   8  14
ENDBRANCH   1  12
BRANCH   5  19
ATOM     19  N   UNL     1     -12.472  14.088  71.504  0.00  0.00    -0.301 N 
ATOM     20  C   UNL     1     -13.850  13.823  71.914  0.00  0.00    +0.123 C 
ATOM     21  C   UNL     1     -14.559  15.148  71.910  0.00  0.00    +0.164 C 
ATOM     22  O   UNL     1     -14.029  16.074  72.777  0.00  0.00    -0.350 OA
ATOM     23  C   UNL     1     -12.757  15.819  73.219  0.00  0.00    +0.164 C 
ATOM     24  C   UNL     1     -11.840  15.204  72.205  0.00  0.00    +0.123 C 
ENDBRANCH   5  19
TORSDOF 4
ENDMDL
MODEL 2
REMARK VINA RESULT:      -7.3      4.954      8.263
REMARK  Name = 
REMARK  4 active torsions:
REMARK  status: ('A' for Active; 'I' for Inactive)
REMARK    1  A    between atoms: N_4  and  C_5
REMARK    2  A    between atoms: C_5  and  C_6
REMARK    3  A    between atoms: N_8  and  C_9
REMARK    4  A    between atoms: C_12  and  N_13
REMARK                            x       y       z     vdW  Elec       q    Type
REMARK                         _______ _______ _______ _____ _____    ______ ____
ROOT
ATOM      1  C   UNL     1      -9.809  16.663  67.535  0.00  0.00    +0.059 A 
ATOM      2  C   UNL     1     -10.820  16.001  68.220  0.00  0.00    +0.046 A 
ATOM      3  C   UNL     1     -11.415  14.859  67.701  0.00  0.00    +0.155 A 
ATOM      4  F   UNL     1     -12.198  14.047  68.455  0.00  0.00    -0.203 F 
ATOM      5  C   UNL     1     -11.485  14.771  66.317  0.00  0.00    +0.076 A 
ATOM      6  C   UNL     1     -10.435  15.352  65.623  0.00  0.00    +0.018 A 
ATOM      7  C   UNL     1      -9.501  16.115  66.295  0.00  0.00    +0.016 A 
ENDROOT
BRANCH   1  12
ATOM      8  C   UNL     1      -7.689  19.300  67.140  0.00  0.00    +0.212 C 
ATOM      9  O   UNL     1      -8.940  20.171  67.499  0.00  0.00    -0.434 OA
ATOM     10  C   UNL     1      -9.921  19.194  67.634  0.00  0.00    +0.409 C 
ATOM     11  O   UNL     1     -11.137  19.394  67.333  0.00  0.00    -0.226 OA
ATOM     12  N   UNL     1      -9.315  17.935  67.950  0.00  0.00    -0.221 N 
ATOM     13  C   UNL     1      -7.985  18.287  68.441  0.00  0.00    +0.147 C 
BRANCH   8  14
ATOM     14  C   UNL     1      -6.695  20.277  68.072  0.00  0.00    +0.160 C 
BRANCH  14  17
ATOM     15  C   UNL     1      -5.234  19.044  71.295  0.00  0.00    +0.096 C 
ATOM     16  C   UNL     1      -5.844  19.983  70.432  0.00  0.00    +0.242 C 
ATOM     17  N   UNL     1      -6.750  19.646  69.378  0.00  0.00    -0.201 NA
ATOM     18  O   UNL     1      -5.408  21.168  70.442  0.00  0.00    -0.273 OA
ENDBRANCH  14  17
ENDBRANCH   8  14
ENDBRANCH   1  12
BRANCH   5  19
ATOM     19  N   UNL     1     -12.063  13.629  65.668  0.00  0.00    -0.301 N 
ATOM     20  C   UNL     1     -11.514  12.346  66.103  0.00  0.00    +0.123 C 
ATOM     21  C   UNL     1     -10.302  12.089  65.253  0.00  0.00    +0.164 C 
ATOM     22  O   UNL     1     -10.565  12.004  63.906  0.00  0.00    -0.350 OA
ATOM     23  C   UNL     1     -11.764  12.525  63.498  0.00  0.00    +0.164 C 
ATOM     24  C   UNL     1     -12.201  13.764  64.219  0.00  0.00    +0.123 C 
ENDBRANCH   5  19
TORSDOF 4
ENDMDL
MODEL 3
REMARK VINA RESULT:      -7.2      4.807      5.891
REMARK  Name = 
REMARK  4 active torsions:
REMARK  status: ('A' for Active; 'I' for Inactive)
REMARK    1  A    between atoms: N_4  and  C_5
REMARK    2  A    between atoms: C_5  and  C_6
REMARK    3  A    between atoms: N_8  and  C_9
REMARK    4  A    between atoms: C_12  and  N_13
REMARK                            x       y       z     vdW  Elec       q    Type
REMARK                         _______ _______ _______ _____ _____    ______ ____
ROOT
ATOM      1  C   UNL     1      -9.413  16.714  66.120  0.00  0.00    +0.059 A 
ATOM      2  C   UNL     1     -10.046  17.722  66.838  0.00  0.00    +0.046 A 
ATOM      3  C   UNL     1      -9.318  18.673  67.540  0.00  0.00    +0.155 A 
ATOM      4  F   UNL     1      -9.887  19.809  68.016  0.00  0.00    -0.203 F 
ATOM      5  C   UNL     1      -8.094  18.264  68.053  0.00  0.00    +0.076 A 
ATOM      6  C   UNL     1      -7.411  17.322  67.299  0.00  0.00    +0.018 A 
ATOM      7  C   UNL     1      -8.026  16.724  66.217  0.00  0.00    +0.016 A 
ENDROOT
BRANCH   1  12
ATOM      8  C   UNL     1     -11.769  14.265  66.346  0.00  0.00    +0.212 C 
ATOM      9  O   UNL     1     -12.133  14.683  64.882  0.00  0.00    -0.434 OA
ATOM     10  C   UNL     1     -11.259  15.745  64.678  0.00  0.00    +0.409 C 
ATOM     11  O   UNL     1     -11.547  16.744  63.951  0.00  0.00    -0.226 OA
ATOM     12  N   UNL     1     -10.129  15.621  65.550  0.00  0.00    -0.221 N 
ATOM     13  C   UNL     1     -10.140  14.218  65.958  0.00  0.00    +0.147 C 
BRANCH   8  14
ATOM     14  C   UNL     1     -11.950  12.642  65.967  0.00  0.00    +0.160 C 
BRANCH  14  17
ATOM     15  C   UNL     1     -10.025  10.654  63.440  0.00  0.00    +0.096 C 
ATOM     16  C   UNL     1     -10.966  11.612  63.881  0.00  0.00    +0.242 C 
ATOM     17  N   UNL     1     -10.834  12.390  65.074  0.00  0.00    -0.201 NA
ATOM     18  O   UNL     1     -12.093  11.641  63.314  0.00  0.00    -0.273 OA
ENDBRANCH  14  17
ENDBRANCH   8  14
ENDBRANCH   1  12
BRANCH   5  19
ATOM     19  N   UNL     1      -7.248  19.166  68.781  0.00  0.00    -0.301 N 
ATOM     20  C   UNL     1      -6.843  20.352  68.030  0.00  0.00    +0.123 C 
ATOM     21  C   UNL     1      -5.607  19.972  67.264  0.00  0.00    +0.164 C 
ATOM     22  O   UNL     1      -4.550  19.588  68.054  0.00  0.00    -0.350 OA
ATOM     23  C   UNL     1      -4.861  19.242  69.342  0.00  0.00    +0.164 C 
ATOM     24  C   UNL     1      -6.162  18.516  69.513  0.00  0.00    +0.123 C 
ENDBRANCH   5  19
TORSDOF 4
ENDMDL
MODEL 4
REMARK VINA RESULT:      -7.1      5.057      6.443
REMARK  Name = 
REMARK  4 active torsions:
REMARK  status: ('A' for Active; 'I' for Inactive)
REMARK    1  A    between atoms: N_4  and  C_5
REMARK    2  A    between atoms: C_5  and  C_6
REMARK    3  A    between atoms: N_8  and  C_9
REMARK    4  A    between atoms: C_12  and  N_13
REMARK                            x       y       z     vdW  Elec       q    Type
REMARK                         _______ _______ _______ _____ _____    ______ ____
ROOT
ATOM      1  C   UNL     1      -9.935  17.182  67.571  0.00  0.00    +0.059 A 
ATOM      2  C   UNL     1     -10.327  18.515  67.560  0.00  0.00    +0.046 A 
ATOM      3  C   UNL     1      -9.405  19.539  67.729  0.00  0.00    +0.155 A 
ATOM      4  F   UNL     1      -9.706  20.833  67.454  0.00  0.00    -0.203 F 
ATOM      5  C   UNL     1      -8.302  19.256  68.523  0.00  0.00    +0.076 A 
ATOM      6  C   UNL     1      -7.846  17.947  68.475  0.00  0.00    +0.018 A 
ATOM      7  C   UNL     1      -8.581  16.983  67.813  0.00  0.00    +0.016 A 
ENDROOT
BRANCH   1  12
ATOM      8  C   UNL     1     -10.653  13.857  67.756  0.00  0.00    +0.212 C 
ATOM      9  O   UNL     1     -11.827  14.312  68.686  0.00  0.00    -0.434 OA
ATOM     10  C   UNL     1     -11.612  15.685  68.744  0.00  0.00    +0.409 C 
ATOM     11  O   UNL     1     -11.881  16.381  69.769  0.00  0.00    -0.226 OA
ATOM     12  N   UNL     1     -10.878  16.112  67.590  0.00  0.00    -0.221 N 
ATOM     13  C   UNL     1     -11.055  15.028  66.627  0.00  0.00    +0.147 C 
BRANCH   8  14
ATOM     14  C   UNL     1     -11.637  12.729  67.001  0.00  0.00    +0.160 C 
BRANCH  14  17
ATOM     15  C   UNL     1     -11.614  11.652  63.412  0.00  0.00    +0.096 C 
ATOM     16  C   UNL     1     -12.047  12.400  64.530  0.00  0.00    +0.242 C 
ATOM     17  N   UNL     1     -11.205  12.796  65.616  0.00  0.00    -0.201 NA
ATOM     18  O   UNL     1     -13.290  12.550  64.698  0.00  0.00    -0.273 OA
ENDBRANCH  14  17
ENDBRANCH   8  14
ENDBRANCH   1  12
BRANCH   5  19
ATOM     19  N   UNL     1      -7.275  20.231  68.754  0.00  0.00    -0.301 N 
ATOM     20  C   UNL     1      -6.681  20.781  67.538  0.00  0.00    +0.123 C 
ATOM     21  C   UNL     1      -5.567  19.851  67.147  0.00  0.00    +0.164 C 
ATOM     22  O   UNL     1      -4.573  19.733  68.090  0.00  0.00    -0.350 OA
ATOM     23  C   UNL     1      -4.898  20.147  69.355  0.00  0.00    +0.164 C 
ATOM     24  C   UNL     1      -6.305  19.854  69.782  0.00  0.00    +0.123 C 
ENDBRANCH   5  19
TORSDOF 4
ENDMDL
MODEL 5
REMARK VINA RESULT:      -7.1      5.108      6.606
REMARK  Name = 
REMARK  4 active torsions:
REMARK  status: ('A' for Active; 'I' for Inactive)
REMARK    1  A    between atoms: N_4  and  C_5
REMARK    2  A    between atoms: C_5  and  C_6
REMARK    3  A    between atoms: N_8  and  C_9
REMARK    4  A    between atoms: C_12  and  N_13
REMARK                            x       y       z     vdW  Elec       q    Type
REMARK                         _______ _______ _______ _____ _____    ______ ____
ROOT
ATOM      1  C   UNL     1      -9.367  16.885  66.041  0.00  0.00    +0.059 A 
ATOM      2  C   UNL     1     -10.060  17.995  66.507  0.00  0.00    +0.046 A 
ATOM      3  C   UNL     1      -9.396  19.070  67.083  0.00  0.00    +0.155 A 
ATOM      4  F   UNL     1     -10.005  20.264  67.294  0.00  0.00    -0.203 F 
ATOM      5  C   UNL     1      -8.220  18.781  67.763  0.00  0.00    +0.076 A 
ATOM      6  C   UNL     1      -7.474  17.729  67.253  0.00  0.00    +0.018 A 
ATOM      7  C   UNL     1      -7.994  16.935  66.251  0.00  0.00    +0.016 A 
ENDROOT
BRANCH   1  12
ATOM      8  C   UNL     1     -11.572  14.352  66.615  0.00  0.00    +0.212 C 
ATOM      9  O   UNL     1     -11.991  14.576  65.123  0.00  0.00    -0.434 OA
ATOM     10  C   UNL     1     -11.184  15.653  64.773  0.00  0.00    +0.409 C 
ATOM     11  O   UNL     1     -11.546  16.542  63.944  0.00  0.00    -0.226 OA
ATOM     12  N   UNL     1     -10.031  15.694  65.622  0.00  0.00    -0.221 N 
ATOM     13  C   UNL     1      -9.951  14.350  66.189  0.00  0.00    +0.147 C 
BRANCH   8  14
ATOM     14  C   UNL     1     -11.666  12.688  66.431  0.00  0.00    +0.160 C 
BRANCH  14  17
ATOM     15  C   UNL     1     -11.468  10.368  69.368  0.00  0.00    +0.096 C 
ATOM     16  C   UNL     1     -11.104  11.483  68.580  0.00  0.00    +0.242 C 
ATOM     17  N   UNL     1     -12.011  12.232  67.766  0.00  0.00    -0.201 NA
ATOM     18  O   UNL     1      -9.875  11.711  68.406  0.00  0.00    -0.273 OA
ENDBRANCH  14  17
ENDBRANCH   8  14
ENDBRANCH   1  12
BRANCH   5  19
ATOM     19  N   UNL     1      -7.440  19.813  68.383  0.00  0.00    -0.301 N 
ATOM     20  C   UNL     1      -6.937  20.827  67.458  0.00  0.00    +0.123 C 
ATOM     21  C   UNL     1      -5.633  20.305  66.921  0.00  0.00    +0.164 C 
ATOM     22  O   UNL     1      -4.673  20.091  67.881  0.00  0.00    -0.350 OA
ATOM     23  C   UNL     1      -5.126  20.010  69.171  0.00  0.00    +0.164 C 
ATOM     24  C   UNL     1      -6.450  19.328  69.342  0.00  0.00    +0.123 C 
ENDBRANCH   5  19
TORSDOF 4
ENDMDL
MODEL 6
REMARK VINA RESULT:      -7.0      3.896      6.090
REMARK  Name = 
REMARK  4 active torsions:
REMARK  status: ('A' for Active; 'I' for Inactive)
REMARK    1  A    between atoms: N_4  and  C_5
REMARK    2  A    between atoms: C_5  and  C_6
REMARK    3  A    between atoms: N_8  and  C_9
REMARK    4  A    between atoms: C_12  and  N_13
REMARK                            x       y       z     vdW  Elec       q    Type
REMARK                         _______ _______ _______ _____ _____    ______ ____
ROOT
ATOM      1  C   UNL     1     -11.596  13.155  69.047  0.00  0.00    +0.059 A 
ATOM      2  C   UNL     1     -12.504  13.220  70.097  0.00  0.00    +0.046 A 
ATOM      3  C   UNL     1     -12.553  12.231  71.070  0.00  0.00    +0.155 A 
ATOM      4  F   UNL     1     -13.228  12.399  72.235  0.00  0.00    -0.203 F 
ATOM      5  C   UNL     1     -12.207  10.948  70.669  0.00  0.00    +0.076 A 
ATOM      6  C   UNL     1     -11.236  10.867  69.683  0.00  0.00    +0.018 A 
ATOM      7  C   UNL     1     -10.804  12.012  69.042  0.00  0.00    +0.016 A 
ENDROOT
BRANCH   1  12
ATOM      8  C   UNL     1     -10.043  15.091  66.715  0.00  0.00    +0.212 C 
ATOM      9  O   UNL     1     -11.128  14.528  65.737  0.00  0.00    -0.434 OA
ATOM     10  C   UNL     1     -11.816  13.653  66.571  0.00  0.00    +0.409 C 
ATOM     11  O   UNL     1     -12.345  12.578  66.155  0.00  0.00    -0.226 OA
ATOM     12  N   UNL     1     -11.649  14.049  67.938  0.00  0.00    -0.221 N 
ATOM     13  C   UNL     1     -11.215  15.442  67.860  0.00  0.00    +0.147 C 
BRANCH   8  14
ATOM     14  C   UNL     1     -10.180  16.622  66.044  0.00  0.00    +0.160 C 
BRANCH  14  17
ATOM     15  C   UNL     1      -9.939  19.688  68.186  0.00  0.00    +0.096 C 
ATOM     16  C   UNL     1     -10.453  18.878  67.147  0.00  0.00    +0.242 C 
ATOM     17  N   UNL     1     -10.516  17.450  67.188  0.00  0.00    -0.201 NA
ATOM     18  O   UNL     1     -10.674  19.418  66.028  0.00  0.00    -0.273 OA
ENDBRANCH  14  17
ENDBRANCH   8  14
ENDBRANCH   1  12
BRANCH   5  19
ATOM     19  N   UNL     1     -12.205   9.849  71.592  0.00  0.00    -0.301 N 
ATOM     20  C   UNL     1     -10.983   9.047  71.572  0.00  0.00    +0.123 C 
ATOM     21  C   UNL     1     -11.170   8.012  70.499  0.00  0.00    +0.164 C 
ATOM     22  O   UNL     1     -12.232   7.164  70.710  0.00  0.00    -0.350 OA
ATOM     23  C   UNL     1     -13.166   7.593  71.616  0.00  0.00    +0.164 C 
ATOM     24  C   UNL     1     -13.440   9.067  71.603  0.00  0.00    +0.123 C 
ENDBRANCH   5  19
TORSDOF 4
ENDMDL
MODEL 7
REMARK VINA RESULT:      -6.9      5.209      6.193
REMARK  Name = 
REMARK  4 active torsions:
REMARK  status: ('A' for Active; 'I' for Inactive)
REMARK    1  A    between atoms: N_4  and  C_5
REMARK    2  A    between atoms: C_5  and  C_6
REMARK    3  A    between atoms: N_8  and  C_9
REMARK    4  A    between atoms: C_12  and  N_13
REMARK                            x       y       z     vdW  Elec       q    Type
REMARK                         _______ _______ _______ _____ _____    ______ ____
ROOT
ATOM      1  C   UNL     1      -8.958  17.393  67.295  0.00  0.00    +0.059 A 
ATOM      2  C   UNL     1      -8.858  18.778  67.316  0.00  0.00    +0.046 A 
ATOM      3  C   UNL     1      -7.720  19.412  67.797  0.00  0.00    +0.155 A 
ATOM      4  F   UNL     1      -7.483  20.731  67.582  0.00  0.00    -0.203 F 
ATOM      5  C   UNL     1      -7.022  18.755  68.802  0.00  0.00    +0.076 A 
ATOM      6  C   UNL     1      -7.041  17.370  68.741  0.00  0.00    +0.018 A 
ATOM      7  C   UNL     1      -7.862  16.729  67.835  0.00  0.00    +0.016 A 
ENDROOT
BRANCH   1  12
ATOM      8  C   UNL     1     -10.667  14.565  66.466  0.00  0.00    +0.212 C 
ATOM      9  O   UNL     1     -11.735  15.088  67.485  0.00  0.00    -0.434 OA
ATOM     10  C   UNL     1     -11.119  16.243  67.955  0.00  0.00    +0.409 C 
ATOM     11  O   UNL     1     -11.266  16.667  69.141  0.00  0.00    -0.226 OA
ATOM     12  N   UNL     1     -10.178  16.722  66.986  0.00  0.00    -0.221 N 
ATOM     13  C   UNL     1     -10.578  16.073  65.741  0.00  0.00    +0.147 C 
BRANCH   8  14
ATOM     14  C   UNL     1     -11.867  14.076  65.402  0.00  0.00    +0.160 C 
BRANCH  14  17
ATOM     15  C   UNL     1     -10.763  11.168  63.312  0.00  0.00    +0.096 C 
ATOM     16  C   UNL     1     -11.580  12.267  63.662  0.00  0.00    +0.242 C 
ATOM     17  N   UNL     1     -11.115  13.441  64.335  0.00  0.00    -0.201 NA
ATOM     18  O   UNL     1     -12.832  12.127  63.576  0.00  0.00    -0.273 OA
ENDBRANCH  14  17
ENDBRANCH   8  14
ENDBRANCH   1  12
BRANCH   5  19
ATOM     19  N   UNL     1      -5.822  19.306  69.364  0.00  0.00    -0.301 N 
ATOM     20  C   UNL     1      -4.794  18.317  69.680  0.00  0.00    +0.123 C 
ATOM     21  C   UNL     1      -5.093  17.818  71.066  0.00  0.00    +0.164 C 
ATOM     22  O   UNL     1      -5.058  18.792  72.036  0.00  0.00    -0.350 OA
ATOM     23  C   UNL     1      -5.139  20.084  71.588  0.00  0.00    +0.164 C 
ATOM     24  C   UNL     1      -6.047  20.298  70.414  0.00  0.00    +0.123 C 
ENDBRANCH   5  19
TORSDOF 4
ENDMDL
MODEL 8
REMARK VINA RESULT:      -6.9      5.355      8.513
REMARK  Name = 
REMARK  4 active torsions:
REMARK  status: ('A' for Active; 'I' for Inactive)
REMARK    1  A    between atoms: N_4  and  C_5
REMARK    2  A    between atoms: C_5  and  C_6
REMARK    3  A    between atoms: N_8  and  C_9
REMARK    4  A    between atoms: C_12  and  N_13
REMARK                            x       y       z     vdW  Elec       q    Type
REMARK                         _______ _______ _______ _____ _____    ______ ____
ROOT
ATOM      1  C   UNL     1      -9.256  17.150  68.008  0.00  0.00    +0.059 A 
ATOM      2  C   UNL     1      -9.811  18.423  67.973  0.00  0.00    +0.046 A 
ATOM      3  C   UNL     1      -9.016  19.551  67.819  0.00  0.00    +0.155 A 
ATOM      4  F   UNL     1      -9.539  20.765  67.512  0.00  0.00    -0.203 F 
ATOM      5  C   UNL     1      -7.732  19.482  68.342  0.00  0.00    +0.076 A 
ATOM      6  C   UNL     1      -7.133  18.232  68.303  0.00  0.00    +0.018 A 
ATOM      7  C   UNL     1      -7.869  17.125  67.929  0.00  0.00    +0.016 A 
ENDROOT
BRANCH   1  12
ATOM      8  C   UNL     1     -11.976  15.716  69.476  0.00  0.00    +0.212 C 
ATOM      9  O   UNL     1     -11.991  14.796  68.209  0.00  0.00    -0.434 OA
ATOM     10  C   UNL     1     -10.935  15.326  67.476  0.00  0.00    +0.409 C 
ATOM     11  O   UNL     1     -10.920  15.346  66.208  0.00  0.00    -0.226 OA
ATOM     12  N   UNL     1     -10.021  15.996  68.352  0.00  0.00    -0.221 N 
ATOM     13  C   UNL     1     -10.331  15.462  69.676  0.00  0.00    +0.147 C 
BRANCH   8  14
ATOM     14  C   UNL     1     -12.341  14.417  70.471  0.00  0.00    +0.160 C 
BRANCH  14  17
ATOM     15  C   UNL     1     -12.647  15.947  73.878  0.00  0.00    +0.096 C 
ATOM     16  C   UNL     1     -12.666  14.900  72.929  0.00  0.00    +0.242 C 
ATOM     17  N   UNL     1     -11.839  14.846  71.764  0.00  0.00    -0.201 NA
ATOM     18  O   UNL     1     -13.611  14.064  72.986  0.00  0.00    -0.273 OA
ENDBRANCH  14  17
ENDBRANCH   8  14
ENDBRANCH   1  12
BRANCH   5  19
ATOM     19  N   UNL     1      -6.816  20.580  68.228  0.00  0.00    -0.301 N 
ATOM     20  C   UNL     1      -6.474  20.940  66.853  0.00  0.00    +0.123 C 
ATOM     21  C   UNL     1      -5.317  20.066  66.458  0.00  0.00    +0.164 C 
ATOM     22  O   UNL     1      -4.193  20.233  67.233  0.00  0.00    -0.350 OA
ATOM     23  C   UNL     1      -4.387  20.851  68.440  0.00  0.00    +0.164 C 
ATOM     24  C   UNL     1      -5.671  20.509  69.134  0.00  0.00    +0.123 C 
ENDBRANCH   5  19
TORSDOF 4
ENDMDL
MODEL 9
REMARK VINA RESULT:      -6.9      4.125      6.165
REMARK  Name = 
REMARK  4 active torsions:
REMARK  status: ('A' for Active; 'I' for Inactive)
REMARK    1  A    between atoms: N_4  and  C_5
REMARK    2  A    between atoms: C_5  and  C_6
REMARK    3  A    between atoms: N_8  and  C_9
REMARK    4  A    between atoms: C_12  and  N_13
REMARK                            x       y       z     vdW  Elec       q    Type
REMARK                         _______ _______ _______ _____ _____    ______ ____
ROOT
ATOM      1  C   UNL     1     -11.613  11.952  67.491  0.00  0.00    +0.059 A 
ATOM      2  C   UNL     1     -10.993  10.880  66.861  0.00  0.00    +0.046 A 
ATOM      3  C   UNL     1     -10.652   9.731  67.561  0.00  0.00    +0.155 A 
ATOM      4  F   UNL     1     -10.301   8.581  66.933  0.00  0.00    -0.203 F 
ATOM      5  C   UNL     1     -10.327   9.895  68.902  0.00  0.00    +0.076 A 
ATOM      6  C   UNL     1     -11.005  10.906  69.565  0.00  0.00    +0.018 A 
ATOM      7  C   UNL     1     -11.803  11.783  68.858  0.00  0.00    +0.016 A 
ENDROOT
BRANCH   1  12
ATOM      8  C   UNL     1     -10.397  14.594  65.719  0.00  0.00    +0.212 C 
ATOM      9  O   UNL     1     -11.741  14.490  64.922  0.00  0.00    -0.434 OA
ATOM     10  C   UNL     1     -12.327  13.382  65.523  0.00  0.00    +0.409 C 
ATOM     11  O   UNL     1     -13.072  12.571  64.893  0.00  0.00    -0.226 OA
ATOM     12  N   UNL     1     -11.802  13.209  66.845  0.00  0.00    -0.221 N 
ATOM     13  C   UNL     1     -11.220  14.507  67.176  0.00  0.00    +0.147 C 
BRANCH   8  14
ATOM     14  C   UNL     1     -10.484  16.269  65.720  0.00  0.00    +0.160 C 
BRANCH  14  17
ATOM     15  C   UNL     1      -8.698  18.687  67.958  0.00  0.00    +0.096 C 
ATOM     16  C   UNL     1      -9.712  17.770  67.600  0.00  0.00    +0.242 C 
ATOM     17  N   UNL     1      -9.520  16.644  66.739  0.00  0.00    -0.201 NA
ATOM     18  O   UNL     1     -10.907  18.069  67.875  0.00  0.00    -0.273 OA
ENDBRANCH  14  17
ENDBRANCH   8  14
ENDBRANCH   1  12
BRANCH   5  19
ATOM     19  N   UNL     1      -9.976   8.776  69.729  0.00  0.00    -0.301 N 
ATOM     20  C   UNL     1     -11.065   7.830  69.959  0.00  0.00    +0.123 C 
ATOM     21  C   UNL     1     -11.830   8.339  71.148  0.00  0.00    +0.164 C 
ATOM     22  O   UNL     1     -11.088   8.422  72.303  0.00  0.00    -0.350 OA
ATOM     23  C   UNL     1      -9.728   8.406  72.141  0.00  0.00    +0.164 C 
ATOM     24  C   UNL     1      -9.219   9.128  70.930  0.00  0.00    +0.123 C 
ENDBRANCH   5  19
TORSDOF 4
ENDMDL
