MODEL 1
REMARK VINA RESULT:      -5.5      0.000      0.000
REMARK  Name = 
REMARK  2 active torsions:
REMARK  status: ('A' for Active; 'I' for Inactive)
REMARK    1  A    between atoms: C_20  and  C_21
REMARK    2  A    between atoms: C_30  and  C_31
REMARK                            x       y       z     vdW  Elec       q    Type
REMARK                         _______ _______ _______ _____ _____    ______ ____
ROOT
ATOM      1  C   UNL     1      -3.363  13.271  67.808  0.00  0.00    +0.032 C 
ATOM      2  C   UNL     1      -4.036  12.958  68.949  0.00  0.00    -0.005 C 
ATOM      3  C   UNL     1      -5.139  12.226  68.799  0.00  0.00    +0.124 C 
ATOM      4  C   UNL     1      -5.839  12.012  67.532  0.00  0.00    +0.280 C 
ATOM      5  O   UNL     1      -5.075  12.111  66.516  0.00  0.00    -0.267 OA
ATOM      6  N   UNL     1      -7.169  12.100  67.674  0.00  0.00    -0.191 NA
ATOM      7  C   UNL     1      -7.984  13.019  68.644  0.00  0.00    +0.194 C 
ATOM      8  C   UNL     1      -8.988  13.445  67.456  0.00  0.00    +0.337 C 
ATOM      9  O   UNL     1      -9.239  14.671  67.308  0.00  0.00    -0.248 OA
ATOM     10  O   UNL     1     -10.236  12.821  67.609  0.00  0.00    -0.446 OA
ATOM     11  C   UNL     1     -10.061  11.308  67.400  0.00  0.00    +0.200 C 
ATOM     12  C   UNL     1     -11.614  11.035  67.894  0.00  0.00    +0.135 C 
ATOM     13  C   UNL     1     -11.425  11.130  69.370  0.00  0.00    +0.246 C 
ATOM     14  N   UNL     1     -11.130   9.939  70.078  0.00  0.00    -0.198 NA
ATOM     15  C   UNL     1     -10.290   8.903  69.239  0.00  0.00    +0.173 C 
ATOM     16  C   UNL     1      -8.868   9.387  69.849  0.00  0.00    +0.262 C 
ATOM     17  N   UNL     1      -7.842   8.835  69.085  0.00  0.00    -0.195 NA
ATOM     18  C   UNL     1      -6.745   9.700  68.343  0.00  0.00    +0.185 C 
ATOM     19  C   UNL     1      -5.639   8.478  68.431  0.00  0.00    +0.100 C 
ATOM     20  S   UNL     1      -6.459   7.337  67.253  0.00  0.00    -0.080 S 
ATOM     21  S   UNL     1      -6.757   8.253  65.355  0.00  0.00    -0.082 S 
ATOM     22  C   UNL     1      -8.533   8.454  64.979  0.00  0.00    +0.073 C 
ATOM     23  C   UNL     1      -8.842   9.896  65.195  0.00  0.00    +0.038 C 
ATOM     24  C   UNL     1     -10.269  10.234  65.264  0.00  0.00    -0.026 C 
ATOM     25  C   UNL     1      -6.281  10.441  69.673  0.00  0.00    +0.266 C 
ATOM     26  O   UNL     1      -6.178   9.686  70.693  0.00  0.00    -0.271 OA
ATOM     27  O   UNL     1      -8.952   9.416  71.125  0.00  0.00    -0.271 OA
ATOM     28  O   UNL     1     -11.771  12.182  69.984  0.00  0.00    -0.273 OA
ATOM     29  C   UNL     1     -10.538  11.412  65.852  0.00  0.00    +0.013 C 
ATOM     30  N   UNL     1      -6.011  11.775  69.845  0.00  0.00    -0.173 NA
ENDROOT
BRANCH   7  31
ATOM     31  C   UNL     1      -7.033  14.357  68.474  0.00  0.00    +0.031 C 
ATOM     32  C   UNL     1      -7.329  14.963  67.158  0.00  0.00    +0.002 C 
ATOM     33  C   UNL     1      -7.333  15.218  69.660  0.00  0.00    +0.002 C 
ENDBRANCH   7  31
BRANCH  15  34
ATOM     34  C   UNL     1     -10.510   7.708  70.347  0.00  0.00    +0.029 C 
ATOM     35  C   UNL     1     -10.632   6.465  69.475  0.00  0.00    +0.002 C 
ATOM     36  C   UNL     1     -11.859   7.948  70.940  0.00  0.00    +0.002 C 
ENDBRANCH  15  34
TORSDOF 2
ENDMDL
MODEL 2
REMARK VINA RESULT:      -5.5      1.156      1.206
REMARK  Name = 
REMARK  2 active torsions:
REMARK  status: ('A' for Active; 'I' for Inactive)
REMARK    1  A    between atoms: C_20  and  C_21
REMARK    2  A    between atoms: C_30  and  C_31
REMARK                            x       y       z     vdW  Elec       q    Type
REMARK                         _______ _______ _______ _____ _____    ______ ____
ROOT
ATOM      1  C   UNL     1      -3.025  11.762  68.929  0.00  0.00    +0.032 C 
ATOM      2  C   UNL     1      -3.883  11.712  69.984  0.00  0.00    -0.005 C 
ATOM      3  C   UNL     1      -5.061  11.130  69.759  0.00  0.00    +0.124 C 
ATOM      4  C   UNL     1      -5.614  10.840  68.435  0.00  0.00    +0.280 C 
ATOM      5  O   UNL     1      -4.718  10.685  67.542  0.00  0.00    -0.267 OA
ATOM      6  N   UNL     1      -6.919  11.135  68.364  0.00  0.00    -0.191 NA
ATOM      7  C   UNL     1      -7.696  12.289  69.082  0.00  0.00    +0.194 C 
ATOM      8  C   UNL     1      -8.455  12.681  67.714  0.00  0.00    +0.337 C 
ATOM      9  O   UNL     1      -8.484  13.897  67.384  0.00  0.00    -0.248 OA
ATOM     10  O   UNL     1      -9.796  12.268  67.750  0.00  0.00    -0.446 OA
ATOM     11  C   UNL     1      -9.840  10.732  67.753  0.00  0.00    +0.200 C 
ATOM     12  C   UNL     1     -11.468  10.754  68.037  0.00  0.00    +0.135 C 
ATOM     13  C   UNL     1     -11.461  11.030  69.503  0.00  0.00    +0.246 C 
ATOM     14  N   UNL     1     -11.456   9.921  70.385  0.00  0.00    -0.198 NA
ATOM     15  C   UNL     1     -10.692   8.668  69.812  0.00  0.00    +0.173 C 
ATOM     16  C   UNL     1      -9.302   9.027  70.567  0.00  0.00    +0.262 C 
ATOM     17  N   UNL     1      -8.287   8.232  70.039  0.00  0.00    -0.195 NA
ATOM     18  C   UNL     1      -6.978   8.819  69.372  0.00  0.00    +0.185 C 
ATOM     19  C   UNL     1      -6.104   7.477  69.772  0.00  0.00    +0.100 C 
ATOM     20  S   UNL     1      -6.935   6.309  68.629  0.00  0.00    -0.080 S 
ATOM     21  S   UNL     1      -6.832   6.980  66.612  0.00  0.00    -0.082 S 
ATOM     22  C   UNL     1      -8.488   7.376  65.951  0.00  0.00    +0.073 C 
ATOM     23  C   UNL     1      -8.586   8.863  65.943  0.00  0.00    +0.038 C 
ATOM     24  C   UNL     1      -9.937   9.407  65.755  0.00  0.00    -0.026 C 
ATOM     25  C   UNL     1      -6.578   9.667  70.658  0.00  0.00    +0.266 C 
ATOM     26  O   UNL     1      -6.732   9.058  71.765  0.00  0.00    -0.271 OA
ATOM     27  O   UNL     1      -9.547   9.248  71.802  0.00  0.00    -0.271 OA
ATOM     28  O   UNL     1     -11.710  12.196  69.927  0.00  0.00    -0.273 OA
ATOM     29  C   UNL     1     -10.088  10.682  66.151  0.00  0.00    +0.013 C 
ATOM     30  N   UNL     1      -6.123  10.960  70.707  0.00  0.00    -0.173 NA
ENDROOT
BRANCH   7  31
ATOM     31  C   UNL     1      -6.529  13.441  68.898  0.00  0.00    +0.031 C 
ATOM     32  C   UNL     1      -6.477  13.814  67.469  0.00  0.00    +0.002 C 
ATOM     33  C   UNL     1      -6.900  14.544  69.837  0.00  0.00    +0.002 C 
ENDBRANCH   7  31
BRANCH  15  34
ATOM     34  C   UNL     1     -11.243   7.686  71.010  0.00  0.00    +0.029 C 
ATOM     35  C   UNL     1     -11.407   6.350  70.295  0.00  0.00    +0.002 C 
ATOM     36  C   UNL     1     -12.618   8.171  71.330  0.00  0.00    +0.002 C 
ENDBRANCH  15  34
TORSDOF 2
ENDMDL
MODEL 3
REMARK VINA RESULT:      -5.5      2.480      3.999
REMARK  Name = 
REMARK  2 active torsions:
REMARK  status: ('A' for Active; 'I' for Inactive)
REMARK    1  A    between atoms: C_20  and  C_21
REMARK    2  A    between atoms: C_30  and  C_31
REMARK                            x       y       z     vdW  Elec       q    Type
REMARK                         _______ _______ _______ _____ _____    ______ ____
ROOT
ATOM      1  C   UNL     1      -5.679  11.440  66.674  0.00  0.00    +0.032 C 
ATOM      2  C   UNL     1      -5.990  11.684  67.976  0.00  0.00    -0.005 C 
ATOM      3  C   UNL     1      -6.563  10.683  68.643  0.00  0.00    +0.124 C 
ATOM      4  C   UNL     1      -7.157   9.496  68.026  0.00  0.00    +0.280 C 
ATOM      5  O   UNL     1      -6.647   9.212  66.894  0.00  0.00    -0.267 OA
ATOM      6  N   UNL     1      -8.322   9.165  68.601  0.00  0.00    -0.191 NA
ATOM      7  C   UNL     1      -9.408  10.111  69.213  0.00  0.00    +0.194 C 
ATOM      8  C   UNL     1     -10.586   9.310  68.458  0.00  0.00    +0.337 C 
ATOM      9  O   UNL     1     -11.448   9.982  67.830  0.00  0.00    -0.248 OA
ATOM     10  O   UNL     1     -11.311   8.518  69.362  0.00  0.00    -0.446 OA
ATOM     11  C   UNL     1     -10.397   7.398  69.882  0.00  0.00    +0.200 C 
ATOM     12  C   UNL     1     -11.534   6.952  70.995  0.00  0.00    +0.135 C 
ATOM     13  C   UNL     1     -11.295   8.001  72.028  0.00  0.00    +0.246 C 
ATOM     14  N   UNL     1     -10.365   7.716  73.058  0.00  0.00    -0.198 NA
ATOM     15  C   UNL     1      -9.187   6.777  72.596  0.00  0.00    +0.173 C 
ATOM     16  C   UNL     1      -8.174   8.007  72.291  0.00  0.00    +0.262 C 
ATOM     17  N   UNL     1      -7.082   7.519  71.577  0.00  0.00    -0.195 NA
ATOM     18  C   UNL     1      -6.660   8.059  70.151  0.00  0.00    +0.185 C 
ATOM     19  C   UNL     1      -5.079   7.662  70.404  0.00  0.00    +0.100 C 
ATOM     20  S   UNL     1      -5.287   5.840  70.363  0.00  0.00    -0.080 S 
ATOM     21  S   UNL     1      -6.180   5.195  68.541  0.00  0.00    -0.082 S 
ATOM     22  C   UNL     1      -7.828   4.461  68.825  0.00  0.00    +0.073 C 
ATOM     23  C   UNL     1      -8.818   5.488  68.396  0.00  0.00    +0.038 C 
ATOM     24  C   UNL     1     -10.202   5.251  68.827  0.00  0.00    -0.026 C 
ATOM     25  C   UNL     1      -6.534   9.567  70.645  0.00  0.00    +0.266 C 
ATOM     26  O   UNL     1      -5.967   9.710  71.776  0.00  0.00    -0.271 OA
ATOM     27  O   UNL     1      -8.151   8.786  73.304  0.00  0.00    -0.271 OA
ATOM     28  O   UNL     1     -12.080   8.989  72.117  0.00  0.00    -0.273 OA
ATOM     29  C   UNL     1     -10.991   6.339  68.804  0.00  0.00    +0.013 C 
ATOM     30  N   UNL     1      -6.980  10.701  70.015  0.00  0.00    -0.173 NA
ENDROOT
BRANCH   7  31
ATOM     31  C   UNL     1      -9.307  11.282  68.055  0.00  0.00    +0.031 C 
ATOM     32  C   UNL     1      -9.798  10.710  66.783  0.00  0.00    +0.002 C 
ATOM     33  C   UNL     1     -10.092  12.440  68.583  0.00  0.00    +0.002 C 
ENDBRANCH   7  31
BRANCH  15  34
ATOM     34  C   UNL     1      -8.659   6.551  74.137  0.00  0.00    +0.029 C 
ATOM     35  C   UNL     1      -7.828   5.279  74.021  0.00  0.00    +0.002 C 
ATOM     36  C   UNL     1      -9.871   6.198  74.934  0.00  0.00    +0.002 C 
ENDBRANCH  15  34
TORSDOF 2
ENDMDL
MODEL 4
REMARK VINA RESULT:      -5.4      1.953      3.887
REMARK  Name = 
REMARK  2 active torsions:
REMARK  status: ('A' for Active; 'I' for Inactive)
REMARK    1  A    between atoms: C_20  and  C_21
REMARK    2  A    between atoms: C_30  and  C_31
REMARK                            x       y       z     vdW  Elec       q    Type
REMARK                         _______ _______ _______ _____ _____    ______ ____
ROOT
ATOM      1  C   UNL     1      -9.444  15.431  65.780  0.00  0.00    +0.032 C 
ATOM      2  C   UNL     1      -8.953  15.226  67.033  0.00  0.00    -0.005 C 
ATOM      3  C   UNL     1      -8.665  13.966  67.354  0.00  0.00    +0.124 C 
ATOM      4  C   UNL     1      -9.118  12.787  66.614  0.00  0.00    +0.280 C 
ATOM      5  O   UNL     1      -9.348  13.027  65.384  0.00  0.00    -0.267 OA
ATOM      6  N   UNL     1      -9.522  11.807  67.435  0.00  0.00    -0.191 NA
ATOM      7  C   UNL     1     -10.231  11.934  68.825  0.00  0.00    +0.194 C 
ATOM      8  C   UNL     1     -11.314  10.810  68.417  0.00  0.00    +0.337 C 
ATOM      9  O   UNL     1     -12.531  11.060  68.628  0.00  0.00    -0.248 OA
ATOM     10  O   UNL     1     -11.056   9.602  69.084  0.00  0.00    -0.446 OA
ATOM     11  C   UNL     1      -9.731   9.024  68.564  0.00  0.00    +0.200 C 
ATOM     12  C   UNL     1      -9.752   7.857  69.735  0.00  0.00    +0.135 C 
ATOM     13  C   UNL     1      -9.264   8.660  70.894  0.00  0.00    +0.246 C 
ATOM     14  N   UNL     1      -7.868   8.692  71.136  0.00  0.00    -0.198 NA
ATOM     15  C   UNL     1      -7.002   8.589  69.823  0.00  0.00    +0.173 C 
ATOM     16  C   UNL     1      -6.817  10.194  69.683  0.00  0.00    +0.262 C 
ATOM     17  N   UNL     1      -6.303  10.477  68.420  0.00  0.00    -0.195 NA
ATOM     18  C   UNL     1      -7.025  11.420  67.375  0.00  0.00    +0.185 C 
ATOM     19  C   UNL     1      -5.592  11.838  66.674  0.00  0.00    +0.100 C 
ATOM     20  S   UNL     1      -5.220  10.210  65.915  0.00  0.00    -0.080 S 
ATOM     21  S   UNL     1      -6.790   9.570  64.629  0.00  0.00    -0.082 S 
ATOM     22  C   UNL     1      -7.604   8.063  65.264  0.00  0.00    +0.073 C 
ATOM     23  C   UNL     1      -8.902   8.507  65.846  0.00  0.00    +0.038 C 
ATOM     24  C   UNL     1      -9.583   7.523  66.697  0.00  0.00    -0.026 C 
ATOM     25  C   UNL     1      -7.087  12.655  68.377  0.00  0.00    +0.266 C 
ATOM     26  O   UNL     1      -6.026  12.843  69.054  0.00  0.00    -0.271 OA
ATOM     27  O   UNL     1      -6.417  10.665  70.803  0.00  0.00    -0.271 OA
ATOM     28  O   UNL     1     -10.083   9.075  71.764  0.00  0.00    -0.273 OA
ATOM     29  C   UNL     1     -10.503   8.043  67.528  0.00  0.00    +0.013 C 
ATOM     30  N   UNL     1      -8.140  13.504  68.606  0.00  0.00    -0.173 NA
ENDROOT
BRANCH   7  31
ATOM     31  C   UNL     1     -11.216  13.193  68.416  0.00  0.00    +0.031 C 
ATOM     32  C   UNL     1     -12.091  12.749  67.311  0.00  0.00    +0.002 C 
ATOM     33  C   UNL     1     -11.921  13.580  69.677  0.00  0.00    +0.002 C 
ENDBRANCH   7  31
BRANCH  15  34
ATOM     34  C   UNL     1      -5.608   8.368  70.667  0.00  0.00    +0.029 C 
ATOM     35  C   UNL     1      -4.729   7.626  69.668  0.00  0.00    +0.002 C 
ATOM     36  C   UNL     1      -5.939   7.395  71.750  0.00  0.00    +0.002 C 
ENDBRANCH  15  34
TORSDOF 2
ENDMDL
MODEL 5
REMARK VINA RESULT:      -5.3      2.218      5.590
REMARK  Name = 
REMARK  2 active torsions:
REMARK  status: ('A' for Active; 'I' for Inactive)
REMARK    1  A    between atoms: C_20  and  C_21
REMARK    2  A    between atoms: C_30  and  C_31
REMARK                            x       y       z     vdW  Elec       q    Type
REMARK                         _______ _______ _______ _____ _____    ______ ____
ROOT
ATOM      1  C   UNL     1     -10.545   7.508  73.260  0.00  0.00    +0.032 C 
ATOM      2  C   UNL     1     -11.059   7.178  72.044  0.00  0.00    -0.005 C 
ATOM      3  C   UNL     1     -10.534   7.807  70.992  0.00  0.00    +0.124 C 
ATOM      4  C   UNL     1      -9.705   9.011  71.063  0.00  0.00    +0.280 C 
ATOM      5  O   UNL     1      -9.083   9.126  72.169  0.00  0.00    -0.267 OA
ATOM      6  N   UNL     1     -10.034   9.899  70.115  0.00  0.00    -0.191 NA
ATOM      7  C   UNL     1     -11.446  10.195  69.508  0.00  0.00    +0.194 C 
ATOM      8  C   UNL     1     -11.214  11.785  69.647  0.00  0.00    +0.337 C 
ATOM      9  O   UNL     1     -12.135  12.472  70.167  0.00  0.00    -0.248 OA
ATOM     10  O   UNL     1     -10.972  12.367  68.393  0.00  0.00    -0.446 OA
ATOM     11  C   UNL     1      -9.623  11.857  67.864  0.00  0.00    +0.200 C 
ATOM     12  C   UNL     1      -9.902  12.565  66.397  0.00  0.00    +0.135 C 
ATOM     13  C   UNL     1     -10.827  11.555  65.806  0.00  0.00    +0.246 C 
ATOM     14  N   UNL     1     -10.259  10.504  65.043  0.00  0.00    -0.198 NA
ATOM     15  C   UNL     1      -8.828  10.071  65.540  0.00  0.00    +0.173 C 
ATOM     16  C   UNL     1      -9.388   8.848  66.447  0.00  0.00    +0.262 C 
ATOM     17  N   UNL     1      -8.361   8.401  67.276  0.00  0.00    -0.195 NA
ATOM     18  C   UNL     1      -8.466   8.370  68.854  0.00  0.00    +0.185 C 
ATOM     19  C   UNL     1      -7.401   7.114  68.958  0.00  0.00    +0.100 C 
ATOM     20  S   UNL     1      -5.904   8.034  68.433  0.00  0.00    -0.080 S 
ATOM     21  S   UNL     1      -5.548   9.725  69.677  0.00  0.00    -0.082 S 
ATOM     22  C   UNL     1      -5.719  11.288  68.747  0.00  0.00    +0.073 C 
ATOM     23  C   UNL     1      -7.034  11.865  69.146  0.00  0.00    +0.038 C 
ATOM     24  C   UNL     1      -7.532  12.953  68.294  0.00  0.00    -0.026 C 
ATOM     25  C   UNL     1      -9.781   7.474  68.853  0.00  0.00    +0.266 C 
ATOM     26  O   UNL     1      -9.771   6.517  68.014  0.00  0.00    -0.271 OA
ATOM     27  O   UNL     1     -10.176   8.134  65.738  0.00  0.00    -0.271 OA
ATOM     28  O   UNL     1     -12.071  11.781  65.775  0.00  0.00    -0.273 OA
ATOM     29  C   UNL     1      -8.852  13.183  68.393  0.00  0.00    +0.013 C 
ATOM     30  N   UNL     1     -10.908   7.630  69.620  0.00  0.00    -0.173 NA
ENDROOT
BRANCH   7  31
ATOM     31  C   UNL     1     -12.285  10.079  70.924  0.00  0.00    +0.031 C 
ATOM     32  C   UNL     1     -12.343  11.424  71.533  0.00  0.00    +0.002 C 
ATOM     33  C   UNL     1     -13.607   9.480  70.562  0.00  0.00    +0.002 C 
ENDBRANCH   7  31
BRANCH  15  34
ATOM     34  C   UNL     1      -8.563   9.139  64.211  0.00  0.00    +0.029 C 
ATOM     35  C   UNL     1      -7.048   9.201  64.059  0.00  0.00    +0.002 C 
ATOM     36  C   UNL     1      -9.139   9.899  63.062  0.00  0.00    +0.002 C 
ENDBRANCH  15  34
TORSDOF 2
ENDMDL
MODEL 6
REMARK VINA RESULT:      -5.3      3.208      5.825
REMARK  Name = 
REMARK  2 active torsions:
REMARK  status: ('A' for Active; 'I' for Inactive)
REMARK    1  A    between atoms: C_20  and  C_21
REMARK    2  A    between atoms: C_30  and  C_31
REMARK                            x       y       z     vdW  Elec       q    Type
REMARK                         _______ _______ _______ _____ _____    ______ ____
ROOT
ATOM      1  C   UNL     1      -5.173  15.872  70.072  0.00  0.00    +0.032 C 
ATOM      2  C   UNL     1      -5.391  15.807  68.731  0.00  0.00    -0.005 C 
ATOM      3  C   UNL     1      -6.490  15.159  68.344  0.00  0.00    +0.124 C 
ATOM      4  C   UNL     1      -7.282  14.268  69.193  0.00  0.00    +0.280 C 
ATOM      5  O   UNL     1      -7.186  14.544  70.434  0.00  0.00    -0.267 OA
ATOM      6  N   UNL     1      -7.656  13.159  68.540  0.00  0.00    -0.191 NA
ATOM      7  C   UNL     1      -6.878  12.373  67.433  0.00  0.00    +0.194 C 
ATOM      8  C   UNL     1      -7.191  10.967  68.158  0.00  0.00    +0.337 C 
ATOM      9  O   UNL     1      -6.234  10.164  68.327  0.00  0.00    -0.248 OA
ATOM     10  O   UNL     1      -8.166  10.246  67.450  0.00  0.00    -0.446 OA
ATOM     11  C   UNL     1      -9.502  10.999  67.543  0.00  0.00    +0.200 C 
ATOM     12  C   UNL     1     -10.186   9.974  66.442  0.00  0.00    +0.135 C 
ATOM     13  C   UNL     1      -9.632  10.556  65.185  0.00  0.00    +0.246 C 
ATOM     14  N   UNL     1     -10.390  11.556  64.528  0.00  0.00    -0.198 NA
ATOM     15  C   UNL     1     -11.228  12.455  65.514  0.00  0.00    +0.173 C 
ATOM     16  C   UNL     1     -10.107  13.626  65.582  0.00  0.00    +0.262 C 
ATOM     17  N   UNL     1     -10.426  14.490  66.627  0.00  0.00    -0.195 NA
ATOM     18  C   UNL     1      -9.452  14.792  67.837  0.00  0.00    +0.185 C 
ATOM     19  C   UNL     1     -10.106  16.289  68.065  0.00  0.00    +0.100 C 
ATOM     20  S   UNL     1     -11.742  15.738  68.682  0.00  0.00    -0.080 S 
ATOM     21  S   UNL     1     -11.552  14.482  70.390  0.00  0.00    -0.082 S 
ATOM     22  C   UNL     1     -12.130  12.785  70.042  0.00  0.00    +0.073 C 
ATOM     23  C   UNL     1     -10.904  11.953  69.882  0.00  0.00    +0.038 C 
ATOM     24  C   UNL     1     -11.112  10.628  69.284  0.00  0.00    -0.026 C 
ATOM     25  C   UNL     1      -8.262  15.271  66.895  0.00  0.00    +0.266 C 
ATOM     26  O   UNL     1      -8.619  16.014  65.925  0.00  0.00    -0.271 OA
ATOM     27  O   UNL     1      -9.768  13.944  64.391  0.00  0.00    -0.271 OA
ATOM     28  O   UNL     1      -8.658   9.993  64.604  0.00  0.00    -0.273 OA
ATOM     29  C   UNL     1     -10.005  10.065  68.771  0.00  0.00    +0.013 C 
ATOM     30  N   UNL     1      -6.930  14.959  66.994  0.00  0.00    -0.173 NA
ENDROOT
BRANCH   7  31
ATOM     31  C   UNL     1      -5.383  12.522  68.116  0.00  0.00    +0.031 C 
ATOM     32  C   UNL     1      -5.382  11.761  69.383  0.00  0.00    +0.002 C 
ATOM     33  C   UNL     1      -4.417  12.044  67.079  0.00  0.00    +0.002 C 
ENDBRANCH   7  31
BRANCH  15  34
ATOM     34  C   UNL     1     -12.072  13.152  64.286  0.00  0.00    +0.029 C 
ATOM     35  C   UNL     1     -13.201  13.863  65.021  0.00  0.00    +0.002 C 
ATOM     36  C   UNL     1     -12.695  12.024  63.532  0.00  0.00    +0.002 C 
ENDBRANCH  15  34
TORSDOF 2
ENDMDL
MODEL 7
REMARK VINA RESULT:      -5.2      2.620      5.784
REMARK  Name = 
REMARK  2 active torsions:
REMARK  status: ('A' for Active; 'I' for Inactive)
REMARK    1  A    between atoms: C_20  and  C_21
REMARK    2  A    between atoms: C_30  and  C_31
REMARK                            x       y       z     vdW  Elec       q    Type
REMARK                         _______ _______ _______ _____ _____    ______ ____
ROOT
ATOM      1  C   UNL     1      -7.483   9.938  62.401  0.00  0.00    +0.032 C 
ATOM      2  C   UNL     1      -8.737   9.743  62.891  0.00  0.00    -0.005 C 
ATOM      3  C   UNL     1      -8.926  10.063  64.171  0.00  0.00    +0.124 C 
ATOM      4  C   UNL     1      -7.858  10.295  65.144  0.00  0.00    +0.280 C 
ATOM      5  O   UNL     1      -6.770  10.690  64.608  0.00  0.00    -0.267 OA
ATOM      6  N   UNL     1      -8.128   9.725  66.327  0.00  0.00    -0.191 NA
ATOM      7  C   UNL     1      -8.899   8.393  66.611  0.00  0.00    +0.194 C 
ATOM      8  C   UNL     1      -7.768   7.918  67.657  0.00  0.00    +0.337 C 
ATOM      9  O   UNL     1      -7.320   6.744  67.550  0.00  0.00    -0.248 OA
ATOM     10  O   UNL     1      -8.232   8.024  68.978  0.00  0.00    -0.446 OA
ATOM     11  C   UNL     1      -8.426   9.511  69.316  0.00  0.00    +0.200 C 
ATOM     12  C   UNL     1      -9.156   9.117  70.744  0.00  0.00    +0.135 C 
ATOM     13  C   UNL     1     -10.517   8.772  70.241  0.00  0.00    +0.246 C 
ATOM     14  N   UNL     1     -11.484   9.807  70.183  0.00  0.00    -0.198 NA
ATOM     15  C   UNL     1     -10.866  11.225  69.885  0.00  0.00    +0.173 C 
ATOM     16  C   UNL     1     -11.147  11.140  68.290  0.00  0.00    +0.262 C 
ATOM     17  N   UNL     1     -10.447  12.165  67.657  0.00  0.00    -0.195 NA
ATOM     18  C   UNL     1      -9.372  11.916  66.524  0.00  0.00    +0.185 C 
ATOM     19  C   UNL     1      -9.660  13.393  65.847  0.00  0.00    +0.100 C 
ATOM     20  S   UNL     1      -8.944  14.410  67.194  0.00  0.00    -0.080 S 
ATOM     21  S   UNL     1      -6.917  13.886  67.579  0.00  0.00    -0.082 S 
ATOM     22  C   UNL     1      -6.715  13.173  69.248  0.00  0.00    +0.073 C 
ATOM     23  C   UNL     1      -6.562  11.703  69.055  0.00  0.00    +0.038 C 
ATOM     24  C   UNL     1      -6.706  10.887  70.268  0.00  0.00    -0.026 C 
ATOM     25  C   UNL     1     -10.384  11.108  65.597  0.00  0.00    +0.266 C 
ATOM     26  O   UNL     1     -11.551  11.610  65.524  0.00  0.00    -0.271 OA
ATOM     27  O   UNL     1     -12.367  10.806  68.102  0.00  0.00    -0.271 OA
ATOM     28  O   UNL     1     -10.856   7.559  70.119  0.00  0.00    -0.273 OA
ATOM     29  C   UNL     1      -6.977   9.590  70.042  0.00  0.00    +0.013 C 
ATOM     30  N   UNL     1     -10.151   9.946  64.907  0.00  0.00    -0.173 NA
ENDROOT
BRANCH   7  31
ATOM     31  C   UNL     1      -8.257   7.536  65.355  0.00  0.00    +0.031 C 
ATOM     32  C   UNL     1      -6.801   7.417  65.579  0.00  0.00    +0.002 C 
ATOM     33  C   UNL     1      -9.010   6.244  65.322  0.00  0.00    +0.002 C 
ENDBRANCH   7  31
BRANCH  15  34
ATOM     34  C   UNL     1     -12.277  11.998  70.227  0.00  0.00    +0.029 C 
ATOM     35  C   UNL     1     -11.818  13.428  70.486  0.00  0.00    +0.002 C 
ATOM     36  C   UNL     1     -12.731  11.451  71.540  0.00  0.00    +0.002 C 
ENDBRANCH  15  34
TORSDOF 2
ENDMDL
MODEL 8
REMARK VINA RESULT:      -5.2      2.875      6.583
REMARK  Name = 
REMARK  2 active torsions:
REMARK  status: ('A' for Active; 'I' for Inactive)
REMARK    1  A    between atoms: C_20  and  C_21
REMARK    2  A    between atoms: C_30  and  C_31
REMARK                            x       y       z     vdW  Elec       q    Type
REMARK                         _______ _______ _______ _____ _____    ______ ____
ROOT
ATOM      1  C   UNL     1      -8.760   2.746  71.902  0.00  0.00    +0.032 C 
ATOM      2  C   UNL     1      -9.777   3.373  71.250  0.00  0.00    -0.005 C 
ATOM      3  C   UNL     1      -9.438   4.416  70.494  0.00  0.00    +0.124 C 
ATOM      4  C   UNL     1      -8.155   5.117  70.558  0.00  0.00    +0.280 C 
ATOM      5  O   UNL     1      -7.204   4.381  70.978  0.00  0.00    -0.267 OA
ATOM      6  N   UNL     1      -8.309   6.447  70.496  0.00  0.00    -0.191 NA
ATOM      7  C   UNL     1      -9.480   7.318  71.063  0.00  0.00    +0.194 C 
ATOM      8  C   UNL     1      -8.438   8.372  71.698  0.00  0.00    +0.337 C 
ATOM      9  O   UNL     1      -8.611   8.724  72.896  0.00  0.00    -0.248 OA
ATOM     10  O   UNL     1      -8.418   9.563  70.955  0.00  0.00    -0.446 OA
ATOM     11  C   UNL     1      -7.826   9.271  69.568  0.00  0.00    +0.200 C 
ATOM     12  C   UNL     1      -8.224  10.788  69.049  0.00  0.00    +0.135 C 
ATOM     13  C   UNL     1      -9.676  10.583  68.775  0.00  0.00    +0.246 C 
ATOM     14  N   UNL     1     -10.053  10.180  67.470  0.00  0.00    -0.198 NA
ATOM     15  C   UNL     1      -8.978   9.275  66.759  0.00  0.00    +0.173 C 
ATOM     16  C   UNL     1      -9.700   7.886  67.184  0.00  0.00    +0.262 C 
ATOM     17  N   UNL     1      -8.824   6.832  66.934  0.00  0.00    -0.195 NA
ATOM     18  C   UNL     1      -8.336   5.820  68.048  0.00  0.00    +0.185 C 
ATOM     19  C   UNL     1      -8.111   4.619  66.940  0.00  0.00    +0.100 C 
ATOM     20  S   UNL     1      -6.673   5.363  66.078  0.00  0.00    -0.080 S 
ATOM     21  S   UNL     1      -5.075   5.766  67.426  0.00  0.00    -0.082 S 
ATOM     22  C   UNL     1      -4.756   7.558  67.571  0.00  0.00    +0.073 C 
ATOM     23  C   UNL     1      -5.336   7.978  68.878  0.00  0.00    +0.038 C 
ATOM     24  C   UNL     1      -5.484   9.427  69.068  0.00  0.00    -0.026 C 
ATOM     25  C   UNL     1      -9.815   5.395  68.456  0.00  0.00    +0.266 C 
ATOM     26  O   UNL     1     -10.605   5.215  67.474  0.00  0.00    -0.271 OA
ATOM     27  O   UNL     1     -10.939   7.951  66.875  0.00  0.00    -0.271 OA
ATOM     28  O   UNL     1     -10.540  11.001  69.600  0.00  0.00    -0.273 OA
ATOM     29  C   UNL     1      -6.355   9.780  70.028  0.00  0.00    +0.013 C 
ATOM     30  N   UNL     1     -10.327   5.231  69.717  0.00  0.00    -0.173 NA
ENDROOT
BRANCH   7  31
ATOM     31  C   UNL     1      -9.666   6.481  72.473  0.00  0.00    +0.031 C 
ATOM     32  C   UNL     1      -8.451   6.685  73.290  0.00  0.00    +0.002 C 
ATOM     33  C   UNL     1     -10.938   6.986  73.077  0.00  0.00    +0.002 C 
ENDBRANCH   7  31
BRANCH  15  34
ATOM     34  C   UNL     1      -9.738   9.379  65.304  0.00  0.00    +0.029 C 
ATOM     35  C   UNL     1      -8.593   9.194  64.316  0.00  0.00    +0.002 C 
ATOM     36  C   UNL     1     -10.184  10.798  65.180  0.00  0.00    +0.002 C 
ENDBRANCH  15  34
TORSDOF 2
ENDMDL
MODEL 9
REMARK VINA RESULT:      -5.1      4.085      7.447
REMARK  Name = 
REMARK  2 active torsions:
REMARK  status: ('A' for Active; 'I' for Inactive)
REMARK    1  A    between atoms: C_20  and  C_21
REMARK    2  A    between atoms: C_30  and  C_31
REMARK                            x       y       z     vdW  Elec       q    Type
REMARK                         _______ _______ _______ _____ _____    ______ ____
ROOT
ATOM      1  C   UNL     1      -6.866   3.295  66.389  0.00  0.00    +0.032 C 
ATOM      2  C   UNL     1      -8.143   3.299  66.859  0.00  0.00    -0.005 C 
ATOM      3  C   UNL     1      -8.466   4.300  67.677  0.00  0.00    +0.124 C 
ATOM      4  C   UNL     1      -7.506   5.182  68.344  0.00  0.00    +0.280 C 
ATOM      5  O   UNL     1      -6.405   5.291  67.712  0.00  0.00    -0.267 OA
ATOM      6  N   UNL     1      -7.842   5.410  69.621  0.00  0.00    -0.191 NA
ATOM      7  C   UNL     1      -8.543   4.441  70.630  0.00  0.00    +0.194 C 
ATOM      8  C   UNL     1      -7.481   4.813  71.785  0.00  0.00    +0.337 C 
ATOM      9  O   UNL     1      -6.948   3.865  72.423  0.00  0.00    -0.248 OA
ATOM     10  O   UNL     1      -8.067   5.638  72.756  0.00  0.00    -0.446 OA
ATOM     11  C   UNL     1      -8.390   6.999  72.119  0.00  0.00    +0.200 C 
ATOM     12  C   UNL     1      -9.217   7.465  73.472  0.00  0.00    +0.135 C 
ATOM     13  C   UNL     1     -10.501   6.743  73.239  0.00  0.00    +0.246 C 
ATOM     14  N   UNL     1     -11.526   7.425  72.537  0.00  0.00    -0.198 NA
ATOM     15  C   UNL     1     -10.981   8.438  71.461  0.00  0.00    +0.173 C 
ATOM     16  C   UNL     1     -11.113   7.384  70.235  0.00  0.00    +0.262 C 
ATOM     17  N   UNL     1     -10.430   7.893  69.133  0.00  0.00    -0.195 NA
ATOM     18  C   UNL     1      -9.244   7.131  68.414  0.00  0.00    +0.185 C 
ATOM     19  C   UNL     1      -9.568   7.866  66.973  0.00  0.00    +0.100 C 
ATOM     20  S   UNL     1      -9.046   9.558  67.451  0.00  0.00    -0.080 S 
ATOM     21  S   UNL     1      -7.031   9.591  68.136  0.00  0.00    -0.082 S 
ATOM     22  C   UNL     1      -6.930  10.047  69.901  0.00  0.00    +0.073 C 
ATOM     23  C   UNL     1      -6.663   8.782  70.642  0.00  0.00    +0.038 C 
ATOM     24  C   UNL     1      -6.858   8.846  72.096  0.00  0.00    -0.026 C 
ATOM     25  C   UNL     1     -10.112   5.827  68.135  0.00  0.00    +0.266 C 
ATOM     26  O   UNL     1     -11.299   6.055  67.738  0.00  0.00    -0.271 OA
ATOM     27  O   UNL     1     -12.285   6.875  70.251  0.00  0.00    -0.271 OA
ATOM     28  O   UNL     1     -10.745   5.671  73.866  0.00  0.00    -0.273 OA
ATOM     29  C   UNL     1      -7.020   7.653  72.693  0.00  0.00    +0.013 C 
ATOM     30  N   UNL     1      -9.741   4.517  68.297  0.00  0.00    -0.173 NA
ENDROOT
BRANCH   7  31
ATOM     31  C   UNL     1      -7.736   3.077  70.169  0.00  0.00    +0.031 C 
ATOM     32  C   UNL     1      -6.328   3.213  70.597  0.00  0.00    +0.002 C 
ATOM     33  C   UNL     1      -8.487   1.938  70.781  0.00  0.00    +0.002 C 
ENDBRANCH   7  31
BRANCH  15  34
ATOM     34  C   UNL     1     -12.466   9.104  71.222  0.00  0.00    +0.029 C 
ATOM     35  C   UNL     1     -12.132  10.559  70.919  0.00  0.00    +0.002 C 
ATOM     36  C   UNL     1     -13.136   9.089  72.557  0.00  0.00    +0.002 C 
ENDBRANCH  15  34
TORSDOF 2
ENDMDL
