MODEL 1
REMARK VINA RESULT:      -6.5      0.000      0.000
REMARK  Name = 
REMARK  3 active torsions:
REMARK  status: ('A' for Active; 'I' for Inactive)
REMARK    1  A    between atoms: C_2  and  C_3
REMARK    2  A    between atoms: C_5  and  O_6
REMARK    3  A    between atoms: O_6  and  C_7
REMARK                            x       y       z     vdW  Elec       q    Type
REMARK                         _______ _______ _______ _____ _____    ______ ____
ROOT
ATOM      1  C   UNL     1     -10.733  14.493  66.051  0.00  0.00    +0.185 C 
ATOM      2  C   UNL     1     -10.659  13.306  64.852  0.00  0.00    +0.215 C 
ATOM      3  O   UNL     1      -9.445  12.694  65.519  0.00  0.00    -0.218 OA
ATOM      4  C   UNL     1     -11.636  12.033  65.387  0.00  0.00    +0.221 C 
ATOM      5  O   UNL     1     -12.939  12.715  65.016  0.00  0.00    -0.217 OA
ATOM      6  C   UNL     1     -11.859  12.177  67.055  0.00  0.00    +0.254 C 
ATOM      7  O   UNL     1     -10.502  11.578  67.334  0.00  0.00    -0.213 OA
ATOM      8  C   UNL     1     -11.249  13.723  67.385  0.00  0.00    +0.322 C 
ATOM      9  O   UNL     1     -12.207  14.345  66.360  0.00  0.00    -0.316 OA
ENDROOT
BRANCH   1  11
ATOM     10  O   UNL     1      -9.883  16.396  65.412  0.00  0.00    -0.218 OA
ATOM     11  C   UNL     1     -10.990  15.762  65.038  0.00  0.00    +0.214 C 
ENDBRANCH   1  11
BRANCH   8  12
ATOM     12  O   UNL     1     -12.183  13.933  68.575  0.00  0.00    -0.450 OA
BRANCH  12  13
ATOM     13  C   UNL     1     -11.821  14.141  69.845  0.00  0.00    +0.142 A 
ATOM     14  C   UNL     1     -11.548  15.424  70.317  0.00  0.00    +0.040 A 
ATOM     15  C   UNL     1     -12.248  15.965  71.393  0.00  0.00    +0.045 A 
ATOM     16  C   UNL     1     -13.366  15.301  71.899  0.00  0.00    +0.196 A 
ATOM     17  O   UNL     1     -14.194  16.032  72.687  0.00  0.00    -0.287 OA
ATOM     18  C   UNL     1     -13.220  13.931  71.853  0.00  0.00    +0.045 A 
ATOM     19  C   UNL     1     -12.447  13.369  70.837  0.00  0.00    +0.040 A 
ENDBRANCH  12  13
ENDBRANCH   8  12
TORSDOF 3
ENDMDL
MODEL 2
REMARK VINA RESULT:      -6.4      1.152      2.813
REMARK  Name = 
REMARK  3 active torsions:
REMARK  status: ('A' for Active; 'I' for Inactive)
REMARK    1  A    between atoms: C_2  and  C_3
REMARK    2  A    between atoms: C_5  and  O_6
REMARK    3  A    between atoms: O_6  and  C_7
REMARK                            x       y       z     vdW  Elec       q    Type
REMARK                         _______ _______ _______ _____ _____    ______ ____
ROOT
ATOM      1  C   UNL     1     -11.732  12.190  66.599  0.00  0.00    +0.185 C 
ATOM      2  C   UNL     1     -11.623  12.088  64.917  0.00  0.00    +0.215 C 
ATOM      3  O   UNL     1     -13.116  12.314  64.797  0.00  0.00    -0.218 OA
ATOM      4  C   UNL     1     -11.308  13.658  64.369  0.00  0.00    +0.221 C 
ATOM      5  O   UNL     1      -9.838  13.624  64.741  0.00  0.00    -0.217 OA
ATOM      6  C   UNL     1     -11.744  14.756  65.574  0.00  0.00    +0.254 C 
ATOM      7  O   UNL     1     -13.203  14.656  65.202  0.00  0.00    -0.213 OA
ATOM      8  C   UNL     1     -12.014  13.758  66.916  0.00  0.00    +0.322 C 
ATOM      9  O   UNL     1     -10.600  13.174  66.794  0.00  0.00    -0.316 OA
ENDROOT
BRANCH   1  11
ATOM     10  O   UNL     1     -11.602  10.401  67.837  0.00  0.00    -0.218 OA
ATOM     11  C   UNL     1     -10.773  10.896  66.925  0.00  0.00    +0.214 C 
ENDBRANCH   1  11
BRANCH   8  12
ATOM     12  O   UNL     1     -11.616  14.844  67.914  0.00  0.00    -0.450 OA
BRANCH  12  13
ATOM     13  C   UNL     1     -11.367  14.677  69.217  0.00  0.00    +0.142 A 
ATOM     14  C   UNL     1     -11.076  15.763  70.041  0.00  0.00    +0.040 A 
ATOM     15  C   UNL     1     -11.848  16.047  71.166  0.00  0.00    +0.045 A 
ATOM     16  C   UNL     1     -13.041  15.358  71.382  0.00  0.00    +0.196 A 
ATOM     17  O   UNL     1     -13.903  15.911  72.272  0.00  0.00    -0.287 OA
ATOM     18  C   UNL     1     -12.961  14.043  70.975  0.00  0.00    +0.045 A 
ATOM     19  C   UNL     1     -12.124  13.718  69.908  0.00  0.00    +0.040 A 
ENDBRANCH  12  13
ENDBRANCH   8  12
TORSDOF 3
ENDMDL
MODEL 3
REMARK VINA RESULT:      -6.3      2.699      3.542
REMARK  Name = 
REMARK  3 active torsions:
REMARK  status: ('A' for Active; 'I' for Inactive)
REMARK    1  A    between atoms: C_2  and  C_3
REMARK    2  A    between atoms: C_5  and  O_6
REMARK    3  A    between atoms: O_6  and  C_7
REMARK                            x       y       z     vdW  Elec       q    Type
REMARK                         _______ _______ _______ _____ _____    ______ ____
ROOT
ATOM      1  C   UNL     1      -9.838  17.932  68.675  0.00  0.00    +0.185 C 
ATOM      2  C   UNL     1      -8.840  17.489  67.386  0.00  0.00    +0.215 C 
ATOM      3  O   UNL     1      -7.963  16.691  68.328  0.00  0.00    -0.218 OA
ATOM      4  C   UNL     1      -9.500  16.069  66.745  0.00  0.00    +0.221 C 
ATOM      5  O   UNL     1     -10.612  16.779  65.997  0.00  0.00    -0.217 OA
ATOM      6  C   UNL     1     -10.515  15.368  67.897  0.00  0.00    +0.254 C 
ATOM      7  O   UNL     1      -9.341  14.778  68.639  0.00  0.00    -0.213 OA
ATOM      8  C   UNL     1     -10.651  16.582  69.070  0.00  0.00    +0.322 C 
ATOM      9  O   UNL     1     -11.153  17.577  68.015  0.00  0.00    -0.316 OA
ENDROOT
BRANCH   1  11
ATOM     10  O   UNL     1     -11.091  19.339  67.580  0.00  0.00    -0.218 OA
ATOM     11  C   UNL     1      -9.969  19.519  68.269  0.00  0.00    +0.214 C 
ENDBRANCH   1  11
BRANCH   8  12
ATOM     12  O   UNL     1     -12.048  16.136  69.496  0.00  0.00    -0.450 OA
BRANCH  12  13
ATOM     13  C   UNL     1     -12.347  15.289  70.488  0.00  0.00    +0.142 A 
ATOM     14  C   UNL     1     -11.435  15.022  71.508  0.00  0.00    +0.040 A 
ATOM     15  C   UNL     1     -11.754  15.252  72.844  0.00  0.00    +0.045 A 
ATOM     16  C   UNL     1     -12.927  15.931  73.172  0.00  0.00    +0.196 A 
ATOM     17  O   UNL     1     -13.004  16.427  74.432  0.00  0.00    -0.287 OA
ATOM     18  C   UNL     1     -13.960  15.628  72.309  0.00  0.00    +0.045 A 
ATOM     19  C   UNL     1     -13.659  15.305  70.986  0.00  0.00    +0.040 A 
ENDBRANCH  12  13
ENDBRANCH   8  12
TORSDOF 3
ENDMDL
MODEL 4
REMARK VINA RESULT:      -6.3      2.995      5.121
REMARK  Name = 
REMARK  3 active torsions:
REMARK  status: ('A' for Active; 'I' for Inactive)
REMARK    1  A    between atoms: C_2  and  C_3
REMARK    2  A    between atoms: C_5  and  O_6
REMARK    3  A    between atoms: O_6  and  C_7
REMARK                            x       y       z     vdW  Elec       q    Type
REMARK                         _______ _______ _______ _____ _____    ______ ____
ROOT
ATOM      1  C   UNL     1     -11.882  14.306  67.131  0.00  0.00    +0.185 C 
ATOM      2  C   UNL     1     -12.102  13.167  65.904  0.00  0.00    +0.215 C 
ATOM      3  O   UNL     1     -13.191  14.023  65.292  0.00  0.00    -0.218 OA
ATOM      4  C   UNL     1     -11.028  13.591  64.668  0.00  0.00    +0.221 C 
ATOM      5  O   UNL     1      -9.809  13.013  65.362  0.00  0.00    -0.217 OA
ATOM      6  C   UNL     1     -10.567  15.203  64.872  0.00  0.00    +0.254 C 
ATOM      7  O   UNL     1     -11.854  15.696  64.256  0.00  0.00    -0.213 OA
ATOM      8  C   UNL     1     -11.159  15.573  66.415  0.00  0.00    +0.322 C 
ATOM      9  O   UNL     1     -10.376  14.400  67.022  0.00  0.00    -0.316 OA
ENDROOT
BRANCH   1  11
ATOM     10  O   UNL     1     -12.079  12.186  67.595  0.00  0.00    -0.218 OA
ATOM     11  C   UNL     1     -11.806  13.230  68.371  0.00  0.00    +0.214 C 
ENDBRANCH   1  11
BRANCH   8  12
ATOM     12  O   UNL     1     -10.066  16.606  66.682  0.00  0.00    -0.450 OA
BRANCH  12  13
ATOM     13  C   UNL     1     -10.148  17.658  67.503  0.00  0.00    +0.142 A 
ATOM     14  C   UNL     1      -9.162  17.909  68.456  0.00  0.00    +0.040 A 
ATOM     15  C   UNL     1      -8.461  19.113  68.475  0.00  0.00    +0.045 A 
ATOM     16  C   UNL     1      -8.605  20.018  67.423  0.00  0.00    +0.196 A 
ATOM     17  O   UNL     1      -7.654  20.980  67.323  0.00  0.00    -0.287 OA
ATOM     18  C   UNL     1      -9.890  20.031  66.923  0.00  0.00    +0.045 A 
ATOM     19  C   UNL     1     -10.646  18.861  66.976  0.00  0.00    +0.040 A 
ENDBRANCH  12  13
ENDBRANCH   8  12
TORSDOF 3
ENDMDL
MODEL 5
REMARK VINA RESULT:      -6.2      3.504      6.258
REMARK  Name = 
REMARK  3 active torsions:
REMARK  status: ('A' for Active; 'I' for Inactive)
REMARK    1  A    between atoms: C_2  and  C_3
REMARK    2  A    between atoms: C_5  and  O_6
REMARK    3  A    between atoms: O_6  and  C_7
REMARK                            x       y       z     vdW  Elec       q    Type
REMARK                         _______ _______ _______ _____ _____    ______ ____
ROOT
ATOM      1  C   UNL     1      -7.958  17.359  66.935  0.00  0.00    +0.185 C 
ATOM      2  C   UNL     1      -7.771  19.033  67.053  0.00  0.00    +0.215 C 
ATOM      3  O   UNL     1      -8.098  19.184  65.582  0.00  0.00    -0.218 OA
ATOM      4  C   UNL     1      -9.285  19.649  67.488  0.00  0.00    +0.221 C 
ATOM      5  O   UNL     1      -9.162  19.256  68.948  0.00  0.00    -0.217 OA
ATOM      6  C   UNL     1     -10.468  18.501  67.122  0.00  0.00    +0.254 C 
ATOM      7  O   UNL     1     -10.457  18.887  65.663  0.00  0.00    -0.213 OA
ATOM      8  C   UNL     1      -9.556  17.118  66.767  0.00  0.00    +0.322 C 
ATOM      9  O   UNL     1      -8.865  17.194  68.135  0.00  0.00    -0.316 OA
ENDROOT
BRANCH   1  11
ATOM     10  O   UNL     1      -6.062  16.295  66.786  0.00  0.00    -0.218 OA
ATOM     11  C   UNL     1      -6.615  16.962  67.794  0.00  0.00    +0.214 C 
ENDBRANCH   1  11
BRANCH   8  12
ATOM     12  O   UNL     1     -10.656  16.166  67.233  0.00  0.00    -0.450 OA
BRANCH  12  13
ATOM     13  C   UNL     1     -10.807  14.887  66.875  0.00  0.00    +0.142 A 
ATOM     14  C   UNL     1     -12.065  14.288  66.850  0.00  0.00    +0.040 A 
ATOM     15  C   UNL     1     -12.573  13.716  65.686  0.00  0.00    +0.045 A 
ATOM     16  C   UNL     1     -11.907  13.897  64.474  0.00  0.00    +0.196 A 
ATOM     17  O   UNL     1     -12.617  13.630  63.350  0.00  0.00    -0.287 OA
ATOM     18  C   UNL     1     -10.537  13.919  64.633  0.00  0.00    +0.045 A 
ATOM     19  C   UNL     1     -10.006  14.402  65.828  0.00  0.00    +0.040 A 
ENDBRANCH  12  13
ENDBRANCH   8  12
TORSDOF 3
ENDMDL
MODEL 6
REMARK VINA RESULT:      -6.0      2.258      3.928
REMARK  Name = 
REMARK  3 active torsions:
REMARK  status: ('A' for Active; 'I' for Inactive)
REMARK    1  A    between atoms: C_2  and  C_3
REMARK    2  A    between atoms: C_5  and  O_6
REMARK    3  A    between atoms: O_6  and  C_7
REMARK                            x       y       z     vdW  Elec       q    Type
REMARK                         _______ _______ _______ _____ _____    ______ ____
ROOT
ATOM      1  C   UNL     1     -10.262  15.665  67.008  0.00  0.00    +0.185 C 
ATOM      2  C   UNL     1      -9.087  16.671  66.331  0.00  0.00    +0.215 C 
ATOM      3  O   UNL     1     -10.163  17.465  65.619  0.00  0.00    -0.218 OA
ATOM      4  C   UNL     1      -8.847  17.928  67.438  0.00  0.00    +0.221 C 
ATOM      5  O   UNL     1      -7.990  17.100  68.378  0.00  0.00    -0.217 OA
ATOM      6  C   UNL     1     -10.176  18.006  68.476  0.00  0.00    +0.254 C 
ATOM      7  O   UNL     1     -10.995  18.742  67.445  0.00  0.00    -0.213 OA
ATOM      8  C   UNL     1     -11.014  16.575  68.125  0.00  0.00    +0.322 C 
ATOM      9  O   UNL     1      -9.764  15.740  68.435  0.00  0.00    -0.316 OA
ENDROOT
BRANCH   1  11
ATOM     10  O   UNL     1      -9.905  14.166  65.467  0.00  0.00    -0.218 OA
ATOM     11  C   UNL     1      -9.479  14.249  66.723  0.00  0.00    +0.214 C 
ENDBRANCH   1  11
BRANCH   8  12
ATOM     12  O   UNL     1     -11.592  16.465  69.534  0.00  0.00    -0.450 OA
BRANCH  12  13
ATOM     13  C   UNL     1     -11.368  15.483  70.413  0.00  0.00    +0.142 A 
ATOM     14  C   UNL     1     -11.542  15.685  71.781  0.00  0.00    +0.040 A 
ATOM     15  C   UNL     1     -12.422  14.901  72.524  0.00  0.00    +0.045 A 
ATOM     16  C   UNL     1     -13.285  14.019  71.874  0.00  0.00    +0.196 A 
ATOM     17  O   UNL     1     -14.336  13.561  72.599  0.00  0.00    -0.287 OA
ATOM     18  C   UNL     1     -12.704  13.451  70.760  0.00  0.00    +0.045 A 
ATOM     19  C   UNL     1     -11.751  14.182  70.051  0.00  0.00    +0.040 A 
ENDBRANCH  12  13
ENDBRANCH   8  12
TORSDOF 3
ENDMDL
MODEL 7
REMARK VINA RESULT:      -5.9      2.820      4.593
REMARK  Name = 
REMARK  3 active torsions:
REMARK  status: ('A' for Active; 'I' for Inactive)
REMARK    1  A    between atoms: C_2  and  C_3
REMARK    2  A    between atoms: C_5  and  O_6
REMARK    3  A    between atoms: O_6  and  C_7
REMARK                            x       y       z     vdW  Elec       q    Type
REMARK                         _______ _______ _______ _____ _____    ______ ____
ROOT
ATOM      1  C   UNL     1     -12.062  12.473  65.024  0.00  0.00    +0.185 C 
ATOM      2  C   UNL     1     -12.040  14.111  64.614  0.00  0.00    +0.215 C 
ATOM      3  O   UNL     1     -13.295  14.341  65.430  0.00  0.00    -0.218 OA
ATOM      4  C   UNL     1     -11.096  14.879  65.789  0.00  0.00    +0.221 C 
ATOM      5  O   UNL     1      -9.774  14.432  65.194  0.00  0.00    -0.217 OA
ATOM      6  C   UNL     1     -10.995  13.883  67.148  0.00  0.00    +0.254 C 
ATOM      7  O   UNL     1     -12.364  14.310  67.618  0.00  0.00    -0.213 OA
ATOM      8  C   UNL     1     -11.638  12.418  66.591  0.00  0.00    +0.322 C 
ATOM      9  O   UNL     1     -10.613  12.375  65.450  0.00  0.00    -0.316 OA
ENDROOT
BRANCH   1  11
ATOM     10  O   UNL     1     -13.021  11.868  63.163  0.00  0.00    -0.218 OA
ATOM     11  C   UNL     1     -11.741  11.901  63.517  0.00  0.00    +0.214 C 
ENDBRANCH   1  11
BRANCH   8  12
ATOM     12  O   UNL     1     -10.794  11.582  67.551  0.00  0.00    -0.450 OA
BRANCH  12  13
ATOM     13  C   UNL     1     -11.186  10.486  68.209  0.00  0.00    +0.142 A 
ATOM     14  C   UNL     1     -10.393   9.340  68.239  0.00  0.00    +0.040 A 
ATOM     15  C   UNL     1      -9.959   8.790  69.443  0.00  0.00    +0.045 A 
ATOM     16  C   UNL     1     -10.157   9.484  70.636  0.00  0.00    +0.196 A 
ATOM     17  O   UNL     1      -9.417   9.080  71.699  0.00  0.00    -0.287 OA
ATOM     18  C   UNL     1     -11.349  10.178  70.640  0.00  0.00    +0.045 A 
ATOM     19  C   UNL     1     -11.851  10.661  69.433  0.00  0.00    +0.040 A 
ENDBRANCH  12  13
ENDBRANCH   8  12
TORSDOF 3
ENDMDL
MODEL 8
REMARK VINA RESULT:      -5.9      3.719      5.929
REMARK  Name = 
REMARK  3 active torsions:
REMARK  status: ('A' for Active; 'I' for Inactive)
REMARK    1  A    between atoms: C_2  and  C_3
REMARK    2  A    between atoms: C_5  and  O_6
REMARK    3  A    between atoms: O_6  and  C_7
REMARK                            x       y       z     vdW  Elec       q    Type
REMARK                         _______ _______ _______ _____ _____    ______ ____
ROOT
ATOM      1  C   UNL     1      -9.719  17.900  67.015  0.00  0.00    +0.185 C 
ATOM      2  C   UNL     1      -8.319  18.803  67.293  0.00  0.00    +0.215 C 
ATOM      3  O   UNL     1      -8.237  18.259  68.704  0.00  0.00    -0.218 OA
ATOM      4  C   UNL     1      -7.024  17.828  66.807  0.00  0.00    +0.221 C 
ATOM      5  O   UNL     1      -7.226  18.087  65.326  0.00  0.00    -0.217 OA
ATOM      6  C   UNL     1      -7.539  16.221  66.751  0.00  0.00    +0.254 C 
ATOM      7  O   UNL     1      -7.404  16.078  68.247  0.00  0.00    -0.213 OA
ATOM      8  C   UNL     1      -9.220  16.358  66.912  0.00  0.00    +0.322 C 
ATOM      9  O   UNL     1      -9.284  17.294  65.698  0.00  0.00    -0.316 OA
ENDROOT
BRANCH   1  11
ATOM     10  O   UNL     1      -9.706  20.046  66.633  0.00  0.00    -0.218 OA
ATOM     11  C   UNL     1     -10.567  19.099  66.276  0.00  0.00    +0.214 C 
ENDBRANCH   1  11
BRANCH   8  12
ATOM     12  O   UNL     1      -9.488  15.088  66.106  0.00  0.00    -0.450 OA
BRANCH  12  13
ATOM     13  C   UNL     1     -10.392  14.143  66.385  0.00  0.00    +0.142 A 
ATOM     14  C   UNL     1     -11.759  14.414  66.336  0.00  0.00    +0.040 A 
ATOM     15  C   UNL     1     -12.612  13.690  65.507  0.00  0.00    +0.045 A 
ATOM     16  C   UNL     1     -12.084  12.802  64.570  0.00  0.00    +0.196 A 
ATOM     17  O   UNL     1     -12.919  12.406  63.577  0.00  0.00    -0.287 OA
ATOM     18  C   UNL     1     -10.953  12.166  65.038  0.00  0.00    +0.045 A 
ATOM     19  C   UNL     1     -10.129  12.837  65.942  0.00  0.00    +0.040 A 
ENDBRANCH  12  13
ENDBRANCH   8  12
TORSDOF 3
ENDMDL
MODEL 9
REMARK VINA RESULT:      -5.8      3.367      5.552
REMARK  Name = 
REMARK  3 active torsions:
REMARK  status: ('A' for Active; 'I' for Inactive)
REMARK    1  A    between atoms: C_2  and  C_3
REMARK    2  A    between atoms: C_5  and  O_6
REMARK    3  A    between atoms: O_6  and  C_7
REMARK                            x       y       z     vdW  Elec       q    Type
REMARK                         _______ _______ _______ _____ _____    ______ ____
ROOT
ATOM      1  C   UNL     1     -10.487  18.102  66.848  0.00  0.00    +0.185 C 
ATOM      2  C   UNL     1      -9.595  18.346  68.261  0.00  0.00    +0.215 C 
ATOM      3  O   UNL     1     -10.572  17.487  69.037  0.00  0.00    -0.218 OA
ATOM      4  C   UNL     1      -8.432  17.118  68.303  0.00  0.00    +0.221 C 
ATOM      5  O   UNL     1      -7.520  17.781  67.287  0.00  0.00    -0.217 OA
ATOM      6  C   UNL     1      -8.917  15.868  67.277  0.00  0.00    +0.254 C 
ATOM      7  O   UNL     1      -9.875  15.331  68.311  0.00  0.00    -0.213 OA
ATOM      8  C   UNL     1     -10.212  16.557  66.429  0.00  0.00    +0.322 C 
ATOM      9  O   UNL     1      -9.321  17.716  65.964  0.00  0.00    -0.316 OA
ENDROOT
BRANCH   1  11
ATOM     10  O   UNL     1     -10.967  19.378  65.147  0.00  0.00    -0.218 OA
ATOM     11  C   UNL     1     -10.458  19.665  66.341  0.00  0.00    +0.214 C 
ENDBRANCH   1  11
BRANCH   8  12
ATOM     12  O   UNL     1      -9.967  15.703  65.187  0.00  0.00    -0.450 OA
BRANCH  12  13
ATOM     13  C   UNL     1     -10.693  14.654  64.785  0.00  0.00    +0.142 A 
ATOM     14  C   UNL     1     -10.153  13.369  64.758  0.00  0.00    +0.040 A 
ATOM     15  C   UNL     1     -10.731  12.325  65.476  0.00  0.00    +0.045 A 
ATOM     16  C   UNL     1     -11.756  12.590  66.386  0.00  0.00    +0.196 A 
ATOM     17  O   UNL     1     -12.024  11.616  67.290  0.00  0.00    -0.287 OA
ATOM     18  C   UNL     1     -12.582  13.606  65.954  0.00  0.00    +0.045 A 
ATOM     19  C   UNL     1     -12.047  14.617  65.156  0.00  0.00    +0.040 A 
ENDBRANCH  12  13
ENDBRANCH   8  12
TORSDOF 3
ENDMDL
