MODEL 1
REMARK VINA RESULT:      -7.8      0.000      0.000
REMARK  Name = 
REMARK  2 active torsions:
REMARK  status: ('A' for Active; 'I' for Inactive)
REMARK    1  A    between atoms: C_2  and  C_3
REMARK    2  A    between atoms: C_3  and  C_5
REMARK                            x       y       z     vdW  Elec       q    Type
REMARK                         _______ _______ _______ _____ _____    ______ ____
ROOT
ATOM      1  C   UNL     1     -11.362  14.047  66.894  0.00  0.00    +0.052 C 
ATOM      2  C   UNL     1     -10.762  15.331  66.674  0.00  0.00    +0.009 C 
ATOM      3  C   UNL     1      -9.344  14.982  67.415  0.00  0.00    +0.001 C 
ATOM      4  C   UNL     1      -8.641  16.332  66.645  0.00  0.00    +0.003 C 
ATOM      5  C   UNL     1      -8.991  17.264  68.012  0.00  0.00    +0.038 C 
ATOM      6  C   UNL     1     -10.563  17.793  67.477  0.00  0.00    +0.153 C 
ATOM      7  O   UNL     1     -10.220  17.748  65.976  0.00  0.00    -0.223 OA
ATOM      8  C   UNL     1      -8.219  18.581  67.530  0.00  0.00    +0.036 C 
ATOM      9  C   UNL     1      -7.168  18.292  66.571  0.00  0.00    -0.038 C 
ATOM     10  C   UNL     1      -6.519  19.407  66.214  0.00  0.00    +0.034 C 
ATOM     11  C   UNL     1      -6.487  20.595  67.086  0.00  0.00    +0.195 C 
ATOM     12  C   UNL     1      -6.853  20.272  68.473  0.00  0.00    +0.038 C 
ATOM     13  O   UNL     1      -6.047  21.706  66.727  0.00  0.00    -0.287 OA
ATOM     14  C   UNL     1      -6.347  17.041  66.533  0.00  0.00    +0.022 C 
ATOM     15  C   UNL     1      -9.112  19.678  67.156  0.00  0.00    +0.009 C 
ATOM     16  C   UNL     1      -7.469  19.112  68.722  0.00  0.00    -0.020 C 
ATOM     17  C   UNL     1      -7.170  15.982  67.211  0.00  0.00    +0.004 C 
ATOM     18  C   UNL     1      -9.018  13.975  66.169  0.00  0.00    +0.000 C 
ATOM     19  C   UNL     1     -10.526  15.480  65.234  0.00  0.00    +0.000 C 
ATOM     20  C   UNL     1     -11.267  16.291  67.545  0.00  0.00    +0.033 C 
ATOM     21  C   UNL     1     -10.223  12.906  66.561  0.00  0.00    +0.007 C 
ATOM     22  C   UNL     1      -9.692  12.805  68.133  0.00  0.00    +0.000 C 
ATOM     23  C   UNL     1     -11.932  13.749  68.236  0.00  0.00    +0.007 C 
ENDROOT
BRANCH   1  24
ATOM     24  C   UNL     1     -12.420  13.607  65.923  0.00  0.00    +0.150 C 
ATOM     25  O   UNL     1     -13.153  14.377  65.331  0.00  0.00    -0.296 OA
BRANCH  24  27
ATOM     26  C   UNL     1     -12.385  12.342  64.052  0.00  0.00    +0.008 C 
ATOM     27  C   UNL     1     -12.017  12.425  65.085  0.00  0.00    +0.064 C 
ENDBRANCH  24  27
ENDBRANCH   1  24
TORSDOF 2
ENDMDL
MODEL 2
REMARK VINA RESULT:      -7.7      1.695      3.199
REMARK  Name = 
REMARK  2 active torsions:
REMARK  status: ('A' for Active; 'I' for Inactive)
REMARK    1  A    between atoms: C_2  and  C_3
REMARK    2  A    between atoms: C_3  and  C_5
REMARK                            x       y       z     vdW  Elec       q    Type
REMARK                         _______ _______ _______ _____ _____    ______ ____
ROOT
ATOM      1  C   UNL     1     -10.470  12.487  66.923  0.00  0.00    +0.052 C 
ATOM      2  C   UNL     1      -9.907  13.739  67.338  0.00  0.00    +0.009 C 
ATOM      3  C   UNL     1     -10.257  14.546  65.957  0.00  0.00    +0.001 C 
ATOM      4  C   UNL     1     -10.007  16.016  66.786  0.00  0.00    +0.003 C 
ATOM      5  C   UNL     1      -8.406  16.022  66.244  0.00  0.00    +0.038 C 
ATOM      6  C   UNL     1      -7.747  15.157  67.607  0.00  0.00    +0.153 C 
ATOM      7  O   UNL     1      -8.790  15.674  68.615  0.00  0.00    -0.223 OA
ATOM      8  C   UNL     1      -8.037  17.477  66.800  0.00  0.00    +0.036 C 
ATOM      9  C   UNL     1      -9.203  18.328  66.954  0.00  0.00    -0.038 C 
ATOM     10  C   UNL     1      -8.859  19.547  67.387  0.00  0.00    +0.034 C 
ATOM     11  C   UNL     1      -7.509  20.094  67.163  0.00  0.00    +0.195 C 
ATOM     12  C   UNL     1      -6.787  19.368  66.106  0.00  0.00    +0.038 C 
ATOM     13  O   UNL     1      -7.090  21.143  67.691  0.00  0.00    -0.287 OA
ATOM     14  C   UNL     1     -10.432  18.281  66.100  0.00  0.00    +0.022 C 
ATOM     15  C   UNL     1      -7.133  17.452  67.950  0.00  0.00    +0.009 C 
ATOM     16  C   UNL     1      -7.239  18.169  65.726  0.00  0.00    -0.020 C 
ATOM     17  C   UNL     1     -10.481  16.896  65.518  0.00  0.00    +0.004 C 
ATOM     18  C   UNL     1     -11.832  14.456  66.384  0.00  0.00    +0.000 C 
ATOM     19  C   UNL     1     -10.735  14.271  68.427  0.00  0.00    +0.000 C 
ATOM     20  C   UNL     1      -8.517  13.725  67.272  0.00  0.00    +0.033 C 
ATOM     21  C   UNL     1     -11.913  12.812  66.200  0.00  0.00    +0.007 C 
ATOM     22  C   UNL     1     -11.262  12.899  64.672  0.00  0.00    +0.000 C 
ATOM     23  C   UNL     1      -9.681  11.621  66.007  0.00  0.00    +0.007 C 
ENDROOT
BRANCH   1  24
ATOM     24  C   UNL     1     -10.957  11.561  68.002  0.00  0.00    +0.150 C 
ATOM     25  O   UNL     1     -12.081  11.096  68.034  0.00  0.00    -0.296 OA
BRANCH  24  27
ATOM     26  C   UNL     1      -9.968  10.201  69.510  0.00  0.00    +0.008 C 
ATOM     27  C   UNL     1      -9.911  10.594  68.483  0.00  0.00    +0.064 C 
ENDBRANCH  24  27
ENDBRANCH   1  24
TORSDOF 2
ENDMDL
MODEL 3
REMARK VINA RESULT:      -7.4      1.883      6.879
REMARK  Name = 
REMARK  2 active torsions:
REMARK  status: ('A' for Active; 'I' for Inactive)
REMARK    1  A    between atoms: C_2  and  C_3
REMARK    2  A    between atoms: C_3  and  C_5
REMARK                            x       y       z     vdW  Elec       q    Type
REMARK                         _______ _______ _______ _____ _____    ______ ____
ROOT
ATOM      1  C   UNL     1      -8.633  18.743  67.948  0.00  0.00    +0.052 C 
ATOM      2  C   UNL     1      -8.572  17.322  67.762  0.00  0.00    +0.009 C 
ATOM      3  C   UNL     1     -10.021  17.190  67.009  0.00  0.00    +0.001 C 
ATOM      4  C   UNL     1      -9.557  15.648  66.447  0.00  0.00    +0.003 C 
ATOM      5  C   UNL     1     -10.322  14.956  67.787  0.00  0.00    +0.038 C 
ATOM      6  C   UNL     1      -8.926  14.982  68.830  0.00  0.00    +0.153 C 
ATOM      7  O   UNL     1      -7.900  14.839  67.691  0.00  0.00    -0.223 OA
ATOM      8  C   UNL     1     -10.137  13.433  67.329  0.00  0.00    +0.036 C 
ATOM      9  C   UNL     1      -9.986  13.297  65.891  0.00  0.00    -0.038 C 
ATOM     10  C   UNL     1      -9.869  12.012  65.537  0.00  0.00    +0.034 C 
ATOM     11  C   UNL     1     -10.399  10.926  66.380  0.00  0.00    +0.195 C 
ATOM     12  C   UNL     1     -11.382  11.416  67.359  0.00  0.00    +0.038 C 
ATOM     13  O   UNL     1     -10.166   9.717  66.181  0.00  0.00    -0.287 OA
ATOM     14  C   UNL     1     -10.619  14.184  64.864  0.00  0.00    +0.022 C 
ATOM     15  C   UNL     1      -9.155  12.698  68.126  0.00  0.00    +0.009 C 
ATOM     16  C   UNL     1     -11.437  12.728  67.612  0.00  0.00    -0.020 C 
ATOM     17  C   UNL     1     -10.892  15.491  65.553  0.00  0.00    +0.004 C 
ATOM     18  C   UNL     1      -9.352  17.966  65.734  0.00  0.00    +0.000 C 
ATOM     19  C   UNL     1      -7.504  17.037  66.797  0.00  0.00    +0.000 C 
ATOM     20  C   UNL     1      -8.842  16.636  68.941  0.00  0.00    +0.033 C 
ATOM     21  C   UNL     1      -9.183  19.402  66.544  0.00  0.00    +0.007 C 
ATOM     22  C   UNL     1     -10.776  19.382  67.019  0.00  0.00    +0.000 C 
ATOM     23  C   UNL     1      -9.461  19.279  69.063  0.00  0.00    +0.007 C 
ENDROOT
BRANCH   1  24
ATOM     24  C   UNL     1      -7.328  19.479  68.053  0.00  0.00    +0.150 C 
ATOM     25  O   UNL     1      -7.045  20.449  67.374  0.00  0.00    -0.296 OA
BRANCH  24  27
ATOM     26  C   UNL     1      -5.910  20.189  69.661  0.00  0.00    +0.008 C 
ATOM     27  C   UNL     1      -6.802  19.578  69.458  0.00  0.00    +0.064 C 
ENDBRANCH  24  27
ENDBRANCH   1  24
TORSDOF 2
ENDMDL
MODEL 4
REMARK VINA RESULT:      -7.2      4.345      7.171
REMARK  Name = 
REMARK  2 active torsions:
REMARK  status: ('A' for Active; 'I' for Inactive)
REMARK    1  A    between atoms: C_2  and  C_3
REMARK    2  A    between atoms: C_3  and  C_5
REMARK                            x       y       z     vdW  Elec       q    Type
REMARK                         _______ _______ _______ _____ _____    ______ ____
ROOT
ATOM      1  C   UNL     1      -9.253   8.657  69.620  0.00  0.00    +0.052 C 
ATOM      2  C   UNL     1     -10.065   9.577  68.877  0.00  0.00    +0.009 C 
ATOM      3  C   UNL     1      -8.979   9.824  67.675  0.00  0.00    +0.001 C 
ATOM      4  C   UNL     1     -10.233  10.469  66.714  0.00  0.00    +0.003 C 
ATOM      5  C   UNL     1      -9.813  12.017  67.250  0.00  0.00    +0.038 C 
ATOM      6  C   UNL     1     -10.881  12.030  68.628  0.00  0.00    +0.153 C 
ATOM      7  O   UNL     1     -11.937  11.106  67.993  0.00  0.00    -0.223 OA
ATOM      8  C   UNL     1     -10.810  12.814  66.283  0.00  0.00    +0.036 C 
ATOM      9  C   UNL     1     -11.149  12.061  65.089  0.00  0.00    -0.038 C 
ATOM     10  C   UNL     1     -11.954  12.767  64.285  0.00  0.00    +0.034 C 
ATOM     11  C   UNL     1     -11.989  14.240  64.325  0.00  0.00    +0.195 C 
ATOM     12  C   UNL     1     -10.804  14.802  64.992  0.00  0.00    +0.038 C 
ATOM     13  O   UNL     1     -12.837  14.930  63.725  0.00  0.00    -0.287 OA
ATOM     14  C   UNL     1     -10.252  11.087  64.391  0.00  0.00    +0.022 C 
ATOM     15  C   UNL     1     -11.948  13.413  66.980  0.00  0.00    +0.009 C 
ATOM     16  C   UNL     1     -10.048  13.997  65.746  0.00  0.00    -0.020 C 
ATOM     17  C   UNL     1      -9.271  10.611  65.425  0.00  0.00    +0.004 C 
ATOM     18  C   UNL     1      -9.266   8.287  67.194  0.00  0.00    +0.000 C 
ATOM     19  C   UNL     1     -11.213   8.838  68.341  0.00  0.00    +0.000 C 
ATOM     20  C   UNL     1     -10.078  10.840  69.461  0.00  0.00    +0.033 C 
ATOM     21  C   UNL     1      -8.581   7.610  68.542  0.00  0.00    +0.007 C 
ATOM     22  C   UNL     1      -7.195   8.508  68.353  0.00  0.00    +0.000 C 
ATOM     23  C   UNL     1      -8.163   9.201  70.474  0.00  0.00    +0.007 C 
ENDROOT
BRANCH   1  24
ATOM     24  C   UNL     1      -9.965   7.664  70.494  0.00  0.00    +0.150 C 
ATOM     25  O   UNL     1      -9.778   6.463  70.439  0.00  0.00    -0.296 OA
BRANCH  24  27
ATOM     26  C   UNL     1     -11.232   8.266  72.264  0.00  0.00    +0.008 C 
ATOM     27  C   UNL     1     -10.201   8.154  71.896  0.00  0.00    +0.064 C 
ENDBRANCH  24  27
ENDBRANCH   1  24
TORSDOF 2
ENDMDL
MODEL 5
REMARK VINA RESULT:      -7.1      3.976      6.765
REMARK  Name = 
REMARK  2 active torsions:
REMARK  status: ('A' for Active; 'I' for Inactive)
REMARK    1  A    between atoms: C_2  and  C_3
REMARK    2  A    between atoms: C_3  and  C_5
REMARK                            x       y       z     vdW  Elec       q    Type
REMARK                         _______ _______ _______ _____ _____    ______ ____
ROOT
ATOM      1  C   UNL     1      -9.227   8.251  67.977  0.00  0.00    +0.052 C 
ATOM      2  C   UNL     1      -9.284   9.460  67.207  0.00  0.00    +0.009 C 
ATOM      3  C   UNL     1     -10.395  10.207  68.151  0.00  0.00    +0.001 C 
ATOM      4  C   UNL     1      -9.964  11.694  67.434  0.00  0.00    +0.003 C 
ATOM      5  C   UNL     1     -11.220  11.492  66.319  0.00  0.00    +0.038 C 
ATOM      6  C   UNL     1     -10.270  10.654  65.121  0.00  0.00    +0.153 C 
ATOM      7  O   UNL     1      -8.944  11.345  65.489  0.00  0.00    -0.223 OA
ATOM      8  C   UNL     1     -11.082  12.933  65.635  0.00  0.00    +0.036 C 
ATOM      9  C   UNL     1     -10.469  13.912  66.516  0.00  0.00    -0.038 C 
ATOM     10  C   UNL     1     -10.400  15.113  65.930  0.00  0.00    +0.034 C 
ATOM     11  C   UNL     1     -11.317  15.496  64.841  0.00  0.00    +0.195 C 
ATOM     12  C   UNL     1     -12.504  14.629  64.788  0.00  0.00    +0.038 C 
ATOM     13  O   UNL     1     -11.183  16.527  64.152  0.00  0.00    -0.287 OA
ATOM     14  C   UNL     1     -10.599  13.940  68.007  0.00  0.00    +0.022 C 
ATOM     15  C   UNL     1     -10.529  12.888  64.282  0.00  0.00    +0.009 C 
ATOM     16  C   UNL     1     -12.478  13.462  65.441  0.00  0.00    -0.020 C 
ATOM     17  C   UNL     1     -10.925  12.533  68.423  0.00  0.00    +0.004 C 
ATOM     18  C   UNL     1      -9.242  10.315  69.305  0.00  0.00    +0.000 C 
ATOM     19  C   UNL     1      -7.996  10.148  67.348  0.00  0.00    +0.000 C 
ATOM     20  C   UNL     1     -10.023   9.293  66.040  0.00  0.00    +0.033 C 
ATOM     21  C   UNL     1      -9.179   8.679  69.565  0.00  0.00    +0.007 C 
ATOM     22  C   UNL     1     -10.829   8.595  69.760  0.00  0.00    +0.000 C 
ATOM     23  C   UNL     1     -10.311   7.246  67.803  0.00  0.00    +0.007 C 
ENDROOT
BRANCH   1  24
ATOM     24  C   UNL     1      -7.954   7.456  67.914  0.00  0.00    +0.150 C 
ATOM     25  O   UNL     1      -7.341   7.087  68.899  0.00  0.00    -0.296 OA
BRANCH  24  27
ATOM     26  C   UNL     1      -7.238   6.596  65.953  0.00  0.00    +0.008 C 
ATOM     27  C   UNL     1      -7.926   6.448  66.799  0.00  0.00    +0.064 C 
ENDBRANCH  24  27
ENDBRANCH   1  24
TORSDOF 2
ENDMDL
MODEL 6
REMARK VINA RESULT:      -7.1      1.892      7.003
REMARK  Name = 
REMARK  2 active torsions:
REMARK  status: ('A' for Active; 'I' for Inactive)
REMARK    1  A    between atoms: C_2  and  C_3
REMARK    2  A    between atoms: C_3  and  C_5
REMARK                            x       y       z     vdW  Elec       q    Type
REMARK                         _______ _______ _______ _____ _____    ______ ____
ROOT
ATOM      1  C   UNL     1      -6.204  18.953  68.074  0.00  0.00    +0.052 C 
ATOM      2  C   UNL     1      -6.835  17.684  67.852  0.00  0.00    +0.009 C 
ATOM      3  C   UNL     1      -8.289  18.295  67.411  0.00  0.00    +0.001 C 
ATOM      4  C   UNL     1      -8.690  16.780  66.737  0.00  0.00    +0.003 C 
ATOM      5  C   UNL     1      -9.441  16.359  68.192  0.00  0.00    +0.038 C 
ATOM      6  C   UNL     1      -8.032  15.645  68.927  0.00  0.00    +0.153 C 
ATOM      7  O   UNL     1      -7.401  15.187  67.599  0.00  0.00    -0.223 OA
ATOM      8  C   UNL     1     -10.058  14.974  67.678  0.00  0.00    +0.036 C 
ATOM      9  C   UNL     1     -10.239  14.945  66.238  0.00  0.00    -0.038 C 
ATOM     10  C   UNL     1     -10.788  13.790  65.843  0.00  0.00    +0.034 C 
ATOM     11  C   UNL     1     -11.602  12.968  66.757  0.00  0.00    +0.195 C 
ATOM     12  C   UNL     1     -12.063  13.734  67.926  0.00  0.00    +0.038 C 
ATOM     13  O   UNL     1     -11.988  11.812  66.492  0.00  0.00    -0.287 OA
ATOM     14  C   UNL     1     -10.563  16.127  65.379  0.00  0.00    +0.022 C 
ATOM     15  C   UNL     1      -9.401  13.796  68.242  0.00  0.00    +0.009 C 
ATOM     16  C   UNL     1     -11.465  14.896  68.209  0.00  0.00    -0.020 C 
ATOM     17  C   UNL     1     -10.081  17.334  66.133  0.00  0.00    +0.004 C 
ATOM     18  C   UNL     1      -7.573  18.827  66.040  0.00  0.00    +0.000 C 
ATOM     19  C   UNL     1      -6.203  17.061  66.684  0.00  0.00    +0.000 C 
ATOM     20  C   UNL     1      -7.180  17.065  69.049  0.00  0.00    +0.033 C 
ATOM     21  C   UNL     1      -6.625  19.938  66.824  0.00  0.00    +0.007 C 
ATOM     22  C   UNL     1      -7.940  20.578  67.616  0.00  0.00    +0.000 C 
ATOM     23  C   UNL     1      -6.486  19.675  69.344  0.00  0.00    +0.007 C 
ENDROOT
BRANCH   1  24
ATOM     24  C   UNL     1      -4.711  19.014  67.922  0.00  0.00    +0.150 C 
ATOM     25  O   UNL     1      -4.138  19.815  67.207  0.00  0.00    -0.296 OA
BRANCH  24  27
ATOM     26  C   UNL     1      -3.264  17.881  69.235  0.00  0.00    +0.008 C 
ATOM     27  C   UNL     1      -3.963  18.730  69.195  0.00  0.00    +0.064 C 
ENDBRANCH  24  27
ENDBRANCH   1  24
TORSDOF 2
ENDMDL
MODEL 7
REMARK VINA RESULT:      -7.0      5.100      8.050
REMARK  Name = 
REMARK  2 active torsions:
REMARK  status: ('A' for Active; 'I' for Inactive)
REMARK    1  A    between atoms: C_2  and  C_3
REMARK    2  A    between atoms: C_3  and  C_5
REMARK                            x       y       z     vdW  Elec       q    Type
REMARK                         _______ _______ _______ _____ _____    ______ ____
ROOT
ATOM      1  C   UNL     1     -10.527   7.186  70.589  0.00  0.00    +0.052 C 
ATOM      2  C   UNL     1     -10.162   8.408  69.933  0.00  0.00    +0.009 C 
ATOM      3  C   UNL     1     -11.623   9.129  70.100  0.00  0.00    +0.001 C 
ATOM      4  C   UNL     1     -10.888  10.631  69.764  0.00  0.00    +0.003 C 
ATOM      5  C   UNL     1     -11.299  10.441  68.135  0.00  0.00    +0.038 C 
ATOM      6  C   UNL     1      -9.828   9.632  67.667  0.00  0.00    +0.153 C 
ATOM      7  O   UNL     1      -8.947  10.326  68.722  0.00  0.00    -0.223 OA
ATOM      8  C   UNL     1     -10.825  11.895  67.662  0.00  0.00    +0.036 C 
ATOM      9  C   UNL     1     -10.828  12.862  68.745  0.00  0.00    -0.038 C 
ATOM     10  C   UNL     1     -10.461  14.074  68.312  0.00  0.00    +0.034 C 
ATOM     11  C   UNL     1     -10.616  14.470  66.901  0.00  0.00    +0.195 C 
ATOM     12  C   UNL     1     -11.555  13.595  66.181  0.00  0.00    +0.038 C 
ATOM     13  O   UNL     1     -10.136  15.515  66.417  0.00  0.00    -0.287 OA
ATOM     14  C   UNL     1     -11.772  12.862  69.907  0.00  0.00    +0.022 C 
ATOM     15  C   UNL     1      -9.608  11.879  66.851  0.00  0.00    +0.009 C 
ATOM     16  C   UNL     1     -11.881  12.418  66.724  0.00  0.00    -0.020 C 
ATOM     17  C   UNL     1     -12.252  11.446  70.053  0.00  0.00    +0.004 C 
ATOM     18  C   UNL     1     -11.317   9.224  71.703  0.00  0.00    +0.000 C 
ATOM     19  C   UNL     1      -9.186   9.102  70.780  0.00  0.00    +0.000 C 
ATOM     20  C   UNL     1     -10.116   8.256  68.551  0.00  0.00    +0.033 C 
ATOM     21  C   UNL     1     -11.385   7.585  71.936  0.00  0.00    +0.007 C 
ATOM     22  C   UNL     1     -12.858   7.485  71.171  0.00  0.00    +0.000 C 
ATOM     23  C   UNL     1     -11.310   6.176  69.827  0.00  0.00    +0.007 C 
ENDROOT
BRANCH   1  24
ATOM     24  C   UNL     1      -9.424   6.401  71.243  0.00  0.00    +0.150 C 
ATOM     25  O   UNL     1      -9.453   6.038  72.404  0.00  0.00    -0.296 OA
BRANCH  24  27
ATOM     26  C   UNL     1      -7.706   5.473  70.108  0.00  0.00    +0.008 C 
ATOM     27  C   UNL     1      -8.780   5.392  70.333  0.00  0.00    +0.064 C 
ENDBRANCH  24  27
ENDBRANCH   1  24
TORSDOF 2
ENDMDL
MODEL 8
REMARK VINA RESULT:      -6.9      1.604      2.122
REMARK  Name = 
REMARK  2 active torsions:
REMARK  status: ('A' for Active; 'I' for Inactive)
REMARK    1  A    between atoms: C_2  and  C_3
REMARK    2  A    between atoms: C_3  and  C_5
REMARK                            x       y       z     vdW  Elec       q    Type
REMARK                         _______ _______ _______ _____ _____    ______ ____
ROOT
ATOM      1  C   UNL     1     -10.644  15.105  67.778  0.00  0.00    +0.052 C 
ATOM      2  C   UNL     1      -9.654  15.972  67.207  0.00  0.00    +0.009 C 
ATOM      3  C   UNL     1      -8.992  16.431  68.633  0.00  0.00    +0.001 C 
ATOM      4  C   UNL     1      -7.621  16.990  67.785  0.00  0.00    +0.003 C 
ATOM      5  C   UNL     1      -8.308  18.534  67.741  0.00  0.00    +0.038 C 
ATOM      6  C   UNL     1      -9.143  18.322  66.226  0.00  0.00    +0.153 C 
ATOM      7  O   UNL     1      -8.122  17.326  65.644  0.00  0.00    -0.223 OA
ATOM      8  C   UNL     1      -7.037  19.274  67.107  0.00  0.00    +0.036 C 
ATOM      9  C   UNL     1      -5.793  18.573  67.374  0.00  0.00    -0.038 C 
ATOM     10  C   UNL     1      -4.747  19.232  66.862  0.00  0.00    +0.034 C 
ATOM     11  C   UNL     1      -4.796  20.684  66.612  0.00  0.00    +0.195 C 
ATOM     12  C   UNL     1      -5.892  21.335  67.347  0.00  0.00    +0.038 C 
ATOM     13  O   UNL     1      -3.919  21.309  65.983  0.00  0.00    -0.287 OA
ATOM     14  C   UNL     1      -5.497  17.765  68.599  0.00  0.00    +0.022 C 
ATOM     15  C   UNL     1      -7.231  19.681  65.716  0.00  0.00    +0.009 C 
ATOM     16  C   UNL     1      -6.871  20.574  67.848  0.00  0.00    -0.020 C 
ATOM     17  C   UNL     1      -6.829  17.337  69.148  0.00  0.00    +0.004 C 
ATOM     18  C   UNL     1      -8.410  14.910  68.774  0.00  0.00    +0.000 C 
ATOM     19  C   UNL     1      -8.691  15.142  66.477  0.00  0.00    +0.000 C 
ATOM     20  C   UNL     1     -10.207  17.179  66.790  0.00  0.00    +0.033 C 
ATOM     21  C   UNL     1      -9.908  14.225  68.958  0.00  0.00    +0.007 C 
ATOM     22  C   UNL     1     -10.305  15.293  70.168  0.00  0.00    +0.000 C 
ATOM     23  C   UNL     1     -11.873  15.713  68.356  0.00  0.00    +0.007 C 
ENDROOT
BRANCH   1  24
ATOM     24  C   UNL     1     -11.142  13.974  66.924  0.00  0.00    +0.150 C 
ATOM     25  O   UNL     1     -11.157  12.813  67.285  0.00  0.00    -0.296 OA
BRANCH  24  27
ATOM     26  C   UNL     1     -12.252  14.275  64.980  0.00  0.00    +0.008 C 
ATOM     27  C   UNL     1     -12.330  14.336  66.076  0.00  0.00    +0.064 C 
ENDBRANCH  24  27
ENDBRANCH   1  24
TORSDOF 2
ENDMDL
MODEL 9
REMARK VINA RESULT:      -6.8      3.995      8.069
REMARK  Name = 
REMARK  2 active torsions:
REMARK  status: ('A' for Active; 'I' for Inactive)
REMARK    1  A    between atoms: C_2  and  C_3
REMARK    2  A    between atoms: C_3  and  C_5
REMARK                            x       y       z     vdW  Elec       q    Type
REMARK                         _______ _______ _______ _____ _____    ______ ____
ROOT
ATOM      1  C   UNL     1     -11.029  13.640  66.017  0.00  0.00    +0.052 C 
ATOM      2  C   UNL     1     -10.413  12.669  66.873  0.00  0.00    +0.009 C 
ATOM      3  C   UNL     1     -10.863  11.361  65.994  0.00  0.00    +0.001 C 
ATOM      4  C   UNL     1      -9.686  10.439  66.816  0.00  0.00    +0.003 C 
ATOM      5  C   UNL     1     -10.871   9.957  67.921  0.00  0.00    +0.038 C 
ATOM      6  C   UNL     1     -10.616  11.262  69.048  0.00  0.00    +0.153 C 
ATOM      7  O   UNL     1      -9.120  11.433  68.723  0.00  0.00    -0.223 OA
ATOM      8  C   UNL     1      -9.960   8.902  68.708  0.00  0.00    +0.036 C 
ATOM      9  C   UNL     1      -8.866   8.396  67.898  0.00  0.00    -0.038 C 
ATOM     10  C   UNL     1      -8.144   7.491  68.570  0.00  0.00    +0.034 C 
ATOM     11  C   UNL     1      -8.717   6.723  69.690  0.00  0.00    +0.195 C 
ATOM     12  C   UNL     1     -10.188   6.755  69.687  0.00  0.00    +0.038 C 
ATOM     13  O   UNL     1      -8.042   6.001  70.452  0.00  0.00    -0.287 OA
ATOM     14  C   UNL     1      -8.901   8.203  66.414  0.00  0.00    +0.022 C 
ATOM     15  C   UNL     1      -9.582   9.342  70.051  0.00  0.00    +0.009 C 
ATOM     16  C   UNL     1     -10.809   7.682  68.950  0.00  0.00    -0.020 C 
ATOM     17  C   UNL     1      -9.957   9.140  65.897  0.00  0.00    +0.004 C 
ATOM     18  C   UNL     1      -9.813  11.860  64.843  0.00  0.00    +0.000 C 
ATOM     19  C   UNL     1      -8.959  12.835  66.775  0.00  0.00    +0.000 C 
ATOM     20  C   UNL     1     -11.157  12.457  68.030  0.00  0.00    +0.033 C 
ATOM     21  C   UNL     1     -10.687  13.216  64.463  0.00  0.00    +0.007 C 
ATOM     22  C   UNL     1     -12.080  12.327  64.274  0.00  0.00    +0.000 C 
ATOM     23  C   UNL     1     -12.498  13.852  66.123  0.00  0.00    +0.007 C 
ENDROOT
BRANCH   1  24
ATOM     24  C   UNL     1     -10.442  15.023  66.012  0.00  0.00    +0.150 C 
ATOM     25  O   UNL     1     -10.228  15.661  64.998  0.00  0.00    -0.296 OA
BRANCH  24  27
ATOM     26  C   UNL     1     -10.173  16.333  67.832  0.00  0.00    +0.008 C 
ATOM     27  C   UNL     1     -10.912  15.882  67.153  0.00  0.00    +0.064 C 
ENDBRANCH  24  27
ENDBRANCH   1  24
TORSDOF 2
ENDMDL
