MODEL 1
REMARK VINA RESULT:      -6.5      0.000      0.000
REMARK  Name = 
REMARK  2 active torsions:
REMARK  status: ('A' for Active; 'I' for Inactive)
REMARK    1  A    between atoms: C_2  and  C_3
REMARK    2  A    between atoms: C_13  and  O_14
REMARK                            x       y       z     vdW  Elec       q    Type
REMARK                         _______ _______ _______ _____ _____    ______ ____
ROOT
ATOM      1  C   UNL     1      -9.119  18.172  67.802  0.00  0.00    +0.180 C 
ATOM      2  C   UNL     1      -9.672  16.830  68.120  0.00  0.00    +0.037 C 
ATOM      3  C   UNL     1     -10.074  16.547  66.565  0.00  0.00    +0.004 C 
ATOM      4  C   UNL     1     -10.114  14.868  66.791  0.00  0.00    +0.004 C 
ATOM      5  C   UNL     1     -11.702  14.883  67.399  0.00  0.00    +0.022 C 
ATOM      6  C   UNL     1     -11.223  15.221  68.930  0.00  0.00    +0.004 C 
ATOM      7  C   UNL     1     -11.691  13.287  67.594  0.00  0.00    -0.026 A 
ATOM      8  C   UNL     1     -11.760  12.775  66.299  0.00  0.00    -0.023 A 
ATOM      9  C   UNL     1     -11.334  11.485  66.071  0.00  0.00    +0.032 A 
ATOM     10  C   UNL     1     -10.639  10.812  67.064  0.00  0.00    +0.138 A 
ATOM     11  C   UNL     1     -10.578  11.354  68.340  0.00  0.00    +0.037 A 
ATOM     12  C   UNL     1     -11.762  13.776  65.182  0.00  0.00    +0.026 C 
ATOM     13  C   UNL     1     -10.836  12.715  68.470  0.00  0.00    -0.001 A 
ATOM     14  C   UNL     1     -10.576  14.645  65.267  0.00  0.00    +0.005 C 
ATOM     15  C   UNL     1      -8.495  16.509  66.158  0.00  0.00    +0.004 C 
ATOM     16  C   UNL     1      -8.584  15.899  68.483  0.00  0.00    +0.003 C 
ATOM     17  C   UNL     1     -10.950  16.721  68.818  0.00  0.00    +0.004 C 
ATOM     18  C   UNL     1      -7.954  17.685  66.931  0.00  0.00    +0.043 C 
ATOM     19  O   UNL     1      -8.631  18.882  68.865  0.00  0.00    -0.212 OA
ENDROOT
BRANCH   1  21
ATOM     20  C   UNL     1     -10.536  19.666  66.358  0.00  0.00    -0.012 C 
ATOM     21  C   UNL     1      -9.985  18.964  66.909  0.00  0.00    -0.049 C 
ENDBRANCH   1  21
BRANCH  10  22
ATOM     22  O   UNL     1      -9.855   9.721  66.681  0.00  0.00    -0.471 OA
ATOM     23  C   UNL     1      -9.522   9.546  65.317  0.00  0.00    +0.252 C 
ENDBRANCH  10  22
TORSDOF 2
ENDMDL
MODEL 2
REMARK VINA RESULT:      -6.4      2.004      6.534
REMARK  Name = 
REMARK  2 active torsions:
REMARK  status: ('A' for Active; 'I' for Inactive)
REMARK    1  A    between atoms: C_2  and  C_3
REMARK    2  A    between atoms: C_13  and  O_14
REMARK                            x       y       z     vdW  Elec       q    Type
REMARK                         _______ _______ _______ _____ _____    ______ ____
ROOT
ATOM      1  C   UNL     1     -11.219  13.746  67.580  0.00  0.00    +0.180 C 
ATOM      2  C   UNL     1      -9.975  14.554  67.661  0.00  0.00    +0.037 C 
ATOM      3  C   UNL     1     -10.763  15.937  67.303  0.00  0.00    +0.004 C 
ATOM      4  C   UNL     1      -9.549  16.905  67.983  0.00  0.00    +0.004 C 
ATOM      5  C   UNL     1      -8.588  16.865  66.581  0.00  0.00    +0.022 C 
ATOM      6  C   UNL     1      -7.877  15.443  66.984  0.00  0.00    +0.004 C 
ATOM      7  C   UNL     1      -7.464  17.787  67.270  0.00  0.00    -0.026 A 
ATOM      8  C   UNL     1      -8.040  19.056  67.328  0.00  0.00    -0.023 A 
ATOM      9  C   UNL     1      -7.548  19.968  68.236  0.00  0.00    +0.032 A 
ATOM     10  C   UNL     1      -6.665  19.543  69.216  0.00  0.00    +0.138 A 
ATOM     11  C   UNL     1      -6.119  18.270  69.138  0.00  0.00    +0.037 A 
ATOM     12  C   UNL     1      -9.450  19.175  66.829  0.00  0.00    +0.026 C 
ATOM     13  C   UNL     1      -6.782  17.338  68.346  0.00  0.00    -0.001 A 
ATOM     14  C   UNL     1     -10.332  18.240  67.549  0.00  0.00    +0.005 C 
ATOM     15  C   UNL     1     -11.565  15.852  68.721  0.00  0.00    +0.004 C 
ATOM     16  C   UNL     1      -9.512  14.645  69.061  0.00  0.00    +0.003 C 
ATOM     17  C   UNL     1      -8.978  14.455  66.599  0.00  0.00    +0.004 C 
ATOM     18  C   UNL     1     -11.931  14.391  68.777  0.00  0.00    +0.043 C 
ATOM     19  O   UNL     1     -11.073  12.403  67.803  0.00  0.00    -0.212 OA
ENDROOT
BRANCH   1  21
ATOM     20  C   UNL     1     -12.637  14.117  65.536  0.00  0.00    -0.012 C 
ATOM     21  C   UNL     1     -12.047  14.064  66.402  0.00  0.00    -0.049 C 
ENDBRANCH   1  21
BRANCH  10  22
ATOM     22  O   UNL     1      -6.527  20.342  70.355  0.00  0.00    -0.471 OA
ATOM     23  C   UNL     1      -5.648  19.939  71.388  0.00  0.00    +0.252 C 
ENDBRANCH  10  22
TORSDOF 2
ENDMDL
MODEL 3
REMARK VINA RESULT:      -6.2      2.298      3.745
REMARK  Name = 
REMARK  2 active torsions:
REMARK  status: ('A' for Active; 'I' for Inactive)
REMARK    1  A    between atoms: C_2  and  C_3
REMARK    2  A    between atoms: C_13  and  O_14
REMARK                            x       y       z     vdW  Elec       q    Type
REMARK                         _______ _______ _______ _____ _____    ______ ____
ROOT
ATOM      1  C   UNL     1      -6.732  20.261  66.926  0.00  0.00    +0.180 C 
ATOM      2  C   UNL     1      -7.972  19.548  67.327  0.00  0.00    +0.037 C 
ATOM      3  C   UNL     1      -7.648  18.284  66.350  0.00  0.00    +0.004 C 
ATOM      4  C   UNL     1      -8.657  17.239  67.223  0.00  0.00    +0.004 C 
ATOM      5  C   UNL     1     -10.061  17.752  66.412  0.00  0.00    +0.022 C 
ATOM      6  C   UNL     1     -10.291  19.035  67.406  0.00  0.00    +0.004 C 
ATOM      7  C   UNL     1     -10.978  16.742  67.266  0.00  0.00    -0.026 A 
ATOM      8  C   UNL     1     -10.663  15.478  66.769  0.00  0.00    -0.023 A 
ATOM      9  C   UNL     1     -10.922  14.374  67.550  0.00  0.00    +0.032 A 
ATOM     10  C   UNL     1     -11.265  14.548  68.882  0.00  0.00    +0.138 A 
ATOM     11  C   UNL     1     -11.559  15.820  69.351  0.00  0.00    +0.037 A 
ATOM     12  C   UNL     1      -9.603  15.420  65.710  0.00  0.00    +0.026 C 
ATOM     13  C   UNL     1     -11.097  16.899  68.603  0.00  0.00    -0.001 A 
ATOM     14  C   UNL     1      -8.358  16.043  66.191  0.00  0.00    +0.005 C 
ATOM     15  C   UNL     1      -6.358  17.896  67.271  0.00  0.00    +0.004 C 
ATOM     16  C   UNL     1      -7.866  19.079  68.725  0.00  0.00    +0.003 C 
ATOM     17  C   UNL     1      -9.266  20.019  66.843  0.00  0.00    +0.004 C 
ATOM     18  C   UNL     1      -5.742  19.249  67.517  0.00  0.00    +0.043 C 
ATOM     19  O   UNL     1      -6.535  21.486  67.506  0.00  0.00    -0.212 OA
ENDROOT
BRANCH   1  21
ATOM     20  C   UNL     1      -6.243  20.393  64.463  0.00  0.00    -0.012 C 
ATOM     21  C   UNL     1      -6.497  20.251  65.471  0.00  0.00    -0.049 C 
ENDBRANCH   1  21
BRANCH  10  22
ATOM     22  O   UNL     1     -11.093  13.460  69.743  0.00  0.00    -0.471 OA
ATOM     23  C   UNL     1     -11.782  12.251  69.484  0.00  0.00    +0.252 C 
ENDBRANCH  10  22
TORSDOF 2
ENDMDL
MODEL 4
REMARK VINA RESULT:      -6.2      1.558      2.007
REMARK  Name = 
REMARK  2 active torsions:
REMARK  status: ('A' for Active; 'I' for Inactive)
REMARK    1  A    between atoms: C_2  and  C_3
REMARK    2  A    between atoms: C_13  and  O_14
REMARK                            x       y       z     vdW  Elec       q    Type
REMARK                         _______ _______ _______ _____ _____    ______ ____
ROOT
ATOM      1  C   UNL     1      -8.318  16.926  68.420  0.00  0.00    +0.180 C 
ATOM      2  C   UNL     1      -8.930  15.625  68.044  0.00  0.00    +0.037 C 
ATOM      3  C   UNL     1      -9.777  16.293  66.821  0.00  0.00    +0.004 C 
ATOM      4  C   UNL     1      -9.967  14.808  66.027  0.00  0.00    +0.004 C 
ATOM      5  C   UNL     1     -11.311  14.360  66.968  0.00  0.00    +0.022 C 
ATOM      6  C   UNL     1     -10.390  13.755  68.181  0.00  0.00    +0.004 C 
ATOM      7  C   UNL     1     -11.452  12.963  66.183  0.00  0.00    -0.026 A 
ATOM      8  C   UNL     1     -11.939  13.315  64.925  0.00  0.00    -0.023 A 
ATOM      9  C   UNL     1     -11.761  12.441  63.875  0.00  0.00    +0.032 A 
ATOM     10  C   UNL     1     -10.912  11.356  64.030  0.00  0.00    +0.138 A 
ATOM     11  C   UNL     1     -10.433  11.038  65.293  0.00  0.00    +0.037 A 
ATOM     12  C   UNL     1     -12.120  14.780  64.663  0.00  0.00    +0.026 C 
ATOM     13  C   UNL     1     -10.469  12.038  66.260  0.00  0.00    -0.001 A 
ATOM     14  C   UNL     1     -10.855  15.503  64.881  0.00  0.00    +0.005 C 
ATOM     15  C   UNL     1      -8.389  16.604  66.023  0.00  0.00    +0.004 C 
ATOM     16  C   UNL     1      -7.912  14.730  67.454  0.00  0.00    +0.003 C 
ATOM     17  C   UNL     1      -9.968  15.042  68.889  0.00  0.00    +0.004 C 
ATOM     18  C   UNL     1      -7.510  17.124  67.131  0.00  0.00    +0.043 C 
ATOM     19  O   UNL     1      -7.469  16.896  69.493  0.00  0.00    -0.212 OA
ENDROOT
BRANCH   1  21
ATOM     20  C   UNL     1      -9.845  18.919  68.560  0.00  0.00    -0.012 C 
ATOM     21  C   UNL     1      -9.287  18.036  68.462  0.00  0.00    -0.049 C 
ENDBRANCH   1  21
BRANCH  10  22
ATOM     22  O   UNL     1     -10.409  10.756  62.872  0.00  0.00    -0.471 OA
ATOM     23  C   UNL     1      -9.023  10.492  62.768  0.00  0.00    +0.252 C 
ENDBRANCH  10  22
TORSDOF 2
ENDMDL
MODEL 5
REMARK VINA RESULT:      -6.1      1.621      6.337
REMARK  Name = 
REMARK  2 active torsions:
REMARK  status: ('A' for Active; 'I' for Inactive)
REMARK    1  A    between atoms: C_2  and  C_3
REMARK    2  A    between atoms: C_13  and  O_14
REMARK                            x       y       z     vdW  Elec       q    Type
REMARK                         _______ _______ _______ _____ _____    ______ ____
ROOT
ATOM      1  C   UNL     1     -11.779  12.772  65.598  0.00  0.00    +0.180 C 
ATOM      2  C   UNL     1     -11.585  14.029  66.365  0.00  0.00    +0.037 C 
ATOM      3  C   UNL     1      -9.981  13.776  66.515  0.00  0.00    +0.004 C 
ATOM      4  C   UNL     1      -9.663  15.415  66.807  0.00  0.00    +0.004 C 
ATOM      5  C   UNL     1     -10.030  15.297  68.464  0.00  0.00    +0.022 C 
ATOM      6  C   UNL     1     -11.638  15.505  68.228  0.00  0.00    +0.004 C 
ATOM      7  C   UNL     1      -9.715  16.858  68.691  0.00  0.00    -0.026 A 
ATOM      8  C   UNL     1      -8.327  16.954  68.591  0.00  0.00    -0.023 A 
ATOM      9  C   UNL     1      -7.765  18.176  68.298  0.00  0.00    +0.032 A 
ATOM     10  C   UNL     1      -8.581  19.218  67.884  0.00  0.00    +0.138 A 
ATOM     11  C   UNL     1      -9.959  19.088  67.984  0.00  0.00    +0.037 A 
ATOM     12  C   UNL     1      -7.591  15.689  68.265  0.00  0.00    +0.026 C 
ATOM     13  C   UNL     1     -10.472  17.799  68.086  0.00  0.00    -0.001 A 
ATOM     14  C   UNL     1      -8.099  15.103  67.013  0.00  0.00    +0.005 C 
ATOM     15  C   UNL     1      -9.795  13.971  64.906  0.00  0.00    +0.004 C 
ATOM     16  C   UNL     1     -11.779  15.202  65.487  0.00  0.00    +0.003 C 
ATOM     17  C   UNL     1     -12.040  14.109  67.751  0.00  0.00    +0.004 C 
ATOM     18  C   UNL     1     -10.962  13.183  64.367  0.00  0.00    +0.043 C 
ATOM     19  O   UNL     1     -13.067  12.496  65.222  0.00  0.00    -0.212 OA
ENDROOT
BRANCH   1  21
ATOM     20  C   UNL     1     -10.704  10.700  66.535  0.00  0.00    -0.012 C 
ATOM     21  C   UNL     1     -11.073  11.616  66.182  0.00  0.00    -0.049 C 
ENDBRANCH   1  21
BRANCH  10  22
ATOM     22  O   UNL     1      -7.982  20.273  67.189  0.00  0.00    -0.471 OA
ATOM     23  C   UNL     1      -6.718  20.755  67.605  0.00  0.00    +0.252 C 
ENDBRANCH  10  22
TORSDOF 2
ENDMDL
MODEL 6
REMARK VINA RESULT:      -6.0      2.268      3.786
REMARK  Name = 
REMARK  2 active torsions:
REMARK  status: ('A' for Active; 'I' for Inactive)
REMARK    1  A    between atoms: C_2  and  C_3
REMARK    2  A    between atoms: C_13  and  O_14
REMARK                            x       y       z     vdW  Elec       q    Type
REMARK                         _______ _______ _______ _____ _____    ______ ____
ROOT
ATOM      1  C   UNL     1      -6.353  19.222  67.721  0.00  0.00    +0.180 C 
ATOM      2  C   UNL     1      -6.946  17.887  67.453  0.00  0.00    +0.037 C 
ATOM      3  C   UNL     1      -8.282  18.224  68.326  0.00  0.00    +0.004 C 
ATOM      4  C   UNL     1      -9.198  17.031  67.546  0.00  0.00    +0.004 C 
ATOM      5  C   UNL     1      -8.622  15.786  68.552  0.00  0.00    +0.022 C 
ATOM      6  C   UNL     1      -7.275  15.541  67.650  0.00  0.00    +0.004 C 
ATOM      7  C   UNL     1      -9.512  14.690  67.780  0.00  0.00    -0.026 A 
ATOM      8  C   UNL     1     -10.821  14.958  68.179  0.00  0.00    -0.023 A 
ATOM      9  C   UNL     1     -11.860  14.513  67.391  0.00  0.00    +0.032 A 
ATOM     10  C   UNL     1     -11.589  14.023  66.122  0.00  0.00    +0.138 A 
ATOM     11  C   UNL     1     -10.275  13.779  65.750  0.00  0.00    +0.037 A 
ATOM     12  C   UNL     1     -11.016  16.133  69.090  0.00  0.00    +0.026 C 
ATOM     13  C   UNL     1      -9.276  14.418  66.477  0.00  0.00    -0.001 A 
ATOM     14  C   UNL     1     -10.466  17.356  68.479  0.00  0.00    +0.005 C 
ATOM     15  C   UNL     1      -8.719  19.352  67.232  0.00  0.00    +0.004 C 
ATOM     16  C   UNL     1      -7.348  17.779  66.035  0.00  0.00    +0.003 C 
ATOM     17  C   UNL     1      -6.403  16.706  68.119  0.00  0.00    +0.004 C 
ATOM     18  C   UNL     1      -7.406  20.043  66.966  0.00  0.00    +0.043 C 
ATOM     19  O   UNL     1      -5.118  19.446  67.173  0.00  0.00    -0.212 OA
ENDROOT
BRANCH   1  21
ATOM     20  C   UNL     1      -6.390  20.026  70.104  0.00  0.00    -0.012 C 
ATOM     21  C   UNL     1      -6.457  19.635  69.133  0.00  0.00    -0.049 C 
ENDBRANCH   1  21
BRANCH  10  22
ATOM     22  O   UNL     1     -12.641  13.995  65.201  0.00  0.00    -0.471 OA
ATOM     23  C   UNL     1     -12.376  13.663  63.851  0.00  0.00    +0.252 C 
ENDBRANCH  10  22
TORSDOF 2
ENDMDL
MODEL 7
REMARK VINA RESULT:      -5.9      1.403      1.720
REMARK  Name = 
REMARK  2 active torsions:
REMARK  status: ('A' for Active; 'I' for Inactive)
REMARK    1  A    between atoms: C_2  and  C_3
REMARK    2  A    between atoms: C_13  and  O_14
REMARK                            x       y       z     vdW  Elec       q    Type
REMARK                         _______ _______ _______ _____ _____    ______ ____
ROOT
ATOM      1  C   UNL     1      -9.597  17.310  68.053  0.00  0.00    +0.180 C 
ATOM      2  C   UNL     1     -10.199  16.017  68.469  0.00  0.00    +0.037 C 
ATOM      3  C   UNL     1      -9.998  15.364  66.988  0.00  0.00    +0.004 C 
ATOM      4  C   UNL     1     -10.082  13.779  67.581  0.00  0.00    +0.004 C 
ATOM      5  C   UNL     1     -11.782  13.755  67.571  0.00  0.00    +0.022 C 
ATOM      6  C   UNL     1     -11.904  14.464  69.044  0.00  0.00    +0.004 C 
ATOM      7  C   UNL     1     -11.809  12.248  68.135  0.00  0.00    -0.026 A 
ATOM      8  C   UNL     1     -11.388  11.465  67.060  0.00  0.00    -0.023 A 
ATOM      9  C   UNL     1     -10.881  10.210  67.312  0.00  0.00    +0.032 A 
ATOM     10  C   UNL     1     -10.583   9.846  68.617  0.00  0.00    +0.138 A 
ATOM     11  C   UNL     1     -11.005  10.652  69.664  0.00  0.00    +0.037 A 
ATOM     12  C   UNL     1     -11.003  12.196  65.809  0.00  0.00    +0.026 C 
ATOM     13  C   UNL     1     -11.321  11.974  69.364  0.00  0.00    -0.001 A 
ATOM     14  C   UNL     1      -9.949  13.185  66.093  0.00  0.00    +0.005 C 
ATOM     15  C   UNL     1      -8.379  15.410  67.182  0.00  0.00    +0.004 C 
ATOM     16  C   UNL     1      -9.299  15.308  69.402  0.00  0.00    +0.003 C 
ATOM     17  C   UNL     1     -11.641  15.925  68.680  0.00  0.00    +0.004 C 
ATOM     18  C   UNL     1      -8.184  16.775  67.789  0.00  0.00    +0.043 C 
ATOM     19  O   UNL     1      -9.547  18.281  69.017  0.00  0.00    -0.212 OA
ENDROOT
BRANCH   1  21
ATOM     20  C   UNL     1     -10.463  18.293  65.906  0.00  0.00    -0.012 C 
ATOM     21  C   UNL     1     -10.093  17.794  66.751  0.00  0.00    -0.049 C 
ENDBRANCH   1  21
BRANCH  10  22
ATOM     22  O   UNL     1      -9.690   8.787  68.806  0.00  0.00    -0.471 OA
ATOM     23  C   UNL     1      -8.800   8.815  69.907  0.00  0.00    +0.252 C 
ENDBRANCH  10  22
TORSDOF 2
ENDMDL
MODEL 8
REMARK VINA RESULT:      -5.6      1.749      2.958
REMARK  Name = 
REMARK  2 active torsions:
REMARK  status: ('A' for Active; 'I' for Inactive)
REMARK    1  A    between atoms: C_2  and  C_3
REMARK    2  A    between atoms: C_13  and  O_14
REMARK                            x       y       z     vdW  Elec       q    Type
REMARK                         _______ _______ _______ _____ _____    ______ ____
ROOT
ATOM      1  C   UNL     1      -9.768  17.918  67.140  0.00  0.00    +0.180 C 
ATOM      2  C   UNL     1     -10.284  16.526  67.092  0.00  0.00    +0.037 C 
ATOM      3  C   UNL     1      -8.835  15.897  67.497  0.00  0.00    +0.004 C 
ATOM      4  C   UNL     1      -9.521  14.448  68.044  0.00  0.00    +0.004 C 
ATOM      5  C   UNL     1      -9.592  13.773  66.485  0.00  0.00    +0.022 C 
ATOM      6  C   UNL     1     -11.027  14.483  66.132  0.00  0.00    +0.004 C 
ATOM      7  C   UNL     1     -10.241  12.414  67.054  0.00  0.00    -0.026 A 
ATOM      8  C   UNL     1      -9.194  11.779  67.721  0.00  0.00    -0.023 A 
ATOM      9  C   UNL     1      -9.492  10.836  68.679  0.00  0.00    +0.032 A 
ATOM     10  C   UNL     1     -10.800  10.706  69.122  0.00  0.00    +0.138 A 
ATOM     11  C   UNL     1     -11.818  11.361  68.445  0.00  0.00    +0.037 A 
ATOM     12  C   UNL     1      -7.886  12.512  67.766  0.00  0.00    +0.026 C 
ATOM     13  C   UNL     1     -11.460  12.435  67.637  0.00  0.00    -0.001 A 
ATOM     14  C   UNL     1      -8.064  13.847  68.363  0.00  0.00    +0.005 C 
ATOM     15  C   UNL     1      -8.950  16.574  68.977  0.00  0.00    +0.004 C 
ATOM     16  C   UNL     1     -11.213  16.284  68.216  0.00  0.00    +0.003 C 
ATOM     17  C   UNL     1     -10.569  15.903  65.803  0.00  0.00    +0.004 C 
ATOM     18  C   UNL     1      -9.469  17.949  68.644  0.00  0.00    +0.043 C 
ATOM     19  O   UNL     1     -10.673  18.899  66.832  0.00  0.00    -0.212 OA
ENDROOT
BRANCH   1  21
ATOM     20  C   UNL     1      -7.571  18.370  66.002  0.00  0.00    -0.012 C 
ATOM     21  C   UNL     1      -8.466  18.082  66.467  0.00  0.00    -0.049 C 
ENDBRANCH   1  21
BRANCH  10  22
ATOM     22  O   UNL     1     -11.006  10.088  70.358  0.00  0.00    -0.471 OA
ATOM     23  C   UNL     1     -12.187  10.364  71.088  0.00  0.00    +0.252 C 
ENDBRANCH  10  22
TORSDOF 2
ENDMDL
MODEL 9
REMARK VINA RESULT:      -5.6      1.608      6.902
REMARK  Name = 
REMARK  2 active torsions:
REMARK  status: ('A' for Active; 'I' for Inactive)
REMARK    1  A    between atoms: C_2  and  C_3
REMARK    2  A    between atoms: C_13  and  O_14
REMARK                            x       y       z     vdW  Elec       q    Type
REMARK                         _______ _______ _______ _____ _____    ______ ____
ROOT
ATOM      1  C   UNL     1      -9.077   8.713  66.258  0.00  0.00    +0.180 C 
ATOM      2  C   UNL     1      -9.398  10.122  65.909  0.00  0.00    +0.037 C 
ATOM      3  C   UNL     1     -10.184  10.367  67.317  0.00  0.00    +0.004 C 
ATOM      4  C   UNL     1     -10.009  12.050  67.221  0.00  0.00    +0.004 C 
ATOM      5  C   UNL     1     -11.364  12.237  66.210  0.00  0.00    +0.022 C 
ATOM      6  C   UNL     1     -10.515  11.928  64.842  0.00  0.00    +0.004 C 
ATOM      7  C   UNL     1     -11.155  13.831  66.151  0.00  0.00    -0.026 A 
ATOM      8  C   UNL     1     -11.531  14.281  67.417  0.00  0.00    -0.023 A 
ATOM      9  C   UNL     1     -11.069  15.503  67.852  0.00  0.00    +0.032 A 
ATOM     10  C   UNL     1     -10.070  16.147  67.136  0.00  0.00    +0.138 A 
ATOM     11  C   UNL     1      -9.710  15.668  65.885  0.00  0.00    +0.037 A 
ATOM     12  C   UNL     1     -11.930  13.230  68.409  0.00  0.00    +0.026 C 
ATOM     13  C   UNL     1     -10.044  14.351  65.585  0.00  0.00    -0.001 A 
ATOM     14  C   UNL     1     -10.849  12.243  68.578  0.00  0.00    +0.005 C 
ATOM     15  C   UNL     1      -8.781  10.212  68.134  0.00  0.00    +0.004 C 
ATOM     16  C   UNL     1      -8.172  10.947  65.925  0.00  0.00    +0.003 C 
ATOM     17  C   UNL     1     -10.419  10.404  64.905  0.00  0.00    +0.004 C 
ATOM     18  C   UNL     1      -8.157   9.026  67.444  0.00  0.00    +0.043 C 
ATOM     19  O   UNL     1      -8.381   8.010  65.311  0.00  0.00    -0.212 OA
ENDROOT
BRANCH   1  21
ATOM     20  C   UNL     1     -10.961   7.308  67.153  0.00  0.00    -0.012 C 
ATOM     21  C   UNL     1     -10.223   7.975  66.821  0.00  0.00    -0.049 C 
ENDBRANCH   1  21
BRANCH  10  22
ATOM     22  O   UNL     1      -9.326  17.126  67.800  0.00  0.00    -0.471 OA
ATOM     23  C   UNL     1      -9.995  18.115  68.561  0.00  0.00    +0.252 C 
ENDBRANCH  10  22
TORSDOF 2
ENDMDL
