MODEL 1
REMARK VINA RESULT:      -5.5      0.000      0.000
REMARK  Name = 
REMARK  10 active torsions:
REMARK  status: ('A' for Active; 'I' for Inactive)
REMARK    1  A    between atoms: C_2  and  C_4
REMARK    2  A    between atoms: N_6  and  C_7
REMARK    3  A    between atoms: C_10  and  C_11
REMARK    4  A    between atoms: N_13  and  CA_14
REMARK    5  A    between atoms: CA_14  and  CB_15
REMARK    6  A    between atoms: CA_14  and  C_17
REMARK    7  A    between atoms: C_21  and  C_22
REMARK    8  A    between atoms: N_24  and  CA_25
REMARK    9  A    between atoms: CA_25  and  CB_26
REMARK   10  A    between atoms: CA_25  and  C_28
REMARK                            x       y       z     vdW  Elec       q    Type
REMARK                         _______ _______ _______ _____ _____    ______ ____
ROOT
ATOM      1  C   UNK A   0      -7.358  19.213  67.543  0.00  0.00    +0.084 A 
ATOM      2  C   UNK A   0      -8.567  18.529  67.481  0.00  0.00    +0.051 A 
ATOM      3  I   UNK A   0     -10.224  19.667  66.893  0.00  0.00    -0.041 I 
ATOM      4  C   UNK A   0      -8.682  17.170  67.674  0.00  0.00    +0.067 A 
ATOM      5  C   UNK A   0      -7.574  16.463  68.134  0.00  0.00    +0.040 A 
ATOM      6  I   UNK A   0      -7.341  14.414  67.655  0.00  0.00    -0.042 I 
ATOM      7  C   UNK A   0      -6.403  17.157  68.415  0.00  0.00    +0.067 A 
ATOM      8  C   UNK A   0      -6.376  18.539  68.261  0.00  0.00    +0.051 A 
ATOM      9  I   UNK A   0      -4.588  19.552  68.618  0.00  0.00    -0.041 I 
ENDROOT
BRANCH   1  11
ATOM     10  C   UNK A   0      -6.476  19.672  65.316  0.00  0.00    +0.276 C 
ATOM     11  N   UNK A   0      -7.001  20.096  66.490  0.00  0.00    -0.176 NA
ATOM     12  O   UNK A   0      -6.687  18.548  64.860  0.00  0.00    -0.270 OA
BRANCH  10  14
ATOM     13  C   UNK A   0      -5.489  19.562  63.180  0.00  0.00    +0.046 C 
ATOM     14  C   UNK A   0      -5.898  20.755  64.254  0.00  0.00    +0.229 C 
ATOM     15  O   UNK A   0      -4.490  20.811  64.845  0.00  0.00    -0.213 OA
ENDBRANCH  10  14
ENDBRANCH   1  11
BRANCH   4  16
ATOM     16  C   UNK A   0      -9.889  16.431  67.268  0.00  0.00    +0.266 C 
ATOM     17  N   SER A   1     -10.134  16.025  65.944  0.00  0.00    -0.198 NA
ATOM     18  O   UNK A   0     -10.546  15.829  68.169  0.00  0.00    -0.268 OA
BRANCH  17  19
ATOM     19  CA  SER A   1     -10.984  14.906  65.562  0.00  0.00    +0.161 C 
BRANCH  19  20
ATOM     20  C   SER A   1     -12.021  15.264  64.553  0.00  0.00    +0.206 C 
ATOM     21  O   SER A   1     -11.679  16.450  63.900  0.00  0.00    -0.218 OA
ENDBRANCH  19  20
BRANCH  19  22
ATOM     22  CB  SER A   1     -10.216  13.679  65.203  0.00  0.00    +0.206 C 
ATOM     23  OG  SER A   1     -10.646  13.050  64.052  0.00  0.00    -0.218 OA
ENDBRANCH  19  22
ENDBRANCH  17  19
ENDBRANCH   4  16
BRANCH   7  24
ATOM     24  C   UNK A   0      -5.521  16.511  69.398  0.00  0.00    +0.266 C 
ATOM     25  N   SER A   1      -4.197  16.149  68.985  0.00  0.00    -0.198 NA
ATOM     26  O   UNK A   0      -5.616  16.751  70.638  0.00  0.00    -0.268 OA
BRANCH  25  27
ATOM     27  CA  SER A   1      -3.603  15.010  69.620  0.00  0.00    +0.161 C 
BRANCH  27  28
ATOM     28  C   SER A   1      -3.542  13.783  68.755  0.00  0.00    +0.206 C 
ATOM     29  O   SER A   1      -3.592  14.067  67.396  0.00  0.00    -0.218 OA
ENDBRANCH  27  28
BRANCH  27  30
ATOM     30  CB  SER A   1      -2.253  15.340  70.243  0.00  0.00    +0.206 C 
ATOM     31  OG  SER A   1      -2.199  16.736  70.311  0.00  0.00    -0.218 OA
ENDBRANCH  27  30
ENDBRANCH  25  27
ENDBRANCH   7  24
TORSDOF 10
ENDMDL
MODEL 2
REMARK VINA RESULT:      -5.3      3.565      7.706
REMARK  Name = 
REMARK  10 active torsions:
REMARK  status: ('A' for Active; 'I' for Inactive)
REMARK    1  A    between atoms: C_2  and  C_4
REMARK    2  A    between atoms: N_6  and  C_7
REMARK    3  A    between atoms: C_10  and  C_11
REMARK    4  A    between atoms: N_13  and  CA_14
REMARK    5  A    between atoms: CA_14  and  CB_15
REMARK    6  A    between atoms: CA_14  and  C_17
REMARK    7  A    between atoms: C_21  and  C_22
REMARK    8  A    between atoms: N_24  and  CA_25
REMARK    9  A    between atoms: CA_25  and  CB_26
REMARK   10  A    between atoms: CA_25  and  C_28
REMARK                            x       y       z     vdW  Elec       q    Type
REMARK                         _______ _______ _______ _____ _____    ______ ____
ROOT
ATOM      1  C   UNK A   0      -8.965  13.109  68.184  0.00  0.00    +0.084 A 
ATOM      2  C   UNK A   0      -7.932  14.031  68.311  0.00  0.00    +0.051 A 
ATOM      3  I   UNK A   0      -6.007  13.294  67.941  0.00  0.00    -0.041 I 
ATOM      4  C   UNK A   0      -8.136  15.373  68.550  0.00  0.00    +0.067 A 
ATOM      5  C   UNK A   0      -9.421  15.809  68.863  0.00  0.00    +0.040 A 
ATOM      6  I   UNK A   0     -10.018  17.788  68.403  0.00  0.00    -0.042 I 
ATOM      7  C   UNK A   0     -10.444  14.873  68.957  0.00  0.00    +0.067 A 
ATOM      8  C   UNK A   0     -10.156  13.526  68.770  0.00  0.00    +0.051 A 
ATOM      9  I   UNK A   0     -11.719  12.147  68.843  0.00  0.00    -0.041 I 
ENDROOT
BRANCH   1  11
ATOM     10  C   UNK A   0      -9.640  12.503  65.920  0.00  0.00    +0.276 C 
ATOM     11  N   UNK A   0      -8.981  12.228  67.070  0.00  0.00    -0.176 NA
ATOM     12  O   UNK A   0      -9.867  13.653  65.541  0.00  0.00    -0.270 OA
BRANCH  10  14
ATOM     13  C   UNK A   0     -11.299  11.885  64.367  0.00  0.00    +0.046 C 
ATOM     14  C   UNK A   0      -9.785  11.355  64.781  0.00  0.00    +0.229 C 
ATOM     15  O   UNK A   0     -10.336  10.281  65.719  0.00  0.00    -0.213 OA
ENDBRANCH  10  14
ENDBRANCH   1  11
BRANCH   4  16
ATOM     16  C   UNK A   0      -7.071  16.366  68.338  0.00  0.00    +0.266 C 
ATOM     17  N   SER A   1      -6.818  16.971  67.093  0.00  0.00    -0.198 NA
ATOM     18  O   UNK A   0      -6.608  16.965  69.355  0.00  0.00    -0.268 OA
BRANCH  17  19
ATOM     19  CA  SER A   1      -6.178  18.266  66.913  0.00  0.00    +0.161 C 
BRANCH  19  20
ATOM     20  C   SER A   1      -4.778  18.172  66.409  0.00  0.00    +0.206 C 
ATOM     21  O   SER A   1      -4.529  16.900  65.890  0.00  0.00    -0.218 OA
ENDBRANCH  19  20
BRANCH  19  22
ATOM     22  CB  SER A   1      -7.013  19.235  66.148  0.00  0.00    +0.206 C 
ATOM     23  OG  SER A   1      -7.435  20.329  66.875  0.00  0.00    -0.218 OA
ENDBRANCH  19  22
ENDBRANCH  17  19
ENDBRANCH   4  16
BRANCH   7  24
ATOM     24  C   UNK A   0     -11.568  15.269  69.819  0.00  0.00    +0.266 C 
ATOM     25  N   SER A   1     -11.326  15.410  71.225  0.00  0.00    -0.198 NA
ATOM     26  O   UNK A   0     -12.511  15.999  69.392  0.00  0.00    -0.268 OA
BRANCH  25  27
ATOM     27  CA  SER A   1     -12.423  15.139  72.107  0.00  0.00    +0.161 C 
BRANCH  27  28
ATOM     28  C   SER A   1     -13.002  13.759  71.964  0.00  0.00    +0.206 C 
ATOM     29  O   SER A   1     -14.328  13.676  72.371  0.00  0.00    -0.218 OA
ENDBRANCH  27  28
BRANCH  27  30
ATOM     30  CB  SER A   1     -12.092  15.475  73.555  0.00  0.00    +0.206 C 
ATOM     31  OG  SER A   1     -13.122  16.315  73.992  0.00  0.00    -0.218 OA
ENDBRANCH  27  30
ENDBRANCH  25  27
ENDBRANCH   7  24
TORSDOF 10
ENDMDL
MODEL 3
REMARK VINA RESULT:      -5.3      1.522      5.508
REMARK  Name = 
REMARK  10 active torsions:
REMARK  status: ('A' for Active; 'I' for Inactive)
REMARK    1  A    between atoms: C_2  and  C_4
REMARK    2  A    between atoms: N_6  and  C_7
REMARK    3  A    between atoms: C_10  and  C_11
REMARK    4  A    between atoms: N_13  and  CA_14
REMARK    5  A    between atoms: CA_14  and  CB_15
REMARK    6  A    between atoms: CA_14  and  C_17
REMARK    7  A    between atoms: C_21  and  C_22
REMARK    8  A    between atoms: N_24  and  CA_25
REMARK    9  A    between atoms: CA_25  and  CB_26
REMARK   10  A    between atoms: CA_25  and  C_28
REMARK                            x       y       z     vdW  Elec       q    Type
REMARK                         _______ _______ _______ _____ _____    ______ ____
ROOT
ATOM      1  C   UNK A   0      -6.416  16.798  68.641  0.00  0.00    +0.084 A 
ATOM      2  C   UNK A   0      -7.513  16.236  67.997  0.00  0.00    +0.051 A 
ATOM      3  I   UNK A   0      -7.735  14.165  68.221  0.00  0.00    -0.041 I 
ATOM      4  C   UNK A   0      -8.473  16.977  67.343  0.00  0.00    +0.067 A 
ATOM      5  C   UNK A   0      -8.252  18.339  67.152  0.00  0.00    +0.040 A 
ATOM      6  I   UNK A   0      -9.887  19.673  66.989  0.00  0.00    -0.042 I 
ATOM      7  C   UNK A   0      -7.057  18.895  67.597  0.00  0.00    +0.067 A 
ATOM      8  C   UNK A   0      -6.102  18.076  68.189  0.00  0.00    +0.051 A 
ATOM      9  I   UNK A   0      -4.349  18.942  68.914  0.00  0.00    -0.041 I 
ENDROOT
BRANCH   1  11
ATOM     10  C   UNK A   0      -5.215  15.450  70.281  0.00  0.00    +0.276 C 
ATOM     11  N   UNK A   0      -6.117  16.412  69.974  0.00  0.00    -0.176 NA
ATOM     12  O   UNK A   0      -4.269  15.166  69.546  0.00  0.00    -0.270 OA
BRANCH  10  14
ATOM     13  C   UNK A   0      -3.585  14.290  71.523  0.00  0.00    +0.046 C 
ATOM     14  C   UNK A   0      -5.089  14.923  71.811  0.00  0.00    +0.229 C 
ATOM     15  O   UNK A   0      -5.782  13.583  71.567  0.00  0.00    -0.213 OA
ENDBRANCH  10  14
ENDBRANCH   1  11
BRANCH   4  16
ATOM     16  C   UNK A   0      -9.778  16.403  66.977  0.00  0.00    +0.266 C 
ATOM     17  N   SER A   1     -10.032  15.802  65.731  0.00  0.00    -0.198 NA
ATOM     18  O   UNK A   0     -10.580  16.111  67.914  0.00  0.00    -0.268 OA
BRANCH  17  19
ATOM     19  CA  SER A   1     -11.061  14.801  65.487  0.00  0.00    +0.161 C 
BRANCH  19  20
ATOM     20  C   SER A   1     -11.998  15.168  64.386  0.00  0.00    +0.206 C 
ATOM     21  O   SER A   1     -11.728  16.457  63.923  0.00  0.00    -0.218 OA
ENDBRANCH  19  20
BRANCH  19  22
ATOM     22  CB  SER A   1     -10.520  13.418  65.359  0.00  0.00    +0.206 C 
ATOM     23  OG  SER A   1     -11.009  12.522  66.288  0.00  0.00    -0.218 OA
ENDBRANCH  19  22
ENDBRANCH  17  19
ENDBRANCH   4  16
BRANCH   7  24
ATOM     24  C   UNK A   0      -6.639  20.113  66.887  0.00  0.00    +0.266 C 
ATOM     25  N   SER A   1      -6.532  20.061  65.458  0.00  0.00    -0.198 NA
ATOM     26  O   UNK A   0      -6.904  21.269  67.333  0.00  0.00    -0.268 OA
BRANCH  25  27
ATOM     27  CA  SER A   1      -5.560  20.918  64.845  0.00  0.00    +0.161 C 
BRANCH  27  28
ATOM     28  C   SER A   1      -4.158  20.719  65.348  0.00  0.00    +0.206 C 
ATOM     29  O   SER A   1      -3.672  21.807  66.064  0.00  0.00    -0.218 OA
ENDBRANCH  27  28
BRANCH  27  30
ATOM     30  CB  SER A   1      -5.636  20.876  63.325  0.00  0.00    +0.206 C 
ATOM     31  OG  SER A   1      -5.917  19.546  62.998  0.00  0.00    -0.218 OA
ENDBRANCH  27  30
ENDBRANCH  25  27
ENDBRANCH   7  24
TORSDOF 10
ENDMDL
MODEL 4
REMARK VINA RESULT:      -5.1      3.100      7.206
REMARK  Name = 
REMARK  10 active torsions:
REMARK  status: ('A' for Active; 'I' for Inactive)
REMARK    1  A    between atoms: C_2  and  C_4
REMARK    2  A    between atoms: N_6  and  C_7
REMARK    3  A    between atoms: C_10  and  C_11
REMARK    4  A    between atoms: N_13  and  CA_14
REMARK    5  A    between atoms: CA_14  and  CB_15
REMARK    6  A    between atoms: CA_14  and  C_17
REMARK    7  A    between atoms: C_21  and  C_22
REMARK    8  A    between atoms: N_24  and  CA_25
REMARK    9  A    between atoms: CA_25  and  CB_26
REMARK   10  A    between atoms: CA_25  and  C_28
REMARK                            x       y       z     vdW  Elec       q    Type
REMARK                         _______ _______ _______ _____ _____    ______ ____
ROOT
ATOM      1  C   UNK A   0      -9.159  15.409  66.779  0.00  0.00    +0.084 A 
ATOM      2  C   UNK A   0      -7.794  15.311  67.023  0.00  0.00    +0.051 A 
ATOM      3  I   UNK A   0      -6.718  17.103  66.888  0.00  0.00    -0.041 I 
ATOM      4  C   UNK A   0      -7.176  14.152  67.440  0.00  0.00    +0.067 A 
ATOM      5  C   UNK A   0      -7.909  12.968  67.446  0.00  0.00    +0.040 A 
ATOM      6  I   UNK A   0      -7.420  11.416  68.801  0.00  0.00    -0.042 I 
ATOM      7  C   UNK A   0      -9.226  12.991  66.999  0.00  0.00    +0.067 A 
ATOM      8  C   UNK A   0      -9.766  14.182  66.528  0.00  0.00    +0.051 A 
ATOM      9  I   UNK A   0     -11.764  14.209  65.930  0.00  0.00    -0.041 I 
ENDROOT
BRANCH   1  11
ATOM     10  C   UNK A   0     -10.194  17.616  66.701  0.00  0.00    +0.276 C 
ATOM     11  N   UNK A   0      -9.898  16.471  67.362  0.00  0.00    -0.176 NA
ATOM     12  O   UNK A   0     -10.286  17.671  65.474  0.00  0.00    -0.270 OA
BRANCH  10  14
ATOM     13  C   UNK A   0     -10.131  19.961  66.498  0.00  0.00    +0.046 C 
ATOM     14  C   UNK A   0     -10.854  18.862  67.505  0.00  0.00    +0.229 C 
ATOM     15  O   UNK A   0      -9.742  18.975  68.548  0.00  0.00    -0.213 OA
ENDBRANCH  10  14
ENDBRANCH   1  11
BRANCH   4  16
ATOM     16  C   UNK A   0      -5.821  14.162  68.015  0.00  0.00    +0.266 C 
ATOM     17  N   SER A   1      -5.565  14.397  69.378  0.00  0.00    -0.198 NA
ATOM     18  O   UNK A   0      -4.896  13.593  67.362  0.00  0.00    -0.268 OA
BRANCH  17  19
ATOM     19  CA  SER A   1      -4.384  13.935  70.094  0.00  0.00    +0.161 C 
BRANCH  19  20
ATOM     20  C   SER A   1      -3.491  15.041  70.544  0.00  0.00    +0.206 C 
ATOM     21  O   SER A   1      -4.244  16.122  71.004  0.00  0.00    -0.218 OA
ENDBRANCH  19  20
BRANCH  19  22
ATOM     22  CB  SER A   1      -4.696  12.957  71.174  0.00  0.00    +0.206 C 
ATOM     23  OG  SER A   1      -5.687  13.361  72.045  0.00  0.00    -0.218 OA
ENDBRANCH  19  22
ENDBRANCH  17  19
ENDBRANCH   4  16
BRANCH   7  24
ATOM     24  C   UNK A   0      -9.728  11.706  66.490  0.00  0.00    +0.266 C 
ATOM     25  N   SER A   1      -8.987  11.053  65.451  0.00  0.00    -0.198 NA
ATOM     26  O   UNK A   0     -10.381  10.907  67.224  0.00  0.00    -0.268 OA
BRANCH  25  27
ATOM     27  CA  SER A   1      -9.728  10.239  64.532  0.00  0.00    +0.161 C 
BRANCH  27  28
ATOM     28  C   SER A   1     -10.561  11.018  63.553  0.00  0.00    +0.206 C 
ATOM     29  O   SER A   1      -9.951  12.190  63.124  0.00  0.00    -0.218 OA
ENDBRANCH  27  28
BRANCH  27  30
ATOM     30  CB  SER A   1      -8.849   9.205  63.842  0.00  0.00    +0.206 C 
ATOM     31  OG  SER A   1      -8.562   8.243  64.817  0.00  0.00    -0.218 OA
ENDBRANCH  27  30
ENDBRANCH  25  27
ENDBRANCH   7  24
TORSDOF 10
ENDMDL
MODEL 5
REMARK VINA RESULT:      -5.1      2.807      3.613
REMARK  Name = 
REMARK  10 active torsions:
REMARK  status: ('A' for Active; 'I' for Inactive)
REMARK    1  A    between atoms: C_2  and  C_4
REMARK    2  A    between atoms: N_6  and  C_7
REMARK    3  A    between atoms: C_10  and  C_11
REMARK    4  A    between atoms: N_13  and  CA_14
REMARK    5  A    between atoms: CA_14  and  CB_15
REMARK    6  A    between atoms: CA_14  and  C_17
REMARK    7  A    between atoms: C_21  and  C_22
REMARK    8  A    between atoms: N_24  and  CA_25
REMARK    9  A    between atoms: CA_25  and  CB_26
REMARK   10  A    between atoms: CA_25  and  C_28
REMARK                            x       y       z     vdW  Elec       q    Type
REMARK                         _______ _______ _______ _____ _____    ______ ____
ROOT
ATOM      1  C   UNK A   0      -8.287  16.453  68.785  0.00  0.00    +0.084 A 
ATOM      2  C   UNK A   0      -9.282  15.508  68.565  0.00  0.00    +0.051 A 
ATOM      3  I   UNK A   0     -11.241  16.248  68.510  0.00  0.00    -0.041 I 
ATOM      4  C   UNK A   0      -9.025  14.184  68.284  0.00  0.00    +0.067 A 
ATOM      5  C   UNK A   0      -7.719  13.716  68.403  0.00  0.00    +0.040 A 
ATOM      6  I   UNK A   0      -7.060  12.079  67.233  0.00  0.00    -0.042 I 
ATOM      7  C   UNK A   0      -6.728  14.592  68.834  0.00  0.00    +0.067 A 
ATOM      8  C   UNK A   0      -7.069  15.898  69.165  0.00  0.00    +0.051 A 
ATOM      9  I   UNK A   0      -5.556  17.214  69.739  0.00  0.00    -0.041 I 
ENDROOT
BRANCH   1  11
ATOM     10  C   UNK A   0      -8.014  17.799  66.770  0.00  0.00    +0.276 C 
ATOM     11  N   UNK A   0      -8.328  17.686  68.082  0.00  0.00    -0.176 NA
ATOM     12  O   UNK A   0      -8.129  16.865  65.975  0.00  0.00    -0.270 OA
BRANCH  10  14
ATOM     13  C   UNK A   0      -7.661  19.983  67.576  0.00  0.00    +0.046 C 
ATOM     14  C   UNK A   0      -7.879  19.270  66.097  0.00  0.00    +0.229 C 
ATOM     15  O   UNK A   0      -9.378  19.570  66.089  0.00  0.00    -0.213 OA
ENDBRANCH  10  14
ENDBRANCH   1  11
BRANCH   4  16
ATOM     16  C   UNK A   0     -10.057  13.297  67.723  0.00  0.00    +0.266 C 
ATOM     17  N   SER A   1     -10.494  13.372  66.388  0.00  0.00    -0.198 NA
ATOM     18  O   UNK A   0     -10.302  12.213  68.332  0.00  0.00    -0.268 OA
BRANCH  17  19
ATOM     19  CA  SER A   1     -11.087  12.270  65.645  0.00  0.00    +0.161 C 
BRANCH  19  20
ATOM     20  C   SER A   1     -12.399  12.609  65.023  0.00  0.00    +0.206 C 
ATOM     21  O   SER A   1     -12.826  13.871  65.441  0.00  0.00    -0.218 OA
ENDBRANCH  19  20
BRANCH  19  22
ATOM     22  CB  SER A   1     -10.139  11.622  64.694  0.00  0.00    +0.206 C 
ATOM     23  OG  SER A   1     -10.289  12.012  63.379  0.00  0.00    -0.218 OA
ENDBRANCH  19  22
ENDBRANCH  17  19
ENDBRANCH   4  16
BRANCH   7  24
ATOM     24  C   UNK A   0      -5.572  13.950  69.478  0.00  0.00    +0.266 C 
ATOM     25  N   SER A   1      -5.807  13.135  70.634  0.00  0.00    -0.198 NA
ATOM     26  O   UNK A   0      -4.545  13.610  68.819  0.00  0.00    -0.268 OA
BRANCH  25  27
ATOM     27  CA  SER A   1      -4.758  13.065  71.607  0.00  0.00    +0.161 C 
BRANCH  27  28
ATOM     28  C   SER A   1      -4.876  14.074  72.714  0.00  0.00    +0.206 C 
ATOM     29  O   SER A   1      -5.781  13.703  73.701  0.00  0.00    -0.218 OA
ENDBRANCH  27  28
BRANCH  27  30
ATOM     30  CB  SER A   1      -4.561  11.651  72.139  0.00  0.00    +0.206 C 
ATOM     31  OG  SER A   1      -5.624  10.903  71.622  0.00  0.00    -0.218 OA
ENDBRANCH  27  30
ENDBRANCH  25  27
ENDBRANCH   7  24
TORSDOF 10
ENDMDL
MODEL 6
REMARK VINA RESULT:      -5.0      3.413      7.273
REMARK  Name = 
REMARK  10 active torsions:
REMARK  status: ('A' for Active; 'I' for Inactive)
REMARK    1  A    between atoms: C_2  and  C_4
REMARK    2  A    between atoms: N_6  and  C_7
REMARK    3  A    between atoms: C_10  and  C_11
REMARK    4  A    between atoms: N_13  and  CA_14
REMARK    5  A    between atoms: CA_14  and  CB_15
REMARK    6  A    between atoms: CA_14  and  C_17
REMARK    7  A    between atoms: C_21  and  C_22
REMARK    8  A    between atoms: N_24  and  CA_25
REMARK    9  A    between atoms: CA_25  and  CB_26
REMARK   10  A    between atoms: CA_25  and  C_28
REMARK                            x       y       z     vdW  Elec       q    Type
REMARK                         _______ _______ _______ _____ _____    ______ ____
ROOT
ATOM      1  C   UNK A   0     -10.453  15.025  68.006  0.00  0.00    +0.084 A 
ATOM      2  C   UNK A   0      -9.493  16.006  67.783  0.00  0.00    +0.051 A 
ATOM      3  I   UNK A   0     -10.230  17.883  67.217  0.00  0.00    -0.041 I 
ATOM      4  C   UNK A   0      -8.149  15.823  68.020  0.00  0.00    +0.067 A 
ATOM      5  C   UNK A   0      -7.691  14.543  68.323  0.00  0.00    +0.040 A 
ATOM      6  I   UNK A   0      -5.952  14.283  69.502  0.00  0.00    -0.042 I 
ATOM      7  C   UNK A   0      -8.600  13.491  68.341  0.00  0.00    +0.067 A 
ATOM      8  C   UNK A   0      -9.932  13.735  68.027  0.00  0.00    +0.051 A 
ATOM      9  I   UNK A   0     -11.292  12.157  68.132  0.00  0.00    -0.041 I 
ENDROOT
BRANCH   1  11
ATOM     10  C   UNK A   0     -11.649  15.330  70.109  0.00  0.00    +0.276 C 
ATOM     11  N   UNK A   0     -11.616  15.343  68.756  0.00  0.00    -0.176 NA
ATOM     12  O   UNK A   0     -10.647  15.513  70.802  0.00  0.00    -0.270 OA
BRANCH  10  14
ATOM     13  C   UNK A   0     -12.308  15.899  72.297  0.00  0.00    +0.046 C 
ATOM     14  C   UNK A   0     -13.067  15.496  70.881  0.00  0.00    +0.229 C 
ATOM     15  O   UNK A   0     -13.195  14.027  71.280  0.00  0.00    -0.213 OA
ENDBRANCH  10  14
ENDBRANCH   1  11
BRANCH   4  16
ATOM     16  C   UNK A   0      -7.217  16.959  68.107  0.00  0.00    +0.266 C 
ATOM     17  N   SER A   1      -7.117  17.788  69.240  0.00  0.00    -0.198 NA
ATOM     18  O   UNK A   0      -6.233  16.981  67.309  0.00  0.00    -0.268 OA
BRANCH  17  19
ATOM     19  CA  SER A   1      -5.936  18.558  69.604  0.00  0.00    +0.161 C 
BRANCH  19  20
ATOM     20  C   SER A   1      -6.222  19.999  69.859  0.00  0.00    +0.206 C 
ATOM     21  O   SER A   1      -5.192  20.798  69.358  0.00  0.00    -0.218 OA
ENDBRANCH  19  20
BRANCH  19  22
ATOM     22  CB  SER A   1      -5.127  17.921  70.681  0.00  0.00    +0.206 C 
ATOM     23  OG  SER A   1      -5.221  18.541  71.911  0.00  0.00    -0.218 OA
ENDBRANCH  19  22
ENDBRANCH  17  19
ENDBRANCH   4  16
BRANCH   7  24
ATOM     24  C   UNK A   0      -8.017  12.165  68.087  0.00  0.00    +0.266 C 
ATOM     25  N   SER A   1      -7.285  11.970  66.870  0.00  0.00    -0.198 NA
ATOM     26  O   UNK A   0      -7.640  11.410  69.031  0.00  0.00    -0.268 OA
BRANCH  25  27
ATOM     27  CA  SER A   1      -7.295  10.652  66.307  0.00  0.00    +0.161 C 
BRANCH  27  28
ATOM     28  C   SER A   1      -8.615  10.245  65.714  0.00  0.00    +0.206 C 
ATOM     29  O   SER A   1      -9.227  11.260  64.989  0.00  0.00    -0.218 OA
ENDBRANCH  27  28
BRANCH  27  30
ATOM     30  CB  SER A   1      -6.140  10.432  65.339  0.00  0.00    +0.206 C 
ATOM     31  OG  SER A   1      -5.186  11.403  65.663  0.00  0.00    -0.218 OA
ENDBRANCH  27  30
ENDBRANCH  25  27
ENDBRANCH   7  24
TORSDOF 10
ENDMDL
MODEL 7
REMARK VINA RESULT:      -5.0      3.786      7.369
REMARK  Name = 
REMARK  10 active torsions:
REMARK  status: ('A' for Active; 'I' for Inactive)
REMARK    1  A    between atoms: C_2  and  C_4
REMARK    2  A    between atoms: N_6  and  C_7
REMARK    3  A    between atoms: C_10  and  C_11
REMARK    4  A    between atoms: N_13  and  CA_14
REMARK    5  A    between atoms: CA_14  and  CB_15
REMARK    6  A    between atoms: CA_14  and  C_17
REMARK    7  A    between atoms: C_21  and  C_22
REMARK    8  A    between atoms: N_24  and  CA_25
REMARK    9  A    between atoms: CA_25  and  CB_26
REMARK   10  A    between atoms: CA_25  and  C_28
REMARK                            x       y       z     vdW  Elec       q    Type
REMARK                         _______ _______ _______ _____ _____    ______ ____
ROOT
ATOM      1  C   UNK A   0     -10.516  15.140  67.925  0.00  0.00    +0.084 A 
ATOM      2  C   UNK A   0      -9.550  16.123  67.738  0.00  0.00    +0.051 A 
ATOM      3  I   UNK A   0     -10.278  18.033  67.281  0.00  0.00    -0.041 I 
ATOM      4  C   UNK A   0      -8.204  15.916  67.944  0.00  0.00    +0.067 A 
ATOM      5  C   UNK A   0      -7.754  14.619  68.174  0.00  0.00    +0.040 A 
ATOM      6  I   UNK A   0      -5.999  14.283  69.310  0.00  0.00    -0.042 I 
ATOM      7  C   UNK A   0      -8.672  13.575  68.152  0.00  0.00    +0.067 A 
ATOM      8  C   UNK A   0     -10.007  13.846  67.872  0.00  0.00    +0.051 A 
ATOM      9  I   UNK A   0     -11.379  12.276  67.917  0.00  0.00    -0.041 I 
ENDROOT
BRANCH   1  11
ATOM     10  C   UNK A   0     -11.674  15.359  70.060  0.00  0.00    +0.276 C 
ATOM     11  N   UNK A   0     -11.664  15.429  68.708  0.00  0.00    -0.176 NA
ATOM     12  O   UNK A   0     -10.659  15.510  70.742  0.00  0.00    -0.270 OA
BRANCH  10  14
ATOM     13  C   UNK A   0     -12.294  15.907  72.265  0.00  0.00    +0.046 C 
ATOM     14  C   UNK A   0     -13.077  15.496  70.864  0.00  0.00    +0.229 C 
ATOM     15  O   UNK A   0     -13.169  14.023  71.260  0.00  0.00    -0.213 OA
ENDBRANCH  10  14
ENDBRANCH   1  11
BRANCH   4  16
ATOM     16  C   UNK A   0      -7.260  17.038  68.074  0.00  0.00    +0.266 C 
ATOM     17  N   SER A   1      -7.132  17.804  69.248  0.00  0.00    -0.198 NA
ATOM     18  O   UNK A   0      -6.291  17.095  67.260  0.00  0.00    -0.268 OA
BRANCH  17  19
ATOM     19  CA  SER A   1      -5.938  18.544  69.631  0.00  0.00    +0.161 C 
BRANCH  19  20
ATOM     20  C   SER A   1      -6.185  19.998  69.851  0.00  0.00    +0.206 C 
ATOM     21  O   SER A   1      -5.248  20.763  69.154  0.00  0.00    -0.218 OA
ENDBRANCH  19  20
BRANCH  19  22
ATOM     22  CB  SER A   1      -5.180  17.903  70.743  0.00  0.00    +0.206 C 
ATOM     23  OG  SER A   1      -5.161  18.629  71.917  0.00  0.00    -0.218 OA
ENDBRANCH  19  22
ENDBRANCH  17  19
ENDBRANCH   4  16
BRANCH   7  24
ATOM     24  C   UNK A   0      -8.106  12.259  67.821  0.00  0.00    +0.266 C 
ATOM     25  N   SER A   1      -8.250  11.200  68.777  0.00  0.00    -0.198 NA
ATOM     26  O   UNK A   0      -8.018  11.852  66.625  0.00  0.00    -0.268 OA
BRANCH  25  27
ATOM     27  CA  SER A   1      -7.221  10.203  68.807  0.00  0.00    +0.161 C 
BRANCH  27  28
ATOM     28  C   SER A   1      -6.330  10.273  70.016  0.00  0.00    +0.206 C 
ATOM     29  O   SER A   1      -6.939   9.804  71.174  0.00  0.00    -0.218 OA
ENDBRANCH  27  28
BRANCH  27  30
ATOM     30  CB  SER A   1      -7.773   8.801  68.582  0.00  0.00    +0.206 C 
ATOM     31  OG  SER A   1      -9.154   8.960  68.428  0.00  0.00    -0.218 OA
ENDBRANCH  27  30
ENDBRANCH  25  27
ENDBRANCH   7  24
TORSDOF 10
ENDMDL
MODEL 8
REMARK VINA RESULT:      -4.9      5.748      9.485
REMARK  Name = 
REMARK  10 active torsions:
REMARK  status: ('A' for Active; 'I' for Inactive)
REMARK    1  A    between atoms: C_2  and  C_4
REMARK    2  A    between atoms: N_6  and  C_7
REMARK    3  A    between atoms: C_10  and  C_11
REMARK    4  A    between atoms: N_13  and  CA_14
REMARK    5  A    between atoms: CA_14  and  CB_15
REMARK    6  A    between atoms: CA_14  and  C_17
REMARK    7  A    between atoms: C_21  and  C_22
REMARK    8  A    between atoms: N_24  and  CA_25
REMARK    9  A    between atoms: CA_25  and  CB_26
REMARK   10  A    between atoms: CA_25  and  C_28
REMARK                            x       y       z     vdW  Elec       q    Type
REMARK                         _______ _______ _______ _____ _____    ______ ____
ROOT
ATOM      1  C   UNK A   0      -9.418   9.179  65.359  0.00  0.00    +0.084 A 
ATOM      2  C   UNK A   0      -9.703   8.756  66.653  0.00  0.00    +0.051 A 
ATOM      3  I   UNK A   0      -9.285   6.745  67.062  0.00  0.00    -0.041 I 
ATOM      4  C   UNK A   0     -10.125   9.602  67.655  0.00  0.00    +0.067 A 
ATOM      5  C   UNK A   0     -10.461  10.913  67.326  0.00  0.00    +0.040 A 
ATOM      6  I   UNK A   0     -10.270  12.457  68.762  0.00  0.00    -0.042 I 
ATOM      7  C   UNK A   0     -10.394  11.311  65.995  0.00  0.00    +0.067 A 
ATOM      8  C   UNK A   0     -10.025  10.386  65.024  0.00  0.00    +0.051 A 
ATOM      9  I   UNK A   0      -9.859  11.022  63.045  0.00  0.00    -0.041 I 
ENDROOT
BRANCH   1  11
ATOM     10  C   UNK A   0      -7.021   9.436  64.993  0.00  0.00    +0.276 C 
ATOM     11  N   UNK A   0      -8.191   8.799  64.755  0.00  0.00    -0.176 NA
ATOM     12  O   UNK A   0      -6.795  10.044  66.041  0.00  0.00    -0.270 OA
BRANCH  10  14
ATOM     13  C   UNK A   0      -4.715   9.888  65.149  0.00  0.00    +0.046 C 
ATOM     14  C   UNK A   0      -5.712   9.077  64.104  0.00  0.00    +0.229 C 
ATOM     15  O   UNK A   0      -5.831  10.278  63.167  0.00  0.00    -0.213 OA
ENDBRANCH  10  14
ENDBRANCH   1  11
BRANCH   4  16
ATOM     16  C   UNK A   0     -10.085   9.204  69.071  0.00  0.00    +0.266 C 
ATOM     17  N   SER A   1     -11.179   8.622  69.738  0.00  0.00    -0.198 NA
ATOM     18  O   UNK A   0      -8.949   9.040  69.609  0.00  0.00    -0.268 OA
BRANCH  17  19
ATOM     19  CA  SER A   1     -11.076   7.767  70.912  0.00  0.00    +0.161 C 
BRANCH  19  20
ATOM     20  C   SER A   1     -11.053   8.521  72.198  0.00  0.00    +0.206 C 
ATOM     21  O   SER A   1     -10.106   7.976  73.067  0.00  0.00    -0.218 OA
ENDBRANCH  19  20
BRANCH  19  22
ATOM     22  CB  SER A   1     -12.056   6.644  70.909  0.00  0.00    +0.206 C 
ATOM     23  OG  SER A   1     -13.286   6.955  71.452  0.00  0.00    -0.218 OA
ENDBRANCH  19  22
ENDBRANCH  17  19
ENDBRANCH   4  16
BRANCH   7  24
ATOM     24  C   UNK A   0     -11.272  12.436  65.639  0.00  0.00    +0.266 C 
ATOM     25  N   SER A   1     -10.668  13.629  65.123  0.00  0.00    -0.198 NA
ATOM     26  O   UNK A   0     -12.459  12.254  65.236  0.00  0.00    -0.268 OA
BRANCH  25  27
ATOM     27  CA  SER A   1     -11.336  14.868  65.391  0.00  0.00    +0.161 C 
BRANCH  27  28
ATOM     28  C   SER A   1     -10.452  15.928  65.986  0.00  0.00    +0.206 C 
ATOM     29  O   SER A   1      -9.102  15.602  65.948  0.00  0.00    -0.218 OA
ENDBRANCH  27  28
BRANCH  27  30
ATOM     30  CB  SER A   1     -12.108  15.377  64.182  0.00  0.00    +0.206 C 
ATOM     31  OG  SER A   1     -11.583  16.644  63.905  0.00  0.00    -0.218 OA
ENDBRANCH  27  30
ENDBRANCH  25  27
ENDBRANCH   7  24
TORSDOF 10
ENDMDL
MODEL 9
REMARK VINA RESULT:      -4.9      5.640      9.766
REMARK  Name = 
REMARK  10 active torsions:
REMARK  status: ('A' for Active; 'I' for Inactive)
REMARK    1  A    between atoms: C_2  and  C_4
REMARK    2  A    between atoms: N_6  and  C_7
REMARK    3  A    between atoms: C_10  and  C_11
REMARK    4  A    between atoms: N_13  and  CA_14
REMARK    5  A    between atoms: CA_14  and  CB_15
REMARK    6  A    between atoms: CA_14  and  C_17
REMARK    7  A    between atoms: C_21  and  C_22
REMARK    8  A    between atoms: N_24  and  CA_25
REMARK    9  A    between atoms: CA_25  and  CB_26
REMARK   10  A    between atoms: CA_25  and  C_28
REMARK                            x       y       z     vdW  Elec       q    Type
REMARK                         _______ _______ _______ _____ _____    ______ ____
ROOT
ATOM      1  C   UNK A   0      -9.924   9.867  68.262  0.00  0.00    +0.084 A 
ATOM      2  C   UNK A   0      -8.936   9.633  67.311  0.00  0.00    +0.051 A 
ATOM      3  I   UNK A   0      -7.476   8.230  67.847  0.00  0.00    -0.041 I 
ATOM      4  C   UNK A   0      -8.951  10.182  66.048  0.00  0.00    +0.067 A 
ATOM      5  C   UNK A   0      -9.895  11.164  65.757  0.00  0.00    +0.040 A 
ATOM      6  I   UNK A   0     -10.578  11.432  63.771  0.00  0.00    -0.042 I 
ATOM      7  C   UNK A   0     -10.764  11.579  66.759  0.00  0.00    +0.067 A 
ATOM      8  C   UNK A   0     -10.651  11.030  68.031  0.00  0.00    +0.051 A 
ATOM      9  I   UNK A   0     -12.012  11.614  69.500  0.00  0.00    -0.041 I 
ENDROOT
BRANCH   1  11
ATOM     10  C   UNK A   0     -10.138   8.359  70.167  0.00  0.00    +0.276 C 
ATOM     11  N   UNK A   0     -10.520   8.767  68.934  0.00  0.00    -0.176 NA
ATOM     12  O   UNK A   0      -9.624   9.119  70.990  0.00  0.00    -0.270 OA
BRANCH  10  14
ATOM     13  C   UNK A   0     -11.029   6.379  69.257  0.00  0.00    +0.046 C 
ATOM     14  C   UNK A   0     -10.720   6.970  70.773  0.00  0.00    +0.229 C 
ATOM     15  O   UNK A   0     -12.152   7.472  70.951  0.00  0.00    -0.213 OA
ENDBRANCH  10  14
ENDBRANCH   1  11
BRANCH   4  16
ATOM     16  C   UNK A   0      -8.102   9.657  64.967  0.00  0.00    +0.266 C 
ATOM     17  N   SER A   1      -8.495   8.604  64.121  0.00  0.00    -0.198 NA
ATOM     18  O   UNK A   0      -7.158  10.391  64.545  0.00  0.00    -0.268 OA
BRANCH  17  19
ATOM     19  CA  SER A   1      -7.982   8.382  62.777  0.00  0.00    +0.161 C 
BRANCH  19  20
ATOM     20  C   SER A   1      -7.276   7.077  62.619  0.00  0.00    +0.206 C 
ATOM     21  O   SER A   1      -7.411   6.604  61.312  0.00  0.00    -0.218 OA
ENDBRANCH  19  20
BRANCH  19  22
ATOM     22  CB  SER A   1      -8.992   8.634  61.711  0.00  0.00    +0.206 C 
ATOM     23  OG  SER A   1      -8.704   9.706  60.890  0.00  0.00    -0.218 OA
ENDBRANCH  19  22
ENDBRANCH  17  19
ENDBRANCH   4  16
BRANCH   7  24
ATOM     24  C   UNK A   0     -11.297  12.940  66.592  0.00  0.00    +0.266 C 
ATOM     25  N   SER A   1     -10.364  14.025  66.499  0.00  0.00    -0.198 NA
ATOM     26  O   UNK A   0     -12.390  13.160  65.992  0.00  0.00    -0.268 OA
BRANCH  25  27
ATOM     27  CA  SER A   1     -10.796  15.301  66.988  0.00  0.00    +0.161 C 
BRANCH  27  28
ATOM     28  C   SER A   1     -10.812  15.414  68.486  0.00  0.00    +0.206 C 
ATOM     29  O   SER A   1     -11.766  16.306  68.960  0.00  0.00    -0.218 OA
ENDBRANCH  27  28
BRANCH  27  30
ATOM     30  CB  SER A   1     -10.043  16.451  66.334  0.00  0.00    +0.206 C 
ATOM     31  OG  SER A   1     -10.492  16.493  65.010  0.00  0.00    -0.218 OA
ENDBRANCH  27  30
ENDBRANCH  25  27
ENDBRANCH   7  24
TORSDOF 10
ENDMDL
