MODEL 1
REMARK VINA RESULT:      -8.1      0.000      0.000
REMARK  Name = 
REMARK  5 active torsions:
REMARK  status: ('A' for Active; 'I' for Inactive)
REMARK    1  A    between atoms: C_2  and  C_3
REMARK    2  A    between atoms: C_3  and  O_5
REMARK    3  A    between atoms: O_5  and  C_6
REMARK    4  A    between atoms: C_6  and  C_7
REMARK    5  A    between atoms: C_7  and  C_9
REMARK                            x       y       z     vdW  Elec       q    Type
REMARK                         _______ _______ _______ _____ _____    ______ ____
ROOT
ATOM      1  C   UNL     1     -11.058  13.733  67.146  0.00  0.00    +0.187 C 
ATOM      2  C   UNL     1      -9.910  14.611  67.431  0.00  0.00    +0.043 C 
ATOM      3  C   UNL     1     -10.870  15.909  67.443  0.00  0.00    +0.007 C 
ATOM      4  C   UNL     1      -9.662  16.892  68.105  0.00  0.00    +0.036 C 
ATOM      5  C   UNL     1      -8.948  17.160  66.698  0.00  0.00    +0.168 C 
ATOM      6  C   UNL     1      -7.926  15.910  66.431  0.00  0.00    +0.182 C 
ATOM      7  O   UNL     1      -7.658  15.639  67.902  0.00  0.00    -0.220 OA
ATOM      8  F   UNL     1      -9.796  17.261  65.705  0.00  0.00    -0.237 F 
ATOM      9  C   UNL     1      -8.022  18.278  66.991  0.00  0.00    +0.066 C 
ATOM     10  C   UNL     1      -8.789  19.541  67.225  0.00  0.00    -0.003 C 
ATOM     11  C   UNL     1      -8.009  20.618  67.354  0.00  0.00    +0.036 C 
ATOM     12  C   UNL     1      -6.571  20.600  67.059  0.00  0.00    +0.195 C 
ATOM     13  C   UNL     1      -6.089  19.458  66.269  0.00  0.00    +0.038 C 
ATOM     14  O   UNL     1      -5.833  21.615  67.242  0.00  0.00    -0.287 OA
ATOM     15  C   UNL     1      -9.647  19.356  68.598  0.00  0.00    +0.180 C 
ATOM     16  F   UNL     1     -10.604  20.455  68.197  0.00  0.00    -0.233 F 
ATOM     17  C   UNL     1      -7.266  18.084  68.299  0.00  0.00    +0.011 C 
ATOM     18  C   UNL     1      -7.029  18.567  65.946  0.00  0.00    -0.017 C 
ATOM     19  C   UNL     1     -10.613  18.198  67.924  0.00  0.00    +0.042 C 
ATOM     20  C   UNL     1     -11.422  15.413  68.879  0.00  0.00    +0.004 C 
ATOM     21  C   UNL     1      -9.402  14.283  68.759  0.00  0.00    +0.004 C 
ATOM     22  C   UNL     1      -9.102  14.772  66.284  0.00  0.00    +0.039 C 
ATOM     23  C   UNL     1     -12.199  14.122  68.244  0.00  0.00    +0.044 C 
ATOM     24  C   UNL     1     -11.646  13.096  69.388  0.00  0.00    +0.004 C 
ENDROOT
BRANCH   1  25
ATOM     25  C   UNL     1     -10.831  12.301  67.193  0.00  0.00    +0.203 C 
ATOM     26  O   UNL     1     -11.772  11.567  67.427  0.00  0.00    -0.291 OA
BRANCH  25  27
ATOM     27  C   UNL     1      -9.497  11.658  67.073  0.00  0.00    +0.163 C 
ATOM     28 CL   UNL     1      -9.676  10.021  66.387  0.00  0.00    -0.105 Cl
ENDBRANCH  25  27
ENDBRANCH   1  25
BRANCH   1  29
ATOM     29  O   UNL     1     -11.779  14.182  65.998  0.00  0.00    -0.449 OA
BRANCH  29  30
ATOM     30  C   UNL     1     -11.996  13.323  64.944  0.00  0.00    +0.317 C 
ATOM     31  O   UNL     1     -13.158  12.815  64.980  0.00  0.00    -0.250 OA
BRANCH  30  33
ATOM     32  C   UNL     1     -11.117  11.771  63.514  0.00  0.00    +0.012 C 
ATOM     33  C   UNL     1     -10.927  12.814  64.039  0.00  0.00    +0.110 C 
ENDBRANCH  30  33
ENDBRANCH  29  30
ENDBRANCH   1  29
TORSDOF 5
ENDMDL
MODEL 2
REMARK VINA RESULT:      -7.6      1.991      3.533
REMARK  Name = 
REMARK  5 active torsions:
REMARK  status: ('A' for Active; 'I' for Inactive)
REMARK    1  A    between atoms: C_2  and  C_3
REMARK    2  A    between atoms: C_3  and  O_5
REMARK    3  A    between atoms: O_5  and  C_6
REMARK    4  A    between atoms: C_6  and  C_7
REMARK    5  A    between atoms: C_7  and  C_9
REMARK                            x       y       z     vdW  Elec       q    Type
REMARK                         _______ _______ _______ _____ _____    ______ ____
ROOT
ATOM      1  C   UNL     1     -10.555  13.466  67.671  0.00  0.00    +0.187 C 
ATOM      2  C   UNL     1     -10.026  14.706  67.077  0.00  0.00    +0.043 C 
ATOM      3  C   UNL     1      -8.795  14.713  68.121  0.00  0.00    +0.007 C 
ATOM      4  C   UNL     1      -7.973  15.918  67.263  0.00  0.00    +0.036 C 
ATOM      5  C   UNL     1      -8.816  17.115  67.909  0.00  0.00    +0.168 C 
ATOM      6  C   UNL     1     -10.183  17.274  67.024  0.00  0.00    +0.182 C 
ATOM      7  O   UNL     1      -9.560  16.782  65.727  0.00  0.00    -0.220 OA
ATOM      8  F   UNL     1      -9.122  16.905  69.165  0.00  0.00    -0.237 F 
ATOM      9  C   UNL     1      -8.044  18.321  67.532  0.00  0.00    +0.066 C 
ATOM     10  C   UNL     1      -6.754  18.371  68.289  0.00  0.00    -0.003 C 
ATOM     11  C   UNL     1      -6.074  19.506  68.101  0.00  0.00    +0.036 C 
ATOM     12  C   UNL     1      -6.646  20.673  67.418  0.00  0.00    +0.195 C 
ATOM     13  C   UNL     1      -8.107  20.683  67.271  0.00  0.00    +0.038 C 
ATOM     14  O   UNL     1      -5.967  21.722  67.197  0.00  0.00    -0.287 OA
ATOM     15  C   UNL     1      -5.832  17.126  67.784  0.00  0.00    +0.180 C 
ATOM     16  F   UNL     1      -5.002  17.176  69.046  0.00  0.00    -0.233 F 
ATOM     17  C   UNL     1      -7.591  18.295  66.077  0.00  0.00    +0.011 C 
ATOM     18  C   UNL     1      -8.724  19.604  67.758  0.00  0.00    -0.017 C 
ATOM     19  C   UNL     1      -6.855  16.008  68.440  0.00  0.00    +0.042 C 
ATOM     20  C   UNL     1      -8.147  13.498  67.274  0.00  0.00    +0.004 C 
ATOM     21  C   UNL     1      -9.597  14.412  65.714  0.00  0.00    +0.004 C 
ATOM     22  C   UNL     1     -10.816  15.818  67.444  0.00  0.00    +0.039 C 
ATOM     23  C   UNL     1      -9.296  12.432  67.739  0.00  0.00    +0.044 C 
ATOM     24  C   UNL     1      -9.513  11.850  66.228  0.00  0.00    +0.004 C 
ENDROOT
BRANCH   1  25
ATOM     25  C   UNL     1     -11.658  12.816  66.988  0.00  0.00    +0.203 C 
ATOM     26  O   UNL     1     -11.820  11.621  67.142  0.00  0.00    -0.291 OA
BRANCH  25  27
ATOM     27  C   UNL     1     -12.561  13.493  66.022  0.00  0.00    +0.163 C 
ATOM     28 CL   UNL     1     -12.632  12.557  64.505  0.00  0.00    -0.105 Cl
ENDBRANCH  25  27
ENDBRANCH   1  25
BRANCH   1  29
ATOM     29  O   UNL     1     -10.728  13.602  69.082  0.00  0.00    -0.449 OA
BRANCH  29  30
ATOM     30  C   UNL     1     -11.883  13.149  69.679  0.00  0.00    +0.317 C 
ATOM     31  O   UNL     1     -12.713  14.088  69.875  0.00  0.00    -0.250 OA
BRANCH  30  33
ATOM     32  C   UNL     1     -12.769  11.712  71.221  0.00  0.00    +0.012 C 
ATOM     33  C   UNL     1     -12.041  11.799  70.292  0.00  0.00    +0.110 C 
ENDBRANCH  30  33
ENDBRANCH  29  30
ENDBRANCH   1  29
TORSDOF 5
ENDMDL
MODEL 3
REMARK VINA RESULT:      -7.5      1.087      1.134
REMARK  Name = 
REMARK  5 active torsions:
REMARK  status: ('A' for Active; 'I' for Inactive)
REMARK    1  A    between atoms: C_2  and  C_3
REMARK    2  A    between atoms: C_3  and  O_5
REMARK    3  A    between atoms: O_5  and  C_6
REMARK    4  A    between atoms: C_6  and  C_7
REMARK    5  A    between atoms: C_7  and  C_9
REMARK                            x       y       z     vdW  Elec       q    Type
REMARK                         _______ _______ _______ _____ _____    ______ ____
ROOT
ATOM      1  C   UNL     1     -10.723  13.814  66.785  0.00  0.00    +0.187 C 
ATOM      2  C   UNL     1      -9.667  14.627  67.412  0.00  0.00    +0.043 C 
ATOM      3  C   UNL     1     -10.435  15.987  67.010  0.00  0.00    +0.007 C 
ATOM      4  C   UNL     1      -9.446  16.933  68.004  0.00  0.00    +0.036 C 
ATOM      5  C   UNL     1      -8.260  17.025  66.933  0.00  0.00    +0.168 C 
ATOM      6  C   UNL     1      -7.339  15.685  67.117  0.00  0.00    +0.182 C 
ATOM      7  O   UNL     1      -7.633  15.523  68.600  0.00  0.00    -0.220 OA
ATOM      8  F   UNL     1      -8.692  17.102  65.699  0.00  0.00    -0.237 F 
ATOM      9  C   UNL     1      -7.390  18.093  67.475  0.00  0.00    +0.066 C 
ATOM     10  C   UNL     1      -8.060  19.425  67.350  0.00  0.00    -0.003 C 
ATOM     11  C   UNL     1      -7.272  20.448  67.691  0.00  0.00    +0.036 C 
ATOM     12  C   UNL     1      -5.831  20.299  67.929  0.00  0.00    +0.195 C 
ATOM     13  C   UNL     1      -5.219  19.061  67.428  0.00  0.00    +0.038 C 
ATOM     14  O   UNL     1      -5.108  21.270  68.308  0.00  0.00    -0.287 OA
ATOM     15  C   UNL     1      -9.360  19.422  68.334  0.00  0.00    +0.180 C 
ATOM     16  F   UNL     1     -10.000  20.550  67.558  0.00  0.00    -0.233 F 
ATOM     17  C   UNL     1      -7.164  17.958  68.976  0.00  0.00    +0.011 C 
ATOM     18  C   UNL     1      -6.069  18.216  66.840  0.00  0.00    -0.017 C 
ATOM     19  C   UNL     1     -10.137  18.284  67.424  0.00  0.00    +0.042 C 
ATOM     20  C   UNL     1     -11.503  15.659  68.178  0.00  0.00    +0.004 C 
ATOM     21  C   UNL     1      -9.692  14.378  68.850  0.00  0.00    +0.004 C 
ATOM     22  C   UNL     1      -8.495  14.628  66.623  0.00  0.00    +0.039 C 
ATOM     23  C   UNL     1     -12.131  14.379  67.379  0.00  0.00    +0.044 C 
ATOM     24  C   UNL     1     -12.120  13.418  68.700  0.00  0.00    +0.004 C 
ENDROOT
BRANCH   1  25
ATOM     25  C   UNL     1     -10.670  12.378  66.988  0.00  0.00    +0.203 C 
ATOM     26  O   UNL     1     -11.708  11.745  66.965  0.00  0.00    -0.291 OA
BRANCH  25  27
ATOM     27  C   UNL     1      -9.436  11.623  67.326  0.00  0.00    +0.163 C 
ATOM     28 CL   UNL     1      -9.672  10.735  68.854  0.00  0.00    -0.105 Cl
ENDBRANCH  25  27
ENDBRANCH   1  25
BRANCH   1  29
ATOM     29  O   UNL     1     -10.947  14.214  65.432  0.00  0.00    -0.449 OA
BRANCH  29  30
ATOM     30  C   UNL     1     -11.049  13.261  64.443  0.00  0.00    +0.317 C 
ATOM     31  O   UNL     1      -9.912  12.827  64.086  0.00  0.00    -0.250 OA
BRANCH  30  33
ATOM     32  C   UNL     1     -12.562  11.842  63.481  0.00  0.00    +0.012 C 
ATOM     33  C   UNL     1     -12.293  12.979  63.671  0.00  0.00    +0.110 C 
ENDBRANCH  30  33
ENDBRANCH  29  30
ENDBRANCH   1  29
TORSDOF 5
ENDMDL
MODEL 4
REMARK VINA RESULT:      -7.3      2.998      7.293
REMARK  Name = 
REMARK  5 active torsions:
REMARK  status: ('A' for Active; 'I' for Inactive)
REMARK    1  A    between atoms: C_2  and  C_3
REMARK    2  A    between atoms: C_3  and  O_5
REMARK    3  A    between atoms: O_5  and  C_6
REMARK    4  A    between atoms: C_6  and  C_7
REMARK    5  A    between atoms: C_7  and  C_9
REMARK                            x       y       z     vdW  Elec       q    Type
REMARK                         _______ _______ _______ _____ _____    ______ ____
ROOT
ATOM      1  C   UNL     1      -7.938  18.574  67.311  0.00  0.00    +0.187 C 
ATOM      2  C   UNL     1      -8.776  17.390  67.054  0.00  0.00    +0.043 C 
ATOM      3  C   UNL     1      -9.299  17.393  68.581  0.00  0.00    +0.007 C 
ATOM      4  C   UNL     1     -10.521  16.272  68.247  0.00  0.00    +0.036 C 
ATOM      5  C   UNL     1      -9.546  15.006  68.352  0.00  0.00    +0.168 C 
ATOM      6  C   UNL     1      -8.837  14.823  66.888  0.00  0.00    +0.182 C 
ATOM      7  O   UNL     1     -10.001  15.404  66.102  0.00  0.00    -0.220 OA
ATOM      8  F   UNL     1      -8.629  15.143  69.276  0.00  0.00    -0.237 F 
ATOM      9  C   UNL     1     -10.480  13.858  68.406  0.00  0.00    +0.066 C 
ATOM     10  C   UNL     1     -11.202  13.835  69.716  0.00  0.00    -0.003 C 
ATOM     11  C   UNL     1     -11.955  12.745  69.887  0.00  0.00    +0.036 C 
ATOM     12  C   UNL     1     -11.890  11.584  68.990  0.00  0.00    +0.195 C 
ATOM     13  C   UNL     1     -10.713  11.510  68.114  0.00  0.00    +0.038 C 
ATOM     14  O   UNL     1     -12.653  10.581  69.132  0.00  0.00    -0.287 OA
ATOM     15  C   UNL     1     -12.169  15.146  69.775  0.00  0.00    +0.180 C 
ATOM     16  F   UNL     1     -12.239  15.078  71.283  0.00  0.00    -0.233 F 
ATOM     17  C   UNL     1     -11.609  13.974  67.389  0.00  0.00    +0.011 C 
ATOM     18  C   UNL     1      -9.864  12.534  68.232  0.00  0.00    -0.017 C 
ATOM     19  C   UNL     1     -10.883  16.182  69.830  0.00  0.00    +0.042 C 
ATOM     20  C   UNL     1     -10.207  18.677  68.204  0.00  0.00    +0.004 C 
ATOM     21  C   UNL     1      -9.821  17.767  66.108  0.00  0.00    +0.004 C 
ATOM     22  C   UNL     1      -7.984  16.225  66.947  0.00  0.00    +0.039 C 
ATOM     23  C   UNL     1      -8.915  19.663  68.030  0.00  0.00    +0.044 C 
ATOM     24  C   UNL     1      -9.462  20.304  66.631  0.00  0.00    +0.004 C 
ENDROOT
BRANCH   1  25
ATOM     25  C   UNL     1      -7.299  19.200  66.169  0.00  0.00    +0.203 C 
ATOM     26  O   UNL     1      -7.015  18.512  65.207  0.00  0.00    -0.291 OA
BRANCH  25  27
ATOM     27  C   UNL     1      -6.866  20.621  66.124  0.00  0.00    +0.163 C 
ATOM     28 CL   UNL     1      -5.258  20.738  65.363  0.00  0.00    -0.105 Cl
ENDBRANCH  25  27
ENDBRANCH   1  25
BRANCH   1  29
ATOM     29  O   UNL     1      -7.078  18.364  68.431  0.00  0.00    -0.449 OA
BRANCH  29  30
ATOM     30  C   UNL     1      -5.752  18.728  68.357  0.00  0.00    +0.317 C 
ATOM     31  O   UNL     1      -5.038  17.811  67.847  0.00  0.00    -0.250 OA
BRANCH  30  33
ATOM     32  C   UNL     1      -5.817  20.425  69.888  0.00  0.00    +0.012 C 
ATOM     33  C   UNL     1      -5.163  19.912  69.046  0.00  0.00    +0.110 C 
ENDBRANCH  30  33
ENDBRANCH  29  30
ENDBRANCH   1  29
TORSDOF 5
ENDMDL
MODEL 5
REMARK VINA RESULT:      -7.1      1.921      2.956
REMARK  Name = 
REMARK  5 active torsions:
REMARK  status: ('A' for Active; 'I' for Inactive)
REMARK    1  A    between atoms: C_2  and  C_3
REMARK    2  A    between atoms: C_3  and  O_5
REMARK    3  A    between atoms: O_5  and  C_6
REMARK    4  A    between atoms: C_6  and  C_7
REMARK    5  A    between atoms: C_7  and  C_9
REMARK                            x       y       z     vdW  Elec       q    Type
REMARK                         _______ _______ _______ _____ _____    ______ ____
ROOT
ATOM      1  C   UNL     1     -10.328  13.560  66.695  0.00  0.00    +0.187 C 
ATOM      2  C   UNL     1      -9.981  14.771  67.457  0.00  0.00    +0.043 C 
ATOM      3  C   UNL     1      -9.098  15.327  66.225  0.00  0.00    +0.007 C 
ATOM      4  C   UNL     1      -8.962  16.866  66.915  0.00  0.00    +0.036 C 
ATOM      5  C   UNL     1      -7.755  16.453  67.882  0.00  0.00    +0.168 C 
ATOM      6  C   UNL     1      -8.417  15.796  69.226  0.00  0.00    +0.182 C 
ATOM      7  O   UNL     1      -9.698  16.611  69.156  0.00  0.00    -0.220 OA
ATOM      8  F   UNL     1      -6.929  15.599  67.330  0.00  0.00    -0.237 F 
ATOM      9  C   UNL     1      -7.247  17.754  68.373  0.00  0.00    +0.066 C 
ATOM     10  C   UNL     1      -6.558  18.494  67.270  0.00  0.00    -0.003 C 
ATOM     11  C   UNL     1      -5.953  19.612  67.680  0.00  0.00    +0.036 C 
ATOM     12  C   UNL     1      -5.780  19.950  69.098  0.00  0.00    +0.195 C 
ATOM     13  C   UNL     1      -5.969  18.848  70.052  0.00  0.00    +0.038 C 
ATOM     14  O   UNL     1      -5.256  21.043  69.470  0.00  0.00    -0.287 OA
ATOM     15  C   UNL     1      -7.681  18.891  66.158  0.00  0.00    +0.180 C 
ATOM     16  F   UNL     1      -6.624  19.055  65.090  0.00  0.00    -0.233 F 
ATOM     17  C   UNL     1      -8.368  18.703  68.779  0.00  0.00    +0.011 C 
ATOM     18  C   UNL     1      -6.303  17.681  69.497  0.00  0.00    -0.017 C 
ATOM     19  C   UNL     1      -7.931  17.312  65.741  0.00  0.00    +0.042 C 
ATOM     20  C   UNL     1     -10.484  15.660  65.461  0.00  0.00    +0.004 C 
ATOM     21  C   UNL     1     -11.200  15.547  67.663  0.00  0.00    +0.004 C 
ATOM     22  C   UNL     1      -9.040  14.478  68.470  0.00  0.00    +0.039 C 
ATOM     23  C   UNL     1     -10.855  14.083  65.244  0.00  0.00    +0.044 C 
ATOM     24  C   UNL     1     -12.406  14.276  65.722  0.00  0.00    +0.004 C 
ENDROOT
BRANCH   1  25
ATOM     25  C   UNL     1     -11.326  12.675  67.266  0.00  0.00    +0.203 C 
ATOM     26  O   UNL     1     -12.087  12.091  66.519  0.00  0.00    -0.291 OA
BRANCH  25  27
ATOM     27  C   UNL     1     -11.558  12.501  68.723  0.00  0.00    +0.163 C 
ATOM     28 CL   UNL     1     -11.760  10.770  69.099  0.00  0.00    -0.105 Cl
ENDBRANCH  25  27
ENDBRANCH   1  25
BRANCH   1  29
ATOM     29  O   UNL     1      -9.157  12.900  66.213  0.00  0.00    -0.449 OA
BRANCH  29  30
ATOM     30  C   UNL     1      -9.038  11.534  66.338  0.00  0.00    +0.317 C 
ATOM     31  O   UNL     1      -8.499  11.206  67.439  0.00  0.00    -0.250 OA
BRANCH  30  33
ATOM     32  C   UNL     1      -9.906   9.617  65.444  0.00  0.00    +0.012 C 
ATOM     33  C   UNL     1      -9.234  10.565  65.222  0.00  0.00    +0.110 C 
ENDBRANCH  30  33
ENDBRANCH  29  30
ENDBRANCH   1  29
TORSDOF 5
ENDMDL
MODEL 6
REMARK VINA RESULT:      -6.7      3.708      6.344
REMARK  Name = 
REMARK  5 active torsions:
REMARK  status: ('A' for Active; 'I' for Inactive)
REMARK    1  A    between atoms: C_2  and  C_3
REMARK    2  A    between atoms: C_3  and  O_5
REMARK    3  A    between atoms: O_5  and  C_6
REMARK    4  A    between atoms: C_6  and  C_7
REMARK    5  A    between atoms: C_7  and  C_9
REMARK                            x       y       z     vdW  Elec       q    Type
REMARK                         _______ _______ _______ _____ _____    ______ ____
ROOT
ATOM      1  C   UNL     1      -9.185   9.128  69.147  0.00  0.00    +0.187 C 
ATOM      2  C   UNL     1      -9.451   9.922  67.935  0.00  0.00    +0.043 C 
ATOM      3  C   UNL     1      -9.072  11.286  68.710  0.00  0.00    +0.007 C 
ATOM      4  C   UNL     1      -9.027  12.181  67.276  0.00  0.00    +0.036 C 
ATOM      5  C   UNL     1     -10.613  12.393  67.222  0.00  0.00    +0.168 C 
ATOM      6  C   UNL     1     -11.250  11.071  66.498  0.00  0.00    +0.182 C 
ATOM      7  O   UNL     1     -10.028  10.787  65.639  0.00  0.00    -0.220 OA
ATOM      8  F   UNL     1     -11.147  12.551  68.407  0.00  0.00    -0.237 F 
ATOM      9  C   UNL     1     -10.784  13.442  66.192  0.00  0.00    +0.066 C 
ATOM     10  C   UNL     1     -10.287  14.758  66.700  0.00  0.00    -0.003 C 
ATOM     11  C   UNL     1     -10.542  15.776  65.874  0.00  0.00    +0.036 C 
ATOM     12  C   UNL     1     -11.426  15.653  64.708  0.00  0.00    +0.195 C 
ATOM     13  C   UNL     1     -12.307  14.477  64.687  0.00  0.00    +0.038 C 
ATOM     14  O   UNL     1     -11.611  16.613  63.900  0.00  0.00    -0.287 OA
ATOM     15  C   UNL     1      -8.672  14.640  66.893  0.00  0.00    +0.180 C 
ATOM     16  F   UNL     1      -8.661  15.803  67.857  0.00  0.00    -0.233 F 
ATOM     17  C   UNL     1      -9.922  13.198  64.959  0.00  0.00    +0.011 C 
ATOM     18  C   UNL     1     -12.163  13.655  65.729  0.00  0.00    -0.017 C 
ATOM     19  C   UNL     1      -8.826  13.552  68.126  0.00  0.00    +0.042 C 
ATOM     20  C   UNL     1      -7.522  10.836  68.621  0.00  0.00    +0.004 C 
ATOM     21  C   UNL     1      -8.460   9.562  66.926  0.00  0.00    +0.004 C 
ATOM     22  C   UNL     1     -10.839  10.021  67.691  0.00  0.00    +0.039 C 
ATOM     23  C   UNL     1      -7.718   9.603  69.676  0.00  0.00    +0.044 C 
ATOM     24  C   UNL     1      -6.888   8.543  68.750  0.00  0.00    +0.004 C 
ENDROOT
BRANCH   1  25
ATOM     25  C   UNL     1      -9.191   7.684  69.014  0.00  0.00    +0.203 C 
ATOM     26  O   UNL     1      -9.942   7.174  68.205  0.00  0.00    -0.291 OA
BRANCH  25  27
ATOM     27  C   UNL     1      -8.410   6.759  69.875  0.00  0.00    +0.163 C 
ATOM     28 CL   UNL     1      -9.357   5.280  70.187  0.00  0.00    -0.105 Cl
ENDBRANCH  25  27
ENDBRANCH   1  25
BRANCH   1  29
ATOM     29  O   UNL     1      -9.926   9.625  70.262  0.00  0.00    -0.449 OA
BRANCH  29  30
ATOM     30  C   UNL     1     -10.570   8.746  71.104  0.00  0.00    +0.317 C 
ATOM     31  O   UNL     1     -11.779   8.566  70.763  0.00  0.00    -0.250 OA
BRANCH  30  33
ATOM     32  C   UNL     1     -10.690   7.522  73.031  0.00  0.00    +0.012 C 
ATOM     33  C   UNL     1     -10.031   8.288  72.416  0.00  0.00    +0.110 C 
ENDBRANCH  30  33
ENDBRANCH  29  30
ENDBRANCH   1  29
TORSDOF 5
ENDMDL
MODEL 7
REMARK VINA RESULT:      -6.6      4.380      8.589
REMARK  Name = 
REMARK  5 active torsions:
REMARK  status: ('A' for Active; 'I' for Inactive)
REMARK    1  A    between atoms: C_2  and  C_3
REMARK    2  A    between atoms: C_3  and  O_5
REMARK    3  A    between atoms: O_5  and  C_6
REMARK    4  A    between atoms: C_6  and  C_7
REMARK    5  A    between atoms: C_7  and  C_9
REMARK                            x       y       z     vdW  Elec       q    Type
REMARK                         _______ _______ _______ _____ _____    ______ ____
ROOT
ATOM      1  C   UNL     1     -11.103  12.945  67.094  0.00  0.00    +0.187 C 
ATOM      2  C   UNL     1     -10.484  11.821  67.816  0.00  0.00    +0.043 C 
ATOM      3  C   UNL     1     -10.212  11.042  66.429  0.00  0.00    +0.007 C 
ATOM      4  C   UNL     1      -9.197   9.911  67.172  0.00  0.00    +0.036 C 
ATOM      5  C   UNL     1     -10.405   9.003  67.701  0.00  0.00    +0.168 C 
ATOM      6  C   UNL     1     -10.902   9.643  69.122  0.00  0.00    +0.182 C 
ATOM      7  O   UNL     1      -9.539  10.202  69.501  0.00  0.00    -0.220 OA
ATOM      8  F   UNL     1     -11.409   8.949  66.862  0.00  0.00    -0.237 F 
ATOM      9  C   UNL     1      -9.733   7.753  68.125  0.00  0.00    +0.066 C 
ATOM     10  C   UNL     1      -9.240   6.996  66.933  0.00  0.00    -0.003 C 
ATOM     11  C   UNL     1      -8.751   5.791  67.236  0.00  0.00    +0.036 C 
ATOM     12  C   UNL     1      -8.902   5.181  68.563  0.00  0.00    +0.195 C 
ATOM     13  C   UNL     1      -9.921   5.778  69.436  0.00  0.00    +0.038 C 
ATOM     14  O   UNL     1      -8.381   4.060  68.852  0.00  0.00    -0.287 OA
ATOM     15  C   UNL     1      -8.056   7.876  66.238  0.00  0.00    +0.180 C 
ATOM     16  F   UNL     1      -8.235   7.153  64.923  0.00  0.00    -0.233 F 
ATOM     17  C   UNL     1      -8.460   8.014  68.921  0.00  0.00    +0.011 C 
ATOM     18  C   UNL     1     -10.561   6.826  68.910  0.00  0.00    -0.017 C 
ATOM     19  C   UNL     1      -9.108   9.067  65.786  0.00  0.00    +0.042 C 
ATOM     20  C   UNL     1      -9.024  12.099  66.138  0.00  0.00    +0.004 C 
ATOM     21  C   UNL     1      -9.252  12.299  68.436  0.00  0.00    +0.004 C 
ATOM     22  C   UNL     1     -11.462  11.046  68.478  0.00  0.00    +0.039 C 
ATOM     23  C   UNL     1     -10.055  13.346  65.911  0.00  0.00    +0.044 C 
ATOM     24  C   UNL     1      -9.184  14.370  66.840  0.00  0.00    +0.004 C 
ENDROOT
BRANCH   1  25
ATOM     25  C   UNL     1     -11.425  14.135  67.860  0.00  0.00    +0.203 C 
ATOM     26  O   UNL     1     -11.187  15.225  67.376  0.00  0.00    -0.291 OA
BRANCH  25  27
ATOM     27  C   UNL     1     -11.939  14.122  69.253  0.00  0.00    +0.163 C 
ATOM     28 CL   UNL     1     -10.939  15.188  70.275  0.00  0.00    -0.105 Cl
ENDBRANCH  25  27
ENDBRANCH   1  25
BRANCH   1  29
ATOM     29  O   UNL     1     -12.150  12.492  66.235  0.00  0.00    -0.449 OA
BRANCH  29  30
ATOM     30  C   UNL     1     -12.494  13.230  65.123  0.00  0.00    +0.317 C 
ATOM     31  O   UNL     1     -13.416  14.063  65.376  0.00  0.00    -0.250 OA
BRANCH  30  33
ATOM     32  C   UNL     1     -12.287  11.813  63.341  0.00  0.00    +0.012 C 
ATOM     33  C   UNL     1     -12.065  12.907  63.733  0.00  0.00    +0.110 C 
ENDBRANCH  30  33
ENDBRANCH  29  30
ENDBRANCH   1  29
TORSDOF 5
ENDMDL
MODEL 8
REMARK VINA RESULT:      -6.6      2.370      3.932
REMARK  Name = 
REMARK  5 active torsions:
REMARK  status: ('A' for Active; 'I' for Inactive)
REMARK    1  A    between atoms: C_2  and  C_3
REMARK    2  A    between atoms: C_3  and  O_5
REMARK    3  A    between atoms: O_5  and  C_6
REMARK    4  A    between atoms: C_6  and  C_7
REMARK    5  A    between atoms: C_7  and  C_9
REMARK                            x       y       z     vdW  Elec       q    Type
REMARK                         _______ _______ _______ _____ _____    ______ ____
ROOT
ATOM      1  C   UNL     1     -10.570  15.455  68.290  0.00  0.00    +0.187 C 
ATOM      2  C   UNL     1      -9.526  16.149  67.516  0.00  0.00    +0.043 C 
ATOM      3  C   UNL     1      -8.717  16.499  68.868  0.00  0.00    +0.007 C 
ATOM      4  C   UNL     1      -7.343  16.989  68.011  0.00  0.00    +0.036 C 
ATOM      5  C   UNL     1      -7.912  18.455  67.709  0.00  0.00    +0.168 C 
ATOM      6  C   UNL     1      -8.837  18.344  66.364  0.00  0.00    +0.182 C 
ATOM      7  O   UNL     1      -8.053  17.192  65.757  0.00  0.00    -0.220 OA
ATOM      8  F   UNL     1      -8.620  18.941  68.697  0.00  0.00    -0.237 F 
ATOM      9  C   UNL     1      -6.722  19.192  67.225  0.00  0.00    +0.066 C 
ATOM     10  C   UNL     1      -5.763  19.429  68.348  0.00  0.00    -0.003 C 
ATOM     11  C   UNL     1      -4.735  20.211  68.011  0.00  0.00    +0.036 C 
ATOM     12  C   UNL     1      -4.681  20.953  66.745  0.00  0.00    +0.195 C 
ATOM     13  C   UNL     1      -5.954  21.095  66.025  0.00  0.00    +0.038 C 
ATOM     14  O   UNL     1      -3.671  21.647  66.414  0.00  0.00    -0.287 OA
ATOM     15  C   UNL     1      -5.179  17.981  68.818  0.00  0.00    +0.180 C 
ATOM     16  F   UNL     1      -4.782  18.533  70.167  0.00  0.00    -0.233 F 
ATOM     17  C   UNL     1      -5.898  18.384  66.229  0.00  0.00    +0.011 C 
ATOM     18  C   UNL     1      -6.995  20.499  66.611  0.00  0.00    -0.017 C 
ATOM     19  C   UNL     1      -6.649  17.493  69.392  0.00  0.00    +0.042 C 
ATOM     20  C   UNL     1      -8.271  14.947  68.933  0.00  0.00    +0.004 C 
ATOM     21  C   UNL     1      -8.834  15.160  66.695  0.00  0.00    +0.004 C 
ATOM     22  C   UNL     1      -9.993  17.395  67.042  0.00  0.00    +0.039 C 
ATOM     23  C   UNL     1      -9.781  14.427  69.279  0.00  0.00    +0.044 C 
ATOM     24  C   UNL     1      -9.722  13.209  68.192  0.00  0.00    +0.004 C 
ENDROOT
BRANCH   1  25
ATOM     25  C   UNL     1     -11.573  14.716  67.547  0.00  0.00    +0.203 C 
ATOM     26  O   UNL     1     -12.155  13.802  68.098  0.00  0.00    -0.291 OA
BRANCH  25  27
ATOM     27  C   UNL     1     -11.878  14.930  66.109  0.00  0.00    +0.163 C 
ATOM     28 CL   UNL     1     -12.470  13.411  65.385  0.00  0.00    -0.105 Cl
ENDBRANCH  25  27
ENDBRANCH   1  25
BRANCH   1  29
ATOM     29  O   UNL     1     -11.094  16.297  69.318  0.00  0.00    -0.449 OA
BRANCH  29  30
ATOM     30  C   UNL     1     -11.850  15.752  70.332  0.00  0.00    +0.317 C 
ATOM     31  O   UNL     1     -13.089  15.973  70.168  0.00  0.00    -0.250 OA
BRANCH  30  33
ATOM     32  C   UNL     1     -11.996  15.267  72.562  0.00  0.00    +0.012 C 
ATOM     33  C   UNL     1     -11.292  15.228  71.611  0.00  0.00    +0.110 C 
ENDBRANCH  30  33
ENDBRANCH  29  30
ENDBRANCH   1  29
TORSDOF 5
ENDMDL
MODEL 9
REMARK VINA RESULT:      -6.3      3.937      6.718
REMARK  Name = 
REMARK  5 active torsions:
REMARK  status: ('A' for Active; 'I' for Inactive)
REMARK    1  A    between atoms: C_2  and  C_3
REMARK    2  A    between atoms: C_3  and  O_5
REMARK    3  A    between atoms: O_5  and  C_6
REMARK    4  A    between atoms: C_6  and  C_7
REMARK    5  A    between atoms: C_7  and  C_9
REMARK                            x       y       z     vdW  Elec       q    Type
REMARK                         _______ _______ _______ _____ _____    ______ ____
ROOT
ATOM      1  C   UNL     1      -8.806   8.519  68.590  0.00  0.00    +0.187 C 
ATOM      2  C   UNL     1      -9.466   9.827  68.436  0.00  0.00    +0.043 C 
ATOM      3  C   UNL     1      -9.538   9.635  66.835  0.00  0.00    +0.007 C 
ATOM      4  C   UNL     1     -10.593  10.944  66.647  0.00  0.00    +0.036 C 
ATOM      5  C   UNL     1      -9.426  12.039  66.685  0.00  0.00    +0.168 C 
ATOM      6  C   UNL     1      -9.129  12.372  68.259  0.00  0.00    +0.182 C 
ATOM      7  O   UNL     1     -10.547  12.084  68.726  0.00  0.00    -0.220 OA
ATOM      8  F   UNL     1      -8.326  11.633  66.102  0.00  0.00    -0.237 F 
ATOM      9  C   UNL     1     -10.096  13.271  66.213  0.00  0.00    +0.066 C 
ATOM     10  C   UNL     1     -10.412  13.167  64.755  0.00  0.00    -0.003 C 
ATOM     11  C   UNL     1     -10.890  14.301  64.234  0.00  0.00    +0.036 C 
ATOM     12  C   UNL     1     -10.878  15.577  64.959  0.00  0.00    +0.195 C 
ATOM     13  C   UNL     1      -9.995  15.645  66.131  0.00  0.00    +0.038 C 
ATOM     14  O   UNL     1     -11.388  16.632  64.473  0.00  0.00    -0.287 OA
ATOM     15  C   UNL     1     -11.535  12.000  64.570  0.00  0.00    +0.180 C 
ATOM     16  F   UNL     1     -11.171  11.823  63.114  0.00  0.00    -0.233 F 
ATOM     17  C   UNL     1     -11.466  13.473  66.851  0.00  0.00    +0.011 C 
ATOM     18  C   UNL     1      -9.336  14.516  66.400  0.00  0.00    -0.017 C 
ATOM     19  C   UNL     1     -10.482  10.813  65.031  0.00  0.00    +0.042 C 
ATOM     20  C   UNL     1     -10.721   8.560  67.077  0.00  0.00    +0.004 C 
ATOM     21  C   UNL     1     -10.781   9.751  69.065  0.00  0.00    +0.004 C 
ATOM     22  C   UNL     1      -8.548  10.882  68.631  0.00  0.00    +0.039 C 
ATOM     23  C   UNL     1      -9.717   7.459  67.750  0.00  0.00    +0.044 C 
ATOM     24  C   UNL     1     -10.732   7.137  68.988  0.00  0.00    +0.004 C 
ENDROOT
BRANCH   1  25
ATOM     25  C   UNL     1      -8.625   8.016  69.938  0.00  0.00    +0.203 C 
ATOM     26  O   UNL     1      -8.706   6.818  70.132  0.00  0.00    -0.291 OA
BRANCH  25  27
ATOM     27  C   UNL     1      -8.444   8.875  71.137  0.00  0.00    +0.163 C 
ATOM     28 CL   UNL     1      -9.726   8.528  72.327  0.00  0.00    -0.105 Cl
ENDBRANCH  25  27
ENDBRANCH   1  25
BRANCH   1  29
ATOM     29  O   UNL     1      -7.647   8.426  67.761  0.00  0.00    -0.449 OA
BRANCH  29  30
ATOM     30  C   UNL     1      -6.485   7.883  68.264  0.00  0.00    +0.317 C 
ATOM     31  O   UNL     1      -5.725   8.770  68.760  0.00  0.00    -0.250 OA
BRANCH  30  33
ATOM     32  C   UNL     1      -6.461   5.947  67.047  0.00  0.00    +0.012 C 
ATOM     33  C   UNL     1      -6.027   6.488  68.006  0.00  0.00    +0.110 C 
ENDBRANCH  30  33
ENDBRANCH  29  30
ENDBRANCH   1  29
TORSDOF 5
ENDMDL
