MODEL 1
REMARK VINA RESULT:      -7.5      0.000      0.000
REMARK  Name = 
REMARK  5 active torsions:
REMARK  status: ('A' for Active; 'I' for Inactive)
REMARK    1  A    between atoms: C_2  and  C_3
REMARK    2  A    between atoms: C_3  and  O_5
REMARK    3  A    between atoms: O_5  and  C_6
REMARK    4  A    between atoms: C_6  and  C_7
REMARK    5  A    between atoms: C_7  and  C_9
REMARK                            x       y       z     vdW  Elec       q    Type
REMARK                         _______ _______ _______ _____ _____    ______ ____
ROOT
ATOM      1  C   UNL     1      -7.788  18.476  67.497  0.00  0.00    +0.187 C 
ATOM      2  C   UNL     1      -8.534  17.335  67.172  0.00  0.00    +0.043 C 
ATOM      3  C   UNL     1      -9.291  16.966  68.553  0.00  0.00    +0.007 C 
ATOM      4  C   UNL     1     -10.447  16.119  67.655  0.00  0.00    +0.034 C 
ATOM      5  C   UNL     1      -9.776  14.676  67.908  0.00  0.00    +0.168 C 
ATOM      6  C   UNL     1      -8.168  14.917  67.801  0.00  0.00    +0.182 C 
ATOM      7  O   UNL     1      -7.955  13.810  66.784  0.00  0.00    -0.220 OA
ATOM      8  F   UNL     1      -9.869  14.298  69.186  0.00  0.00    -0.237 F 
ATOM      9  C   UNL     1     -10.390  13.905  66.917  0.00  0.00    +0.064 C 
ATOM     10  C   UNL     1     -11.859  14.207  67.113  0.00  0.00    -0.035 C 
ATOM     11  C   UNL     1     -12.734  13.788  66.198  0.00  0.00    +0.034 C 
ATOM     12  C   UNL     1     -12.222  12.725  65.313  0.00  0.00    +0.195 C 
ATOM     13  C   UNL     1     -11.229  11.894  66.019  0.00  0.00    +0.038 C 
ATOM     14  O   UNL     1     -12.672  12.489  64.185  0.00  0.00    -0.287 OA
ATOM     15  C   UNL     1     -12.288  14.728  68.446  0.00  0.00    +0.023 C 
ATOM     16  C   UNL     1     -10.035  14.166  65.461  0.00  0.00    +0.011 C 
ATOM     17  C   UNL     1     -10.461  12.414  66.990  0.00  0.00    -0.017 C 
ATOM     18  C   UNL     1     -11.516  15.979  68.862  0.00  0.00    +0.007 C 
ATOM     19  C   UNL     1     -10.028  18.392  68.442  0.00  0.00    +0.004 C 
ATOM     20  C   UNL     1      -9.590  17.904  66.207  0.00  0.00    +0.004 C 
ATOM     21  C   UNL     1      -8.199  16.077  66.627  0.00  0.00    +0.039 C 
ATOM     22  C   UNL     1      -8.710  19.352  68.512  0.00  0.00    +0.044 C 
ATOM     23  C   UNL     1      -9.313  20.378  67.390  0.00  0.00    +0.004 C 
ENDROOT
BRANCH   1  24
ATOM     24  C   UNL     1      -7.534  19.309  66.265  0.00  0.00    +0.203 C 
ATOM     25  O   UNL     1      -7.152  18.598  65.324  0.00  0.00    -0.291 OA
BRANCH  24  26
ATOM     26  C   UNL     1      -6.868  20.647  66.361  0.00  0.00    +0.163 C 
ATOM     27 CL   UNL     1      -5.265  20.547  65.603  0.00  0.00    -0.105 Cl
ENDBRANCH  24  26
ENDBRANCH   1  24
BRANCH   1  28
ATOM     28  O   UNL     1      -6.522  18.508  68.042  0.00  0.00    -0.449 OA
BRANCH  28  29
ATOM     29  C   UNL     1      -6.392  18.828  69.402  0.00  0.00    +0.317 C 
ATOM     30  O   UNL     1      -5.927  17.782  69.955  0.00  0.00    -0.250 OA
BRANCH  29  32
ATOM     31  C   UNL     1      -5.360  20.545  69.748  0.00  0.00    +0.012 C 
ATOM     32  C   UNL     1      -5.734  20.096  69.859  0.00  0.00    +0.110 C 
ENDBRANCH  29  32
ENDBRANCH  28  29
ENDBRANCH   1  28
TORSDOF 5
ENDMDL
MODEL 2
REMARK VINA RESULT:      -7.0      2.883      6.901
REMARK  Name = 
REMARK  5 active torsions:
REMARK  status: ('A' for Active; 'I' for Inactive)
REMARK    1  A    between atoms: C_2  and  C_3
REMARK    2  A    between atoms: C_3  and  O_5
REMARK    3  A    between atoms: O_5  and  C_6
REMARK    4  A    between atoms: C_6  and  C_7
REMARK    5  A    between atoms: C_7  and  C_9
REMARK                            x       y       z     vdW  Elec       q    Type
REMARK                         _______ _______ _______ _____ _____    ______ ____
ROOT
ATOM      1  C   UNL     1     -10.504  15.293  67.625  0.00  0.00    +0.187 C 
ATOM      2  C   UNL     1      -9.595  16.329  67.368  0.00  0.00    +0.043 C 
ATOM      3  C   UNL     1      -8.638  16.333  68.672  0.00  0.00    +0.007 C 
ATOM      4  C   UNL     1      -7.446  17.106  67.756  0.00  0.00    +0.034 C 
ATOM      5  C   UNL     1      -7.801  18.581  68.298  0.00  0.00    +0.168 C 
ATOM      6  C   UNL     1      -9.428  18.638  68.375  0.00  0.00    +0.182 C 
ATOM      7  O   UNL     1      -9.535  19.916  67.563  0.00  0.00    -0.220 OA
ATOM      8  F   UNL     1      -7.503  18.724  69.593  0.00  0.00    -0.237 F 
ATOM      9  C   UNL     1      -7.162  19.388  67.353  0.00  0.00    +0.064 C 
ATOM     10  C   UNL     1      -5.765  18.812  67.304  0.00  0.00    -0.035 C 
ATOM     11  C   UNL     1      -4.928  19.220  66.348  0.00  0.00    +0.034 C 
ATOM     12  C   UNL     1      -5.322  20.484  65.700  0.00  0.00    +0.195 C 
ATOM     13  C   UNL     1      -6.059  21.346  66.643  0.00  0.00    +0.038 C 
ATOM     14  O   UNL     1      -4.958  20.822  64.566  0.00  0.00    -0.287 OA
ATOM     15  C   UNL     1      -5.302  18.015  68.481  0.00  0.00    +0.023 C 
ATOM     16  C   UNL     1      -7.713  19.432  65.935  0.00  0.00    +0.011 C 
ATOM     17  C   UNL     1      -6.804  20.812  67.625  0.00  0.00    -0.017 C 
ATOM     18  C   UNL     1      -6.247  16.863  68.815  0.00  0.00    +0.007 C 
ATOM     19  C   UNL     1      -8.200  14.840  68.263  0.00  0.00    +0.004 C 
ATOM     20  C   UNL     1      -8.774  15.753  66.199  0.00  0.00    +0.004 C 
ATOM     21  C   UNL     1      -9.742  17.697  67.056  0.00  0.00    +0.039 C 
ATOM     22  C   UNL     1      -9.661  14.120  68.373  0.00  0.00    +0.044 C 
ATOM     23  C   UNL     1      -9.385  13.203  67.047  0.00  0.00    +0.004 C 
ENDROOT
BRANCH   1  24
ATOM     24  C   UNL     1     -11.040  14.729  66.334  0.00  0.00    +0.203 C 
ATOM     25  O   UNL     1     -11.222  15.629  65.502  0.00  0.00    -0.291 OA
BRANCH  24  26
ATOM     26  C   UNL     1     -12.075  13.646  66.336  0.00  0.00    +0.163 C 
ATOM     27 CL   UNL     1     -12.279  13.044  64.677  0.00  0.00    -0.105 Cl
ENDBRANCH  24  26
ENDBRANCH   1  24
BRANCH   1  28
ATOM     28  O   UNL     1     -11.687  15.389  68.326  0.00  0.00    -0.449 OA
BRANCH  28  29
ATOM     29  C   UNL     1     -11.659  15.173  69.712  0.00  0.00    +0.317 C 
ATOM     30  O   UNL     1     -11.857  16.313  70.238  0.00  0.00    -0.250 OA
BRANCH  29  32
ATOM     31  C   UNL     1     -12.452  13.607  70.737  0.00  0.00    +0.012 C 
ATOM     32  C   UNL     1     -12.437  14.066  70.359  0.00  0.00    +0.110 C 
ENDBRANCH  29  32
ENDBRANCH  28  29
ENDBRANCH   1  28
TORSDOF 5
ENDMDL
MODEL 3
REMARK VINA RESULT:      -6.8      2.852      6.978
REMARK  Name = 
REMARK  5 active torsions:
REMARK  status: ('A' for Active; 'I' for Inactive)
REMARK    1  A    between atoms: C_2  and  C_3
REMARK    2  A    between atoms: C_3  and  O_5
REMARK    3  A    between atoms: O_5  and  C_6
REMARK    4  A    between atoms: C_6  and  C_7
REMARK    5  A    between atoms: C_7  and  C_9
REMARK                            x       y       z     vdW  Elec       q    Type
REMARK                         _______ _______ _______ _____ _____    ______ ____
ROOT
ATOM      1  C   UNL     1     -11.030  13.678  66.966  0.00  0.00    +0.187 C 
ATOM      2  C   UNL     1     -10.288  14.867  66.917  0.00  0.00    +0.043 C 
ATOM      3  C   UNL     1      -9.064  14.597  67.940  0.00  0.00    +0.007 C 
ATOM      4  C   UNL     1      -8.176  15.794  67.142  0.00  0.00    +0.034 C 
ATOM      5  C   UNL     1      -8.515  16.946  68.217  0.00  0.00    +0.168 C 
ATOM      6  C   UNL     1     -10.081  16.728  68.611  0.00  0.00    +0.182 C 
ATOM      7  O   UNL     1     -10.471  18.167  68.325  0.00  0.00    -0.220 OA
ATOM      8  F   UNL     1      -7.944  16.709  69.401  0.00  0.00    -0.237 F 
ATOM      9  C   UNL     1      -8.173  18.100  67.507  0.00  0.00    +0.064 C 
ATOM     10  C   UNL     1      -6.782  17.789  67.003  0.00  0.00    -0.035 C 
ATOM     11  C   UNL     1      -6.219  18.604  66.109  0.00  0.00    +0.034 C 
ATOM     12  C   UNL     1      -6.849  19.934  66.023  0.00  0.00    +0.195 C 
ATOM     13  C   UNL     1      -7.419  20.326  67.326  0.00  0.00    +0.038 C 
ATOM     14  O   UNL     1      -6.779  20.668  65.029  0.00  0.00    -0.287 OA
ATOM     15  C   UNL     1      -6.002  16.736  67.723  0.00  0.00    +0.023 C 
ATOM     16  C   UNL     1      -9.033  18.512  66.321  0.00  0.00    +0.011 C 
ATOM     17  C   UNL     1      -7.877  19.399  68.184  0.00  0.00    -0.017 C 
ATOM     18  C   UNL     1      -6.753  15.409  67.809  0.00  0.00    +0.007 C 
ATOM     19  C   UNL     1      -8.613  13.399  66.966  0.00  0.00    +0.004 C 
ATOM     20  C   UNL     1      -9.711  14.828  65.490  0.00  0.00    +0.004 C 
ATOM     21  C   UNL     1     -10.610  16.224  67.131  0.00  0.00    +0.039 C 
ATOM     22  C   UNL     1      -9.949  12.469  67.091  0.00  0.00    +0.044 C 
ATOM     23  C   UNL     1      -9.909  12.079  65.503  0.00  0.00    +0.004 C 
ENDROOT
BRANCH   1  24
ATOM     24  C   UNL     1     -11.798  13.483  65.683  0.00  0.00    +0.203 C 
ATOM     25  O   UNL     1     -12.651  14.371  65.541  0.00  0.00    -0.291 OA
BRANCH  24  26
ATOM     26  C   UNL     1     -12.222  12.118  65.237  0.00  0.00    +0.163 C 
ATOM     27 CL   UNL     1     -12.559  12.162  63.493  0.00  0.00    -0.105 Cl
ENDBRANCH  24  26
ENDBRANCH   1  24
BRANCH   1  28
ATOM     28  O   UNL     1     -12.027  13.363  67.864  0.00  0.00    -0.449 OA
BRANCH  28  29
ATOM     29  C   UNL     1     -11.660  13.038  69.178  0.00  0.00    +0.317 C 
ATOM     30  O   UNL     1     -12.056  14.012  69.893  0.00  0.00    -0.250 OA
BRANCH  29  32
ATOM     31  C   UNL     1     -11.972  11.342  70.253  0.00  0.00    +0.012 C 
ATOM     32  C   UNL     1     -11.954  11.694  69.775  0.00  0.00    +0.110 C 
ENDBRANCH  29  32
ENDBRANCH  28  29
ENDBRANCH   1  28
TORSDOF 5
ENDMDL
MODEL 4
REMARK VINA RESULT:      -6.8      2.661      7.191
REMARK  Name = 
REMARK  5 active torsions:
REMARK  status: ('A' for Active; 'I' for Inactive)
REMARK    1  A    between atoms: C_2  and  C_3
REMARK    2  A    between atoms: C_3  and  O_5
REMARK    3  A    between atoms: O_5  and  C_6
REMARK    4  A    between atoms: C_6  and  C_7
REMARK    5  A    between atoms: C_7  and  C_9
REMARK                            x       y       z     vdW  Elec       q    Type
REMARK                         _______ _______ _______ _____ _____    ______ ____
ROOT
ATOM      1  C   UNL     1     -10.192  14.348  67.527  0.00  0.00    +0.187 C 
ATOM      2  C   UNL     1      -9.233  15.332  67.803  0.00  0.00    +0.043 C 
ATOM      3  C   UNL     1      -9.944  16.705  67.328  0.00  0.00    +0.007 C 
ATOM      4  C   UNL     1      -8.906  17.560  68.352  0.00  0.00    +0.034 C 
ATOM      5  C   UNL     1      -7.872  17.963  67.184  0.00  0.00    +0.168 C 
ATOM      6  C   UNL     1      -7.746  16.642  66.238  0.00  0.00    +0.182 C 
ATOM      7  O   UNL     1      -6.229  16.605  66.297  0.00  0.00    -0.220 OA
ATOM      8  F   UNL     1      -8.412  18.820  66.312  0.00  0.00    -0.237 F 
ATOM      9  C   UNL     1      -6.751  18.349  67.923  0.00  0.00    +0.064 C 
ATOM     10  C   UNL     1      -7.324  19.324  68.925  0.00  0.00    -0.035 C 
ATOM     11  C   UNL     1      -6.556  19.746  69.932  0.00  0.00    +0.034 C 
ATOM     12  C   UNL     1      -5.113  19.534  69.721  0.00  0.00    +0.195 C 
ATOM     13  C   UNL     1      -4.782  19.594  68.284  0.00  0.00    +0.038 C 
ATOM     14  O   UNL     1      -4.284  19.457  70.636  0.00  0.00    -0.287 OA
ATOM     15  C   UNL     1      -8.630  19.971  68.595  0.00  0.00    +0.023 C 
ATOM     16  C   UNL     1      -5.970  17.284  68.679  0.00  0.00    +0.011 C 
ATOM     17  C   UNL     1      -5.678  19.221  67.355  0.00  0.00    -0.017 C 
ATOM     18  C   UNL     1      -9.726  18.953  68.287  0.00  0.00    +0.007 C 
ATOM     19  C   UNL     1     -11.064  16.424  68.448  0.00  0.00    +0.004 C 
ATOM     20  C   UNL     1      -9.210  15.336  69.343  0.00  0.00    +0.004 C 
ATOM     21  C   UNL     1      -7.884  15.507  67.429  0.00  0.00    +0.039 C 
ATOM     22  C   UNL     1     -11.639  15.011  67.867  0.00  0.00    +0.044 C 
ATOM     23  C   UNL     1     -11.794  14.379  69.368  0.00  0.00    +0.004 C 
ENDROOT
BRANCH   1  24
ATOM     24  C   UNL     1     -10.003  13.158  68.432  0.00  0.00    +0.203 C 
ATOM     25  O   UNL     1      -8.861  12.690  68.312  0.00  0.00    -0.291 OA
BRANCH  24  26
ATOM     26  C   UNL     1     -11.089  12.142  68.611  0.00  0.00    +0.163 C 
ATOM     27 CL   UNL     1     -10.711  10.715  67.624  0.00  0.00    -0.105 Cl
ENDBRANCH  24  26
ENDBRANCH   1  24
BRANCH   1  28
ATOM     28  O   UNL     1     -10.373  13.683  66.333  0.00  0.00    -0.449 OA
BRANCH  28  29
ATOM     29  C   UNL     1     -11.452  14.061  65.518  0.00  0.00    +0.317 C 
ATOM     30  O   UNL     1     -10.947  14.770  64.593  0.00  0.00    -0.250 OA
BRANCH  29  32
ATOM     31  C   UNL     1     -12.584  12.545  64.776  0.00  0.00    +0.012 C 
ATOM     32  C   UNL     1     -12.465  13.067  65.033  0.00  0.00    +0.110 C 
ENDBRANCH  29  32
ENDBRANCH  28  29
ENDBRANCH   1  28
TORSDOF 5
ENDMDL
MODEL 5
REMARK VINA RESULT:      -6.2      2.543      4.438
REMARK  Name = 
REMARK  5 active torsions:
REMARK  status: ('A' for Active; 'I' for Inactive)
REMARK    1  A    between atoms: C_2  and  C_3
REMARK    2  A    between atoms: C_3  and  O_5
REMARK    3  A    between atoms: O_5  and  C_6
REMARK    4  A    between atoms: C_6  and  C_7
REMARK    5  A    between atoms: C_7  and  C_9
REMARK                            x       y       z     vdW  Elec       q    Type
REMARK                         _______ _______ _______ _____ _____    ______ ____
ROOT
ATOM      1  C   UNL     1      -9.951  16.266  68.141  0.00  0.00    +0.187 C 
ATOM      2  C   UNL     1      -9.790  14.997  67.566  0.00  0.00    +0.043 C 
ATOM      3  C   UNL     1     -11.159  14.779  66.732  0.00  0.00    +0.007 C 
ATOM      4  C   UNL     1     -10.354  13.645  65.771  0.00  0.00    +0.034 C 
ATOM      5  C   UNL     1     -10.914  12.368  66.577  0.00  0.00    +0.168 C 
ATOM      6  C   UNL     1     -10.878  12.795  68.149  0.00  0.00    +0.182 C 
ATOM      7  O   UNL     1     -10.100  11.565  68.583  0.00  0.00    -0.220 OA
ATOM      8  F   UNL     1     -12.231  12.209  66.411  0.00  0.00    -0.237 F 
ATOM      9  C   UNL     1     -10.042  11.363  66.151  0.00  0.00    +0.064 C 
ATOM     10  C   UNL     1     -10.075  11.500  64.646  0.00  0.00    -0.035 C 
ATOM     11  C   UNL     1      -9.193  10.817  63.913  0.00  0.00    +0.034 C 
ATOM     12  C   UNL     1      -8.558   9.693  64.625  0.00  0.00    +0.195 C 
ATOM     13  C   UNL     1      -9.473   9.134  65.638  0.00  0.00    +0.038 C 
ATOM     14  O   UNL     1      -7.464   9.207  64.312  0.00  0.00    -0.287 OA
ATOM     15  C   UNL     1     -11.256  12.185  64.038  0.00  0.00    +0.023 C 
ATOM     16  C   UNL     1      -8.591  11.411  66.607  0.00  0.00    +0.011 C 
ATOM     17  C   UNL     1     -10.383   9.911  66.248  0.00  0.00    -0.017 C 
ATOM     18  C   UNL     1     -11.487  13.579  64.618  0.00  0.00    +0.007 C 
ATOM     19  C   UNL     1     -10.736  16.055  65.848  0.00  0.00    +0.004 C 
ATOM     20  C   UNL     1      -8.665  15.247  66.545  0.00  0.00    +0.004 C 
ATOM     21  C   UNL     1      -9.511  13.718  68.093  0.00  0.00    +0.039 C 
ATOM     22  C   UNL     1     -10.720  17.176  67.034  0.00  0.00    +0.044 C 
ATOM     23  C   UNL     1      -9.389  17.904  66.422  0.00  0.00    +0.004 C 
ENDROOT
BRANCH   1  24
ATOM     24  C   UNL     1      -8.608  16.897  68.410  0.00  0.00    +0.203 C 
ATOM     25  O   UNL     1      -7.904  16.155  69.110  0.00  0.00    -0.291 OA
BRANCH  24  26
ATOM     26  C   UNL     1      -8.489  18.358  68.715  0.00  0.00    +0.163 C 
ATOM     27 CL   UNL     1      -6.770  18.769  68.899  0.00  0.00    -0.105 Cl
ENDBRANCH  24  26
ENDBRANCH   1  24
BRANCH   1  28
ATOM     28  O   UNL     1     -10.569  16.557  69.339  0.00  0.00    -0.449 OA
BRANCH  28  29
ATOM     29  C   UNL     1     -11.200  15.514  70.033  0.00  0.00    +0.317 C 
ATOM     30  O   UNL     1     -10.451  15.266  71.029  0.00  0.00    -0.250 OA
BRANCH  29  32
ATOM     31  C   UNL     1     -13.095  15.462  70.766  0.00  0.00    +0.012 C 
ATOM     32  C   UNL     1     -12.660  15.555  70.371  0.00  0.00    +0.110 C 
ENDBRANCH  29  32
ENDBRANCH  28  29
ENDBRANCH   1  28
TORSDOF 5
ENDMDL
MODEL 6
REMARK VINA RESULT:      -6.2      3.021      7.456
REMARK  Name = 
REMARK  5 active torsions:
REMARK  status: ('A' for Active; 'I' for Inactive)
REMARK    1  A    between atoms: C_2  and  C_3
REMARK    2  A    between atoms: C_3  and  O_5
REMARK    3  A    between atoms: O_5  and  C_6
REMARK    4  A    between atoms: C_6  and  C_7
REMARK    5  A    between atoms: C_7  and  C_9
REMARK                            x       y       z     vdW  Elec       q    Type
REMARK                         _______ _______ _______ _____ _____    ______ ____
ROOT
ATOM      1  C   UNL     1     -10.094  10.961  66.276  0.00  0.00    +0.187 C 
ATOM      2  C   UNL     1      -9.933  12.320  66.579  0.00  0.00    +0.043 C 
ATOM      3  C   UNL     1     -11.375  12.755  67.169  0.00  0.00    +0.007 C 
ATOM      4  C   UNL     1     -10.627  14.050  67.956  0.00  0.00    +0.034 C 
ATOM      5  C   UNL     1     -11.020  15.133  66.828  0.00  0.00    +0.168 C 
ATOM      6  C   UNL     1     -10.825  14.368  65.403  0.00  0.00    +0.182 C 
ATOM      7  O   UNL     1      -9.936  15.450  64.815  0.00  0.00    -0.220 OA
ATOM      8  F   UNL     1     -12.337  15.360  66.790  0.00  0.00    -0.237 F 
ATOM      9  C   UNL     1     -10.150  16.183  67.133  0.00  0.00    +0.064 C 
ATOM     10  C   UNL     1     -10.365  16.383  68.616  0.00  0.00    -0.035 C 
ATOM     11  C   UNL     1      -9.539  17.186  69.289  0.00  0.00    +0.034 C 
ATOM     12  C   UNL     1      -8.765  18.107  68.436  0.00  0.00    +0.195 C 
ATOM     13  C   UNL     1      -9.525  18.454  67.220  0.00  0.00    +0.038 C 
ATOM     14  O   UNL     1      -7.690  18.621  68.771  0.00  0.00    -0.287 OA
ATOM     15  C   UNL     1     -11.644  15.882  69.205  0.00  0.00    +0.023 C 
ATOM     16  C   UNL     1      -8.661  15.996  66.883  0.00  0.00    +0.011 C 
ATOM     17  C   UNL     1     -10.399  17.586  66.683  0.00  0.00    -0.017 C 
ATOM     18  C   UNL     1     -11.881  14.401  68.916  0.00  0.00    +0.007 C 
ATOM     19  C   UNL     1     -11.127  11.695  68.353  0.00  0.00    +0.004 C 
ATOM     20  C   UNL     1      -8.950  12.271  67.763  0.00  0.00    +0.004 C 
ATOM     21  C   UNL     1      -9.526  13.443  65.828  0.00  0.00    +0.039 C 
ATOM     22  C   UNL     1     -11.035  10.339  67.449  0.00  0.00    +0.044 C 
ATOM     23  C   UNL     1      -9.826   9.729  68.365  0.00  0.00    +0.004 C 
ENDROOT
BRANCH   1  24
ATOM     24  C   UNL     1      -8.766  10.249  66.320  0.00  0.00    +0.203 C 
ATOM     25  O   UNL     1      -7.873  10.951  65.824  0.00  0.00    -0.291 OA
BRANCH  24  26
ATOM     26  C   UNL     1      -8.663   8.786  66.020  0.00  0.00    +0.163 C 
ATOM     27 CL   UNL     1      -7.658   8.564  64.572  0.00  0.00    -0.105 Cl
ENDBRANCH  24  26
ENDBRANCH   1  24
BRANCH   1  28
ATOM     28  O   UNL     1     -10.584  10.429  65.102  0.00  0.00    -0.449 OA
BRANCH  28  29
ATOM     29  C   UNL     1     -10.637  11.255  63.969  0.00  0.00    +0.317 C 
ATOM     30  O   UNL     1      -9.942  10.664  63.084  0.00  0.00    -0.250 OA
BRANCH  29  32
ATOM     31  C   UNL     1     -12.525  11.817  63.468  0.00  0.00    +0.012 C 
ATOM     32  C   UNL     1     -11.930  11.809  63.450  0.00  0.00    +0.110 C 
ENDBRANCH  29  32
ENDBRANCH  28  29
ENDBRANCH   1  28
TORSDOF 5
ENDMDL
MODEL 7
REMARK VINA RESULT:      -6.1      2.090      3.376
REMARK  Name = 
REMARK  5 active torsions:
REMARK  status: ('A' for Active; 'I' for Inactive)
REMARK    1  A    between atoms: C_2  and  C_3
REMARK    2  A    between atoms: C_3  and  O_5
REMARK    3  A    between atoms: O_5  and  C_6
REMARK    4  A    between atoms: C_6  and  C_7
REMARK    5  A    between atoms: C_7  and  C_9
REMARK                            x       y       z     vdW  Elec       q    Type
REMARK                         _______ _______ _______ _____ _____    ______ ____
ROOT
ATOM      1  C   UNL     1      -4.954  19.693  67.920  0.00  0.00    +0.187 C 
ATOM      2  C   UNL     1      -6.022  18.838  67.611  0.00  0.00    +0.043 C 
ATOM      3  C   UNL     1      -7.322  19.643  68.139  0.00  0.00    +0.007 C 
ATOM      4  C   UNL     1      -8.274  18.736  67.078  0.00  0.00    +0.034 C 
ATOM      5  C   UNL     1      -8.756  17.685  68.200  0.00  0.00    +0.168 C 
ATOM      6  C   UNL     1      -7.442  17.396  69.120  0.00  0.00    +0.182 C 
ATOM      7  O   UNL     1      -7.541  15.886  68.987  0.00  0.00    -0.220 OA
ATOM      8  F   UNL     1      -9.554  18.253  69.109  0.00  0.00    -0.237 F 
ATOM      9  C   UNL     1      -9.247  16.640  67.413  0.00  0.00    +0.064 C 
ATOM     10  C   UNL     1     -10.178  17.346  66.453  0.00  0.00    -0.035 C 
ATOM     11  C   UNL     1     -10.675  16.669  65.416  0.00  0.00    +0.034 C 
ATOM     12  C   UNL     1     -10.589  15.203  65.554  0.00  0.00    +0.195 C 
ATOM     13  C   UNL     1     -10.664  14.808  66.973  0.00  0.00    +0.038 C 
ATOM     14  O   UNL     1     -10.595  14.418  64.597  0.00  0.00    -0.287 OA
ATOM     15  C   UNL     1     -10.703  18.685  66.856  0.00  0.00    +0.023 C 
ATOM     16  C   UNL     1      -8.262  15.807  66.604  0.00  0.00    +0.011 C 
ATOM     17  C   UNL     1     -10.205  15.621  67.939  0.00  0.00    -0.017 C 
ATOM     18  C   UNL     1      -9.589  19.671  67.203  0.00  0.00    +0.007 C 
ATOM     19  C   UNL     1      -6.954  20.788  67.072  0.00  0.00    +0.004 C 
ATOM     20  C   UNL     1      -6.042  18.892  66.073  0.00  0.00    +0.004 C 
ATOM     21  C   UNL     1      -6.312  17.492  67.921  0.00  0.00    +0.039 C 
ATOM     22  C   UNL     1      -5.490  21.207  67.660  0.00  0.00    +0.044 C 
ATOM     23  C   UNL     1      -4.861  21.380  66.161  0.00  0.00    +0.004 C 
ENDROOT
BRANCH   1  24
ATOM     24  C   UNL     1      -3.794  19.445  66.990  0.00  0.00    +0.203 C 
ATOM     25  O   UNL     1      -3.559  18.232  66.892  0.00  0.00    -0.291 OA
BRANCH  24  26
ATOM     26  C   UNL     1      -2.583  20.326  67.013  0.00  0.00    +0.163 C 
ATOM     27 CL   UNL     1      -1.938  20.460  65.364  0.00  0.00    -0.105 Cl
ENDBRANCH  24  26
ENDBRANCH   1  24
BRANCH   1  28
ATOM     28  O   UNL     1      -4.264  19.755  69.113  0.00  0.00    -0.449 OA
BRANCH  28  29
ATOM     29  C   UNL     1      -4.713  18.965  70.182  0.00  0.00    +0.317 C 
ATOM     30  O   UNL     1      -3.749  18.182  70.454  0.00  0.00    -0.250 OA
BRANCH  29  32
ATOM     31  C   UNL     1      -5.488  20.047  71.718  0.00  0.00    +0.012 C 
ATOM     32  C   UNL     1      -5.364  19.565  71.393  0.00  0.00    +0.110 C 
ENDBRANCH  29  32
ENDBRANCH  28  29
ENDBRANCH   1  28
TORSDOF 5
ENDMDL
MODEL 8
REMARK VINA RESULT:      -6.0      2.308      3.781
REMARK  Name = 
REMARK  5 active torsions:
REMARK  status: ('A' for Active; 'I' for Inactive)
REMARK    1  A    between atoms: C_2  and  C_3
REMARK    2  A    between atoms: C_3  and  O_5
REMARK    3  A    between atoms: O_5  and  C_6
REMARK    4  A    between atoms: C_6  and  C_7
REMARK    5  A    between atoms: C_7  and  C_9
REMARK                            x       y       z     vdW  Elec       q    Type
REMARK                         _______ _______ _______ _____ _____    ______ ____
ROOT
ATOM      1  C   UNL     1      -8.731  17.005  67.749  0.00  0.00    +0.187 C 
ATOM      2  C   UNL     1      -9.095  15.652  67.780  0.00  0.00    +0.043 C 
ATOM      3  C   UNL     1     -10.146  15.509  66.559  0.00  0.00    +0.007 C 
ATOM      4  C   UNL     1      -9.815  13.853  66.509  0.00  0.00    +0.034 C 
ATOM      5  C   UNL     1     -11.112  13.435  67.368  0.00  0.00    +0.168 C 
ATOM      6  C   UNL     1     -11.242  14.560  68.539  0.00  0.00    +0.182 C 
ATOM      7  O   UNL     1     -11.312  13.545  69.666  0.00  0.00    -0.220 OA
ATOM      8  F   UNL     1     -12.248  13.662  66.702  0.00  0.00    -0.237 F 
ATOM      9  C   UNL     1     -10.788  12.129  67.748  0.00  0.00    +0.064 C 
ATOM     10  C   UNL     1     -10.390  11.484  66.440  0.00  0.00    -0.035 C 
ATOM     11  C   UNL     1      -9.823  10.276  66.459  0.00  0.00    +0.034 C 
ATOM     12  C   UNL     1     -10.026   9.533  67.716  0.00  0.00    +0.195 C 
ATOM     13  C   UNL     1     -11.308   9.908  68.342  0.00  0.00    +0.038 C 
ATOM     14  O   UNL     1      -9.284   8.624  68.109  0.00  0.00    -0.287 OA
ATOM     15  C   UNL     1     -10.886  12.112  65.178  0.00  0.00    +0.023 C 
ATOM     16  C   UNL     1      -9.664  11.916  68.752  0.00  0.00    +0.011 C 
ATOM     17  C   UNL     1     -11.822  11.139  68.176  0.00  0.00    -0.017 C 
ATOM     18  C   UNL     1     -10.518  13.591  65.076  0.00  0.00    +0.007 C 
ATOM     19  C   UNL     1      -8.945  15.933  65.576  0.00  0.00    +0.004 C 
ATOM     20  C   UNL     1      -7.791  14.957  67.347  0.00  0.00    +0.004 C 
ATOM     21  C   UNL     1      -9.628  14.811  68.780  0.00  0.00    +0.039 C 
ATOM     22  C   UNL     1      -8.653  17.422  66.178  0.00  0.00    +0.044 C 
ATOM     23  C   UNL     1      -7.035  17.246  66.011  0.00  0.00    +0.004 C 
ENDROOT
BRANCH   1  24
ATOM     24  C   UNL     1      -7.361  17.197  68.349  0.00  0.00    +0.203 C 
ATOM     25  O   UNL     1      -7.318  16.744  69.502  0.00  0.00    -0.291 OA
BRANCH  24  26
ATOM     26  C   UNL     1      -6.594  18.465  68.135  0.00  0.00    +0.163 C 
ATOM     27 CL   UNL     1      -6.654  19.431  69.625  0.00  0.00    -0.105 Cl
ENDBRANCH  24  26
ENDBRANCH   1  24
BRANCH   1  28
ATOM     28  O   UNL     1      -9.384  18.051  68.367  0.00  0.00    -0.449 OA
BRANCH  28  29
ATOM     29  C   UNL     1     -10.086  18.962  67.564  0.00  0.00    +0.317 C 
ATOM     30  O   UNL     1     -11.315  18.672  67.716  0.00  0.00    -0.250 OA
BRANCH  29  32
ATOM     31  C   UNL     1      -9.408  20.878  67.616  0.00  0.00    +0.012 C 
ATOM     32  C   UNL     1      -9.804  20.435  67.604  0.00  0.00    +0.110 C 
ENDBRANCH  29  32
ENDBRANCH  28  29
ENDBRANCH   1  28
TORSDOF 5
ENDMDL
MODEL 9
REMARK VINA RESULT:      -5.9      3.502      6.473
REMARK  Name = 
REMARK  5 active torsions:
REMARK  status: ('A' for Active; 'I' for Inactive)
REMARK    1  A    between atoms: C_2  and  C_3
REMARK    2  A    between atoms: C_3  and  O_5
REMARK    3  A    between atoms: O_5  and  C_6
REMARK    4  A    between atoms: C_6  and  C_7
REMARK    5  A    between atoms: C_7  and  C_9
REMARK                            x       y       z     vdW  Elec       q    Type
REMARK                         _______ _______ _______ _____ _____    ______ ____
ROOT
ATOM      1  C   UNL     1     -10.484  14.721  66.865  0.00  0.00    +0.187 C 
ATOM      2  C   UNL     1     -10.362  13.543  67.615  0.00  0.00    +0.043 C 
ATOM      3  C   UNL     1      -9.468  12.579  66.672  0.00  0.00    +0.007 C 
ATOM      4  C   UNL     1      -9.023  11.701  68.046  0.00  0.00    +0.034 C 
ATOM      5  C   UNL     1     -10.110  10.534  67.813  0.00  0.00    +0.168 C 
ATOM      6  C   UNL     1     -11.460  11.291  67.303  0.00  0.00    +0.182 C 
ATOM      7  O   UNL     1     -12.354  10.643  68.345  0.00  0.00    -0.220 OA
ATOM      8  F   UNL     1      -9.833   9.801  66.730  0.00  0.00    -0.237 F 
ATOM      9  C   UNL     1     -10.138   9.922  69.069  0.00  0.00    +0.064 C 
ATOM     10  C   UNL     1      -8.675   9.676  69.359  0.00  0.00    -0.035 C 
ATOM     11  C   UNL     1      -8.314   9.278  70.580  0.00  0.00    +0.034 C 
ATOM     12  C   UNL     1      -9.418   8.728  71.387  0.00  0.00    +0.195 C 
ATOM     13  C   UNL     1     -10.428   8.089  70.522  0.00  0.00    +0.038 C 
ATOM     14  O   UNL     1      -9.418   8.690  72.624  0.00  0.00    -0.287 OA
ATOM     15  C   UNL     1      -7.734   9.635  68.198  0.00  0.00    +0.023 C 
ATOM     16  C   UNL     1     -10.740  10.682  70.241  0.00  0.00    +0.011 C 
ATOM     17  C   UNL     1     -10.639   8.529  69.271  0.00  0.00    -0.017 C 
ATOM     18  C   UNL     1      -7.813  10.895  67.337  0.00  0.00    +0.007 C 
ATOM     19  C   UNL     1      -8.292  13.669  66.802  0.00  0.00    +0.004 C 
ATOM     20  C   UNL     1      -9.469  13.997  68.784  0.00  0.00    +0.004 C 
ATOM     21  C   UNL     1     -11.295  12.663  68.205  0.00  0.00    +0.039 C 
ATOM     22  C   UNL     1      -9.057  14.935  66.113  0.00  0.00    +0.044 C 
ATOM     23  C   UNL     1      -8.426  15.990  67.192  0.00  0.00    +0.004 C 
ENDROOT
BRANCH   1  24
ATOM     24  C   UNL     1     -10.713  15.903  67.773  0.00  0.00    +0.203 C 
ATOM     25  O   UNL     1     -11.671  15.696  68.532  0.00  0.00    -0.291 OA
BRANCH  24  26
ATOM     26  C   UNL     1     -10.601  17.305  67.258  0.00  0.00    +0.163 C 
ATOM     27 CL   UNL     1     -10.226  18.387  68.616  0.00  0.00    -0.105 Cl
ENDBRANCH  24  26
ENDBRANCH   1  24
BRANCH   1  28
ATOM     28  O   UNL     1     -11.439  14.996  65.909  0.00  0.00    -0.449 OA
BRANCH  28  29
ATOM     29  C   UNL     1     -12.167  13.925  65.369  0.00  0.00    +0.317 C 
ATOM     30  O   UNL     1     -13.385  14.282  65.417  0.00  0.00    -0.250 OA
BRANCH  29  32
ATOM     31  C   UNL     1     -11.902  12.885  63.643  0.00  0.00    +0.012 C 
ATOM     32  C   UNL     1     -11.779  13.275  64.074  0.00  0.00    +0.110 C 
ENDBRANCH  29  32
ENDBRANCH  28  29
ENDBRANCH   1  28
TORSDOF 5
ENDMDL
