MODEL 1
REMARK VINA RESULT:      -7.4      0.000      0.000
REMARK  Name = 
REMARK  7 active torsions:
REMARK  status: ('A' for Active; 'I' for Inactive)
REMARK    1  A    between atoms: C_2  and  N_3
REMARK    2  A    between atoms: N_3  and  C_4
REMARK    3  A    between atoms: N_3  and  C_6
REMARK    4  A    between atoms: C_9  and  C_10
REMARK    5  A    between atoms: C_10  and  C_11
REMARK    6  A    between atoms: N_21  and  C_22
REMARK    7  A    between atoms: N_21  and  C_24
REMARK                            x       y       z     vdW  Elec       q    Type
REMARK                         _______ _______ _______ _____ _____    ______ ____
ROOT
ATOM      1  C   UNL     1     -10.190  15.078  66.840  0.00  0.00    +0.000 C 
ATOM      2  C   UNL     1     -11.049  15.159  67.826  0.00  0.00    +0.000 C 
ATOM      3  C   UNL     1     -11.031  16.309  68.737  0.00  0.00    +0.006 C 
ATOM      4  C   UNL     1     -11.309  16.153  70.033  0.00  0.00    +0.069 C 
ATOM      5  C   UNL     1     -11.967  14.931  70.491  0.00  0.00    +0.221 C 
ATOM      6  N   UNL     1     -12.270  14.781  71.740  0.00  0.00    -0.189 N 
ATOM      7  C   UNL     1     -12.306  13.916  69.517  0.00  0.00    +0.069 C 
ATOM      8  C   UNL     1     -11.868  14.036  68.286  0.00  0.00    +0.006 C 
ENDROOT
BRANCH   1   9
ATOM      9  C   UNL     1     -10.051  13.891  66.027  0.00  0.00    +0.000 A 
ATOM     10  C   UNL     1     -10.706  13.788  64.805  0.00  0.00    +0.000 A 
ATOM     11  C   UNL     1     -10.929  12.555  64.204  0.00  0.00    +0.000 A 
ATOM     12  C   UNL     1     -10.664  11.395  64.887  0.00  0.00    +0.000 A 
ATOM     13  C   UNL     1     -10.017  11.486  66.091  0.00  0.00    +0.000 A 
ATOM     14  C   UNL     1      -9.474  12.709  66.469  0.00  0.00    +0.000 A 
ENDBRANCH   1   9
BRANCH   1  18
ATOM     15  C   UNL     1      -7.927  18.617  66.331  0.00  0.00    +0.048 A 
ATOM     16  C   UNL     1      -9.305  18.664  66.352  0.00  0.00    +0.015 A 
ATOM     17  C   UNL     1     -10.011  17.480  66.174  0.00  0.00    +0.001 A 
ATOM     18  C   UNL     1      -9.427  16.263  66.483  0.00  0.00    +0.000 A 
ATOM     19  C   UNL     1      -8.037  16.269  66.511  0.00  0.00    +0.001 A 
ATOM     20  C   UNL     1      -7.309  17.391  66.134  0.00  0.00    +0.015 A 
BRANCH  15  21
ATOM     21  N   UNL     1      -7.226  19.832  66.473  0.00  0.00    -0.307 N 
BRANCH  21  23
ATOM     22  C   UNL     1      -5.029  20.479  65.583  0.00  0.00    +0.023 C 
ATOM     23  C   UNL     1      -6.515  20.337  65.302  0.00  0.00    +0.091 C 
ENDBRANCH  21  23
BRANCH  21  24
ATOM     24  C   UNL     1      -7.311  20.619  67.699  0.00  0.00    +0.091 C 
ATOM     25  C   UNL     1      -6.770  19.749  68.820  0.00  0.00    +0.023 C 
ENDBRANCH  21  24
ENDBRANCH  15  21
ENDBRANCH   1  18
BRANCH   6  26
ATOM     26  C   UNL     1     -13.434  13.945  72.022  0.00  0.00    +0.317 C 
ATOM     27  C   UNL     1     -14.679  14.746  71.702  0.00  0.00    +0.092 C 
ENDBRANCH   6  26
BRANCH   6  28
ATOM     28  C   UNL     1     -12.000  15.868  72.675  0.00  0.00    +0.317 C 
ATOM     29  C   UNL     1     -12.353  15.483  74.086  0.00  0.00    +0.092 C 
ENDBRANCH   6  28
TORSDOF 7
ENDMDL
MODEL 2
REMARK VINA RESULT:      -7.2      3.043      7.715
REMARK  Name = 
REMARK  7 active torsions:
REMARK  status: ('A' for Active; 'I' for Inactive)
REMARK    1  A    between atoms: C_2  and  N_3
REMARK    2  A    between atoms: N_3  and  C_4
REMARK    3  A    between atoms: N_3  and  C_6
REMARK    4  A    between atoms: C_9  and  C_10
REMARK    5  A    between atoms: C_10  and  C_11
REMARK    6  A    between atoms: N_21  and  C_22
REMARK    7  A    between atoms: N_21  and  C_24
REMARK                            x       y       z     vdW  Elec       q    Type
REMARK                         _______ _______ _______ _____ _____    ______ ____
ROOT
ATOM      1  C   UNL     1     -10.725  12.745  67.156  0.00  0.00    +0.000 C 
ATOM      2  C   UNL     1     -10.095  13.894  67.184  0.00  0.00    +0.000 C 
ATOM      3  C   UNL     1      -9.783  14.542  68.465  0.00  0.00    +0.006 C 
ATOM      4  C   UNL     1      -9.825  15.870  68.581  0.00  0.00    +0.069 C 
ATOM      5  C   UNL     1      -9.833  16.703  67.380  0.00  0.00    +0.221 C 
ATOM      6  N   UNL     1      -9.841  17.993  67.480  0.00  0.00    -0.189 N 
ATOM      7  C   UNL     1      -9.791  16.058  66.085  0.00  0.00    +0.069 C 
ATOM      8  C   UNL     1      -9.919  14.754  66.013  0.00  0.00    +0.006 C 
ENDROOT
BRANCH   1   9
ATOM      9  C   UNL     1     -11.208  12.155  65.928  0.00  0.00    +0.000 A 
ATOM     10  C   UNL     1     -10.411  11.281  65.200  0.00  0.00    +0.000 A 
ATOM     11  C   UNL     1     -10.659  11.021  63.857  0.00  0.00    +0.000 A 
ATOM     12  C   UNL     1     -11.592  11.757  63.172  0.00  0.00    +0.000 A 
ATOM     13  C   UNL     1     -12.384  12.621  63.882  0.00  0.00    +0.000 A 
ATOM     14  C   UNL     1     -12.360  12.563  65.271  0.00  0.00    +0.000 A 
ENDBRANCH   1   9
BRANCH   1  18
ATOM     15  C   UNL     1     -11.369  10.188  70.465  0.00  0.00    +0.048 A 
ATOM     16  C   UNL     1     -12.223  11.242  70.219  0.00  0.00    +0.015 A 
ATOM     17  C   UNL     1     -11.802  12.247  69.356  0.00  0.00    +0.001 A 
ATOM     18  C   UNL     1     -10.844  11.986  68.391  0.00  0.00    +0.000 A 
ATOM     19  C   UNL     1     -10.042  10.880  68.644  0.00  0.00    +0.001 A 
ATOM     20  C   UNL     1     -10.131  10.178  69.841  0.00  0.00    +0.015 A 
BRANCH  15  21
ATOM     21  N   UNL     1     -11.794   9.197  71.375  0.00  0.00    -0.307 N 
BRANCH  21  23
ATOM     22  C   UNL     1     -14.091   8.437  71.798  0.00  0.00    +0.023 C 
ATOM     23  C   UNL     1     -13.017   9.458  72.128  0.00  0.00    +0.091 C 
ENDBRANCH  21  23
BRANCH  21  24
ATOM     24  C   UNL     1     -11.113   7.910  71.467  0.00  0.00    +0.091 C 
ATOM     25  C   UNL     1     -10.627   7.769  72.899  0.00  0.00    +0.023 C 
ENDBRANCH  21  24
ENDBRANCH  15  21
ENDBRANCH   1  18
BRANCH   6  26
ATOM     26  C   UNL     1      -9.205  18.725  66.388  0.00  0.00    +0.317 C 
ATOM     27  C   UNL     1     -10.203  19.725  65.842  0.00  0.00    +0.092 C 
ENDBRANCH   6  26
BRANCH   6  28
ATOM     28  C   UNL     1      -9.784  18.607  68.802  0.00  0.00    +0.317 C 
ATOM     29  C   UNL     1      -8.487  19.339  69.015  0.00  0.00    +0.092 C 
ENDBRANCH   6  28
TORSDOF 7
ENDMDL
MODEL 3
REMARK VINA RESULT:      -6.8      4.701      7.363
REMARK  Name = 
REMARK  7 active torsions:
REMARK  status: ('A' for Active; 'I' for Inactive)
REMARK    1  A    between atoms: C_2  and  N_3
REMARK    2  A    between atoms: N_3  and  C_4
REMARK    3  A    between atoms: N_3  and  C_6
REMARK    4  A    between atoms: C_9  and  C_10
REMARK    5  A    between atoms: C_10  and  C_11
REMARK    6  A    between atoms: N_21  and  C_22
REMARK    7  A    between atoms: N_21  and  C_24
REMARK                            x       y       z     vdW  Elec       q    Type
REMARK                         _______ _______ _______ _____ _____    ______ ____
ROOT
ATOM      1  C   UNL     1     -10.779   9.397  69.732  0.00  0.00    +0.000 C 
ATOM      2  C   UNL     1     -11.637  10.369  69.926  0.00  0.00    +0.000 C 
ATOM      3  C   UNL     1     -11.636  11.549  69.052  0.00  0.00    +0.006 C 
ATOM      4  C   UNL     1     -11.906  12.758  69.544  0.00  0.00    +0.069 C 
ATOM      5  C   UNL     1     -12.541  12.882  70.856  0.00  0.00    +0.221 C 
ATOM      6  N   UNL     1     -12.838  14.049  71.330  0.00  0.00    -0.189 N 
ATOM      7  C   UNL     1     -12.866  11.678  71.588  0.00  0.00    +0.069 C 
ATOM      8  C   UNL     1     -12.433  10.521  71.144  0.00  0.00    +0.006 C 
ENDROOT
BRANCH   1   9
ATOM      9  C   UNL     1     -10.622   8.304  70.664  0.00  0.00    +0.000 A 
ATOM     10  C   UNL     1     -11.495   7.223  70.642  0.00  0.00    +0.000 A 
ATOM     11  C   UNL     1     -11.634   6.380  71.738  0.00  0.00    +0.000 A 
ATOM     12  C   UNL     1     -11.043   6.699  72.934  0.00  0.00    +0.000 A 
ATOM     13  C   UNL     1     -10.179   7.763  72.966  0.00  0.00    +0.000 A 
ATOM     14  C   UNL     1      -9.777   8.336  71.765  0.00  0.00    +0.000 A 
ENDBRANCH   1   9
BRANCH   1  18
ATOM     15  C   UNL     1      -8.929   9.713  65.940  0.00  0.00    +0.048 A 
ATOM     16  C   UNL     1     -10.014   8.883  66.122  0.00  0.00    +0.015 A 
ATOM     17  C   UNL     1     -10.375   8.540  67.420  0.00  0.00    +0.001 A 
ATOM     18  C   UNL     1     -10.038   9.362  68.482  0.00  0.00    +0.000 A 
ATOM     19  C   UNL     1      -8.977  10.227  68.240  0.00  0.00    +0.001 A 
ATOM     20  C   UNL     1      -8.247  10.167  67.059  0.00  0.00    +0.015 A 
BRANCH  15  21
ATOM     21  N   UNL     1      -8.550  10.019  64.616  0.00  0.00    -0.307 N 
BRANCH  21  23
ATOM     22  C   UNL     1      -6.812   8.365  64.088  0.00  0.00    +0.023 C 
ATOM     23  C   UNL     1      -7.146   9.836  64.261  0.00  0.00    +0.091 C 
ENDBRANCH  21  23
BRANCH  21  24
ATOM     24  C   UNL     1      -9.541  10.380  63.608  0.00  0.00    +0.091 C 
ATOM     25  C   UNL     1     -10.104  11.733  64.007  0.00  0.00    +0.023 C 
ENDBRANCH  21  24
ENDBRANCH  15  21
ENDBRANCH   1  18
BRANCH   6  26
ATOM     26  C   UNL     1     -13.986  14.102  72.231  0.00  0.00    +0.317 C 
ATOM     27  C   UNL     1     -15.105  14.842  71.528  0.00  0.00    +0.092 C 
ENDBRANCH   6  26
BRANCH   6  28
ATOM     28  C   UNL     1     -12.584  15.235  70.519  0.00  0.00    +0.317 C 
ATOM     29  C   UNL     1     -11.612  16.166  71.191  0.00  0.00    +0.092 C 
ENDBRANCH   6  28
TORSDOF 7
ENDMDL
MODEL 4
REMARK VINA RESULT:      -6.6      4.668      7.732
REMARK  Name = 
REMARK  7 active torsions:
REMARK  status: ('A' for Active; 'I' for Inactive)
REMARK    1  A    between atoms: C_2  and  N_3
REMARK    2  A    between atoms: N_3  and  C_4
REMARK    3  A    between atoms: N_3  and  C_6
REMARK    4  A    between atoms: C_9  and  C_10
REMARK    5  A    between atoms: C_10  and  C_11
REMARK    6  A    between atoms: N_21  and  C_22
REMARK    7  A    between atoms: N_21  and  C_24
REMARK                            x       y       z     vdW  Elec       q    Type
REMARK                         _______ _______ _______ _____ _____    ______ ____
ROOT
ATOM      1  C   UNL     1     -11.098   9.221  70.384  0.00  0.00    +0.000 C 
ATOM      2  C   UNL     1     -11.905  10.253  70.430  0.00  0.00    +0.000 C 
ATOM      3  C   UNL     1     -11.793  11.332  69.439  0.00  0.00    +0.006 C 
ATOM      4  C   UNL     1     -12.014  12.600  69.790  0.00  0.00    +0.069 C 
ATOM      5  C   UNL     1     -12.701  12.897  71.045  0.00  0.00    +0.221 C 
ATOM      6  N   UNL     1     -12.949  14.121  71.380  0.00  0.00    -0.189 N 
ATOM      7  C   UNL     1     -13.131  11.796  71.880  0.00  0.00    +0.069 C 
ATOM      8  C   UNL     1     -12.748  10.577  71.582  0.00  0.00    +0.006 C 
ENDROOT
BRANCH   1   9
ATOM      9  C   UNL     1     -11.051   8.226  71.431  0.00  0.00    +0.000 A 
ATOM     10  C   UNL     1     -10.050   8.258  72.394  0.00  0.00    +0.000 A 
ATOM     11  C   UNL     1      -9.731   7.134  73.146  0.00  0.00    +0.000 A 
ATOM     12  C   UNL     1     -10.278   5.915  72.832  0.00  0.00    +0.000 A 
ATOM     13  C   UNL     1     -11.267   5.874  71.885  0.00  0.00    +0.000 A 
ATOM     14  C   UNL     1     -11.818   7.070  71.439  0.00  0.00    +0.000 A 
ENDBRANCH   1   9
BRANCH   1  18
ATOM     15  C   UNL     1      -9.045   9.041  66.688  0.00  0.00    +0.048 A 
ATOM     16  C   UNL     1     -10.204   8.320  66.880  0.00  0.00    +0.015 A 
ATOM     17  C   UNL     1     -10.656   8.127  68.180  0.00  0.00    +0.001 A 
ATOM     18  C   UNL     1     -10.303   9.013  69.184  0.00  0.00    +0.000 A 
ATOM     19  C   UNL     1      -9.162   9.765  68.928  0.00  0.00    +0.001 A 
ATOM     20  C   UNL     1      -8.383   9.539  67.800  0.00  0.00    +0.015 A 
BRANCH  15  21
ATOM     21  N   UNL     1      -8.578   9.194  65.366  0.00  0.00    -0.307 N 
BRANCH  21  23
ATOM     22  C   UNL     1      -9.883  11.243  65.004  0.00  0.00    +0.023 C 
ATOM     23  C   UNL     1      -9.438   9.910  64.429  0.00  0.00    +0.091 C 
ENDBRANCH  21  23
BRANCH  21  24
ATOM     24  C   UNL     1      -7.236   8.769  64.982  0.00  0.00    +0.091 C 
ATOM     25  C   UNL     1      -6.525   9.993  64.431  0.00  0.00    +0.023 C 
ENDBRANCH  21  24
ENDBRANCH  15  21
ENDBRANCH   1  18
BRANCH   6  26
ATOM     26  C   UNL     1     -14.133  14.332  72.209  0.00  0.00    +0.317 C 
ATOM     27  C   UNL     1     -15.146  15.113  71.397  0.00  0.00    +0.092 C 
ENDBRANCH   6  26
BRANCH   6  28
ATOM     28  C   UNL     1     -12.588  15.199  70.466  0.00  0.00    +0.317 C 
ATOM     29  C   UNL     1     -11.551  16.108  71.066  0.00  0.00    +0.092 C 
ENDBRANCH   6  28
TORSDOF 7
ENDMDL
MODEL 5
REMARK VINA RESULT:      -6.5      2.404      7.999
REMARK  Name = 
REMARK  7 active torsions:
REMARK  status: ('A' for Active; 'I' for Inactive)
REMARK    1  A    between atoms: C_2  and  N_3
REMARK    2  A    between atoms: N_3  and  C_4
REMARK    3  A    between atoms: N_3  and  C_6
REMARK    4  A    between atoms: C_9  and  C_10
REMARK    5  A    between atoms: C_10  and  C_11
REMARK    6  A    between atoms: N_21  and  C_22
REMARK    7  A    between atoms: N_21  and  C_24
REMARK                            x       y       z     vdW  Elec       q    Type
REMARK                         _______ _______ _______ _____ _____    ______ ____
ROOT
ATOM      1  C   UNL     1     -11.587  14.180  69.503  0.00  0.00    +0.000 C 
ATOM      2  C   UNL     1     -11.094  15.145  68.766  0.00  0.00    +0.000 C 
ATOM      3  C   UNL     1     -10.290  14.837  67.575  0.00  0.00    +0.006 C 
ATOM      4  C   UNL     1      -9.255  15.608  67.238  0.00  0.00    +0.069 C 
ATOM      5  C   UNL     1      -9.120  16.940  67.825  0.00  0.00    +0.221 C 
ATOM      6  N   UNL     1      -8.138  17.708  67.481  0.00  0.00    -0.189 N 
ATOM      7  C   UNL     1     -10.125  17.392  68.763  0.00  0.00    +0.069 C 
ATOM      8  C   UNL     1     -11.030  16.544  69.192  0.00  0.00    +0.006 C 
ENDROOT
BRANCH   1   9
ATOM      9  C   UNL     1     -12.231  14.426  70.773  0.00  0.00    +0.000 A 
ATOM     10  C   UNL     1     -13.616  14.425  70.878  0.00  0.00    +0.000 A 
ATOM     11  C   UNL     1     -14.264  15.039  71.943  0.00  0.00    +0.000 A 
ATOM     12  C   UNL     1     -13.557  15.815  72.827  0.00  0.00    +0.000 A 
ATOM     13  C   UNL     1     -12.190  15.821  72.733  0.00  0.00    +0.000 A 
ATOM     14  C   UNL     1     -11.571  14.895  71.900  0.00  0.00    +0.000 A 
ENDBRANCH   1   9
BRANCH   1  18
ATOM     15  C   UNL     1     -11.042  10.299  67.909  0.00  0.00    +0.048 A 
ATOM     16  C   UNL     1     -11.308  11.366  67.077  0.00  0.00    +0.015 A 
ATOM     17  C   UNL     1     -11.815  12.532  67.638  0.00  0.00    +0.001 A 
ATOM     18  C   UNL     1     -11.584  12.827  68.971  0.00  0.00    +0.000 A 
ATOM     19  C   UNL     1     -11.260  11.734  69.766  0.00  0.00    +0.001 A 
ATOM     20  C   UNL     1     -11.294  10.438  69.266  0.00  0.00    +0.015 A 
BRANCH  15  21
ATOM     21  N   UNL     1     -10.566   9.109  67.319  0.00  0.00    -0.307 N 
BRANCH  21  23
ATOM     22  C   UNL     1      -8.499   9.281  66.005  0.00  0.00    +0.023 C 
ATOM     23  C   UNL     1     -10.014   9.202  65.971  0.00  0.00    +0.091 C 
ENDBRANCH  21  23
BRANCH  21  24
ATOM     24  C   UNL     1     -10.509   7.860  68.072  0.00  0.00    +0.091 C 
ATOM     25  C   UNL     1     -10.932   6.752  67.123  0.00  0.00    +0.023 C 
ENDBRANCH  21  24
ENDBRANCH  15  21
ENDBRANCH   1  18
BRANCH   6  26
ATOM     26  C   UNL     1      -8.395  19.144  67.547  0.00  0.00    +0.317 C 
ATOM     27  C   UNL     1      -8.729  19.630  66.151  0.00  0.00    +0.092 C 
ENDBRANCH   6  26
BRANCH   6  28
ATOM     28  C   UNL     1      -7.200  17.255  66.460  0.00  0.00    +0.317 C 
ATOM     29  C   UNL     1      -5.812  17.095  67.016  0.00  0.00    +0.092 C 
ENDBRANCH   6  28
TORSDOF 7
ENDMDL
MODEL 6
REMARK VINA RESULT:      -6.4      2.333      6.151
REMARK  Name = 
REMARK  7 active torsions:
REMARK  status: ('A' for Active; 'I' for Inactive)
REMARK    1  A    between atoms: C_2  and  N_3
REMARK    2  A    between atoms: N_3  and  C_4
REMARK    3  A    between atoms: N_3  and  C_6
REMARK    4  A    between atoms: C_9  and  C_10
REMARK    5  A    between atoms: C_10  and  C_11
REMARK    6  A    between atoms: N_21  and  C_22
REMARK    7  A    between atoms: N_21  and  C_24
REMARK                            x       y       z     vdW  Elec       q    Type
REMARK                         _______ _______ _______ _____ _____    ______ ____
ROOT
ATOM      1  C   UNL     1     -10.165  15.756  67.830  0.00  0.00    +0.000 C 
ATOM      2  C   UNL     1     -10.632  15.489  69.026  0.00  0.00    +0.000 C 
ATOM      3  C   UNL     1     -11.271  14.196  69.304  0.00  0.00    +0.006 C 
ATOM      4  C   UNL     1     -12.308  14.119  70.139  0.00  0.00    +0.069 C 
ATOM      5  C   UNL     1     -12.596  15.231  71.045  0.00  0.00    +0.221 C 
ATOM      6  N   UNL     1     -13.579  15.154  71.881  0.00  0.00    -0.189 N 
ATOM      7  C   UNL     1     -11.736  16.394  71.012  0.00  0.00    +0.069 C 
ATOM      8  C   UNL     1     -10.834  16.499  70.065  0.00  0.00    +0.006 C 
ENDROOT
BRANCH   1   9
ATOM      9  C   UNL     1      -9.689  17.069  67.459  0.00  0.00    +0.000 A 
ATOM     10  C   UNL     1      -8.455  17.527  67.905  0.00  0.00    +0.000 A 
ATOM     11  C   UNL     1      -8.146  18.882  67.918  0.00  0.00    +0.000 A 
ATOM     12  C   UNL     1      -9.118  19.814  67.656  0.00  0.00    +0.000 A 
ATOM     13  C   UNL     1     -10.338  19.372  67.215  0.00  0.00    +0.000 A 
ATOM     14  C   UNL     1     -10.475  18.038  66.851  0.00  0.00    +0.000 A 
ENDBRANCH   1   9
BRANCH   1  18
ATOM     15  C   UNL     1     -10.070  12.300  65.391  0.00  0.00    +0.048 A 
ATOM     16  C   UNL     1      -9.121  12.489  66.373  0.00  0.00    +0.015 A 
ATOM     17  C   UNL     1      -8.971  13.762  66.911  0.00  0.00    +0.001 A 
ATOM     18  C   UNL     1     -10.020  14.665  66.880  0.00  0.00    +0.000 A 
ATOM     19  C   UNL     1     -10.988  14.407  65.916  0.00  0.00    +0.001 A 
ATOM     20  C   UNL     1     -10.830  13.387  64.985  0.00  0.00    +0.015 A 
BRANCH  15  21
ATOM     21  N   UNL     1     -10.183  11.013  64.825  0.00  0.00    -0.307 N 
BRANCH  21  23
ATOM     22  C   UNL     1      -9.099   8.876  65.365  0.00  0.00    +0.023 C 
ATOM     23  C   UNL     1     -10.178   9.876  65.740  0.00  0.00    +0.091 C 
ENDBRANCH  21  23
BRANCH  21  24
ATOM     24  C   UNL     1     -10.423  10.830  63.398  0.00  0.00    +0.091 C 
ATOM     25  C   UNL     1      -9.131  11.184  62.683  0.00  0.00    +0.023 C 
ENDBRANCH  21  24
ENDBRANCH  15  21
ENDBRANCH   1  18
BRANCH   6  26
ATOM     26  C   UNL     1     -13.425  15.907  73.123  0.00  0.00    +0.317 C 
ATOM     27  C   UNL     1     -12.422  15.181  73.996  0.00  0.00    +0.092 C 
ENDBRANCH   6  26
BRANCH   6  28
ATOM     28  C   UNL     1     -14.363  13.925  71.952  0.00  0.00    +0.317 C 
ATOM     29  C   UNL     1     -13.503  12.742  72.305  0.00  0.00    +0.092 C 
ENDBRANCH   6  28
TORSDOF 7
ENDMDL
MODEL 7
REMARK VINA RESULT:      -6.4      5.086      8.232
REMARK  Name = 
REMARK  7 active torsions:
REMARK  status: ('A' for Active; 'I' for Inactive)
REMARK    1  A    between atoms: C_2  and  N_3
REMARK    2  A    between atoms: N_3  and  C_4
REMARK    3  A    between atoms: N_3  and  C_6
REMARK    4  A    between atoms: C_9  and  C_10
REMARK    5  A    between atoms: C_10  and  C_11
REMARK    6  A    between atoms: N_21  and  C_22
REMARK    7  A    between atoms: N_21  and  C_24
REMARK                            x       y       z     vdW  Elec       q    Type
REMARK                         _______ _______ _______ _____ _____    ______ ____
ROOT
ATOM      1  C   UNL     1     -10.989   9.262  70.212  0.00  0.00    +0.000 C 
ATOM      2  C   UNL     1     -11.813  10.279  70.283  0.00  0.00    +0.000 C 
ATOM      3  C   UNL     1     -11.665  11.423  69.374  0.00  0.00    +0.006 C 
ATOM      4  C   UNL     1     -11.924  12.661  69.796  0.00  0.00    +0.069 C 
ATOM      5  C   UNL     1     -12.682  12.865  71.029  0.00  0.00    +0.221 C 
ATOM      6  N   UNL     1     -12.967  14.061  71.431  0.00  0.00    -0.189 N 
ATOM      7  C   UNL     1     -13.138  11.705  71.765  0.00  0.00    +0.069 C 
ATOM      8  C   UNL     1     -12.721  10.514  71.407  0.00  0.00    +0.006 C 
ENDROOT
BRANCH   1   9
ATOM      9  C   UNL     1     -10.982   8.200  71.192  0.00  0.00    +0.000 A 
ATOM     10  C   UNL     1     -10.192   8.292  72.332  0.00  0.00    +0.000 A 
ATOM     11  C   UNL     1      -9.847   7.165  73.068  0.00  0.00    +0.000 A 
ATOM     12  C   UNL     1     -10.132   5.912  72.587  0.00  0.00    +0.000 A 
ATOM     13  C   UNL     1     -10.911   5.811  71.465  0.00  0.00    +0.000 A 
ATOM     14  C   UNL     1     -11.549   6.950  70.988  0.00  0.00    +0.000 A 
ENDBRANCH   1   9
BRANCH   1  18
ATOM     15  C   UNL     1      -8.442   8.397  66.946  0.00  0.00    +0.048 A 
ATOM     16  C   UNL     1      -7.917   8.810  68.152  0.00  0.00    +0.015 A 
ATOM     17  C   UNL     1      -8.768   9.408  69.075  0.00  0.00    +0.001 A 
ATOM     18  C   UNL     1     -10.127   9.145  69.047  0.00  0.00    +0.000 A 
ATOM     19  C   UNL     1     -10.609   8.672  67.831  0.00  0.00    +0.001 A 
ATOM     20  C   UNL     1      -9.794   8.596  66.708  0.00  0.00    +0.015 A 
BRANCH  15  21
ATOM     21  N   UNL     1      -7.558   7.830  66.005  0.00  0.00    -0.307 N 
BRANCH  21  23
ATOM     22  C   UNL     1      -8.100   5.828  64.688  0.00  0.00    +0.023 C 
ATOM     23  C   UNL     1      -8.131   7.345  64.753  0.00  0.00    +0.091 C 
ENDBRANCH  21  23
BRANCH  21  24
ATOM     24  C   UNL     1      -6.114   7.842  66.217  0.00  0.00    +0.091 C 
ATOM     25  C   UNL     1      -5.529   8.820  65.212  0.00  0.00    +0.023 C 
ENDBRANCH  21  24
ENDBRANCH  15  21
ENDBRANCH   1  18
BRANCH   6  26
ATOM     26  C   UNL     1     -14.197  14.201  72.206  0.00  0.00    +0.317 C 
ATOM     27  C   UNL     1     -15.150  15.082  71.426  0.00  0.00    +0.092 C 
ENDBRANCH   6  26
BRANCH   6  28
ATOM     28  C   UNL     1     -12.575  15.202  70.611  0.00  0.00    +0.317 C 
ATOM     29  C   UNL     1     -11.645  16.123  71.354  0.00  0.00    +0.092 C 
ENDBRANCH   6  28
TORSDOF 7
ENDMDL
MODEL 8
REMARK VINA RESULT:      -6.3      2.131      7.910
REMARK  Name = 
REMARK  7 active torsions:
REMARK  status: ('A' for Active; 'I' for Inactive)
REMARK    1  A    between atoms: C_2  and  N_3
REMARK    2  A    between atoms: N_3  and  C_4
REMARK    3  A    between atoms: N_3  and  C_6
REMARK    4  A    between atoms: C_9  and  C_10
REMARK    5  A    between atoms: C_10  and  C_11
REMARK    6  A    between atoms: N_21  and  C_22
REMARK    7  A    between atoms: N_21  and  C_24
REMARK                            x       y       z     vdW  Elec       q    Type
REMARK                         _______ _______ _______ _____ _____    ______ ____
ROOT
ATOM      1  C   UNL     1     -11.452  14.978  69.043  0.00  0.00    +0.000 C 
ATOM      2  C   UNL     1     -10.927  15.888  68.259  0.00  0.00    +0.000 C 
ATOM      3  C   UNL     1     -10.107  15.494  67.106  0.00  0.00    +0.006 C 
ATOM      4  C   UNL     1      -9.051  16.225  66.744  0.00  0.00    +0.069 C 
ATOM      5  C   UNL     1      -8.903  17.588  67.253  0.00  0.00    +0.221 C 
ATOM      6  N   UNL     1      -7.900  18.317  66.883  0.00  0.00    -0.189 N 
ATOM      7  C   UNL     1      -9.918  18.113  68.140  0.00  0.00    +0.069 C 
ATOM      8  C   UNL     1     -10.846  17.308  68.601  0.00  0.00    +0.006 C 
ENDROOT
BRANCH   1   9
ATOM      9  C   UNL     1     -12.116  15.312  70.283  0.00  0.00    +0.000 A 
ATOM     10  C   UNL     1     -11.382  15.549  71.438  0.00  0.00    +0.000 A 
ATOM     11  C   UNL     1     -11.965  15.470  72.697  0.00  0.00    +0.000 A 
ATOM     12  C   UNL     1     -13.239  14.982  72.838  0.00  0.00    +0.000 A 
ATOM     13  C   UNL     1     -13.972  14.747  71.705  0.00  0.00    +0.000 A 
ATOM     14  C   UNL     1     -13.484  15.203  70.485  0.00  0.00    +0.000 A 
ENDBRANCH   1   9
BRANCH   1  18
ATOM     15  C   UNL     1     -10.970  11.032  67.594  0.00  0.00    +0.048 A 
ATOM     16  C   UNL     1     -11.433  12.030  66.764  0.00  0.00    +0.015 A 
ATOM     17  C   UNL     1     -11.902  13.205  67.340  0.00  0.00    +0.001 A 
ATOM     18  C   UNL     1     -11.464  13.595  68.594  0.00  0.00    +0.000 A 
ATOM     19  C   UNL     1     -10.947  12.571  69.379  0.00  0.00    +0.001 A 
ATOM     20  C   UNL     1     -10.992  11.246  68.965  0.00  0.00    +0.015 A 
BRANCH  15  21
ATOM     21  N   UNL     1     -10.535   9.830  66.998  0.00  0.00    -0.307 N 
BRANCH  21  23
ATOM     22  C   UNL     1     -10.636   7.377  66.922  0.00  0.00    +0.023 C 
ATOM     23  C   UNL     1     -10.616   8.614  67.802  0.00  0.00    +0.091 C 
ENDBRANCH  21  23
BRANCH  21  24
ATOM     24  C   UNL     1     -10.141   9.779  65.593  0.00  0.00    +0.091 C 
ATOM     25  C   UNL     1      -8.658  10.102  65.539  0.00  0.00    +0.023 C 
ENDBRANCH  21  24
ENDBRANCH  15  21
ENDBRANCH   1  18
BRANCH   6  26
ATOM     26  C   UNL     1      -8.132  19.759  66.857  0.00  0.00    +0.317 C 
ATOM     27  C   UNL     1      -7.037  20.429  67.660  0.00  0.00    +0.092 C 
ENDBRANCH   6  26
BRANCH   6  28
ATOM     28  C   UNL     1      -6.951  17.787  65.910  0.00  0.00    +0.317 C 
ATOM     29  C   UNL     1      -5.656  17.388  66.563  0.00  0.00    +0.092 C 
ENDBRANCH   6  28
TORSDOF 7
ENDMDL
MODEL 9
REMARK VINA RESULT:      -6.2      3.702      6.031
REMARK  Name = 
REMARK  7 active torsions:
REMARK  status: ('A' for Active; 'I' for Inactive)
REMARK    1  A    between atoms: C_2  and  N_3
REMARK    2  A    between atoms: N_3  and  C_4
REMARK    3  A    between atoms: N_3  and  C_6
REMARK    4  A    between atoms: C_9  and  C_10
REMARK    5  A    between atoms: C_10  and  C_11
REMARK    6  A    between atoms: N_21  and  C_22
REMARK    7  A    between atoms: N_21  and  C_24
REMARK                            x       y       z     vdW  Elec       q    Type
REMARK                         _______ _______ _______ _____ _____    ______ ____
ROOT
ATOM      1  C   UNL     1     -10.092  11.096  66.376  0.00  0.00    +0.000 C 
ATOM      2  C   UNL     1     -10.614  10.138  67.102  0.00  0.00    +0.000 C 
ATOM      3  C   UNL     1     -11.060  10.403  68.476  0.00  0.00    +0.006 C 
ATOM      4  C   UNL     1     -10.919   9.477  69.425  0.00  0.00    +0.069 C 
ATOM      5  C   UNL     1     -10.652   8.089  69.051  0.00  0.00    +0.221 C 
ATOM      6  N   UNL     1     -10.545   7.176  69.961  0.00  0.00    -0.189 N 
ATOM      7  C   UNL     1     -10.551   7.754  67.647  0.00  0.00    +0.069 C 
ATOM      8  C   UNL     1     -10.530   8.718  66.757  0.00  0.00    +0.006 C 
ENDROOT
BRANCH   1   9
ATOM      9  C   UNL     1      -9.479  10.849  65.090  0.00  0.00    +0.000 A 
ATOM     10  C   UNL     1     -10.228  10.928  63.922  0.00  0.00    +0.000 A 
ATOM     11  C   UNL     1      -9.803  10.321  62.747  0.00  0.00    +0.000 A 
ATOM     12  C   UNL     1      -8.720   9.479  62.757  0.00  0.00    +0.000 A 
ATOM     13  C   UNL     1      -7.975   9.396  63.903  0.00  0.00    +0.000 A 
ATOM     14  C   UNL     1      -8.212  10.309  64.924  0.00  0.00    +0.000 A 
ENDBRANCH   1   9
BRANCH   1  18
ATOM     15  C   UNL     1     -10.631  14.884  68.183  0.00  0.00    +0.048 A 
ATOM     16  C   UNL     1     -11.679  14.260  67.541  0.00  0.00    +0.015 A 
ATOM     17  C   UNL     1     -11.395  13.208  66.678  0.00  0.00    +0.001 A 
ATOM     18  C   UNL     1     -10.233  12.470  66.832  0.00  0.00    +0.000 A 
ATOM     19  C   UNL     1      -9.220  13.110  67.536  0.00  0.00    +0.001 A 
ATOM     20  C   UNL     1      -9.342  14.435  67.938  0.00  0.00    +0.015 A 
BRANCH  15  21
ATOM     21  N   UNL     1     -10.932  15.976  69.023  0.00  0.00    -0.307 N 
BRANCH  21  23
ATOM     22  C   UNL     1     -10.561  17.914  67.560  0.00  0.00    +0.023 C 
ATOM     23  C   UNL     1     -10.157  17.199  68.838  0.00  0.00    +0.091 C 
ENDBRANCH  21  23
BRANCH  21  24
ATOM     24  C   UNL     1     -12.056  15.930  69.953  0.00  0.00    +0.091 C 
ATOM     25  C   UNL     1     -11.568  15.213  71.200  0.00  0.00    +0.023 C 
ENDBRANCH  21  24
ENDBRANCH  15  21
ENDBRANCH   1  18
BRANCH   6  26
ATOM     26  C   UNL     1     -10.937   5.826  69.565  0.00  0.00    +0.317 C 
ATOM     27  C   UNL     1      -9.785   4.890  69.867  0.00  0.00    +0.092 C 
ENDBRANCH   6  26
BRANCH   6  28
ATOM     28  C   UNL     1     -10.750   7.535  71.361  0.00  0.00    +0.317 C 
ATOM     29  C   UNL     1     -12.063   7.013  71.877  0.00  0.00    +0.092 C 
ENDBRANCH   6  28
TORSDOF 7
ENDMDL
