MODEL 1
REMARK VINA RESULT:      -7.1      0.000      0.000
REMARK  Name = 
REMARK  2 active torsions:
REMARK  status: ('A' for Active; 'I' for Inactive)
REMARK    1  A    between atoms: C_2  and  C_4
REMARK    2  A    between atoms: C_4  and  C_6
REMARK                            x       y       z     vdW  Elec       q    Type
REMARK                         _______ _______ _______ _____ _____    ______ ____
ROOT
ATOM      1  C   UNL     1     -11.437  14.949  70.217  0.00  0.00    +0.147 C 
ATOM      2  N   UNL     1     -12.300  13.890  69.461  0.00  0.00    -0.228 NA
ATOM      3  C   UNL     1     -11.661  13.384  68.287  0.00  0.00    +0.157 A 
ATOM      4  C   UNL     1     -11.225  14.308  67.343  0.00  0.00    +0.170 A 
ATOM      5  N   UNL     1     -11.422  14.101  66.016  0.00  0.00    -0.193 NA
ATOM      6  C   UNL     1     -11.949  12.929  65.579  0.00  0.00    +0.260 A 
ATOM      7  N   UNL     1     -11.896  11.912  66.474  0.00  0.00    -0.171 NA
ATOM      8  N   UNL     1     -12.865  12.901  64.477  0.00  0.00    -0.086 NA
ATOM      9  N   UNL     1     -10.974  15.611  67.883  0.00  0.00    -0.217 NA
ATOM     10  C   UNL     1     -11.880  12.106  67.806  0.00  0.00    +0.299 A 
ATOM     11  O   UNL     1     -12.089  11.222  68.658  0.00  0.00    -0.264 OA
ATOM     12  C   UNL     1     -11.632  16.090  69.072  0.00  0.00    +0.138 C 
ENDROOT
BRANCH   1  13
ATOM     13  C   UNL     1     -12.705  15.566  71.191  0.00  0.00    +0.203 C 
ATOM     14  O   UNL     1     -11.764  16.473  71.917  0.00  0.00    -0.219 OA
BRANCH  13  16
ATOM     15  C   UNL     1     -14.337  14.074  72.092  0.00  0.00    +0.038 C 
ATOM     16  C   UNL     1     -12.716  14.251  72.295  0.00  0.00    +0.184 C 
ATOM     17  O   UNL     1     -12.923  15.038  73.564  0.00  0.00    -0.220 OA
ENDBRANCH  13  16
ENDBRANCH   1  13
TORSDOF 2
ENDMDL
MODEL 2
REMARK VINA RESULT:      -6.8      2.300      5.975
REMARK  Name = 
REMARK  2 active torsions:
REMARK  status: ('A' for Active; 'I' for Inactive)
REMARK    1  A    between atoms: C_2  and  C_4
REMARK    2  A    between atoms: C_4  and  C_6
REMARK                            x       y       z     vdW  Elec       q    Type
REMARK                         _______ _______ _______ _____ _____    ______ ____
ROOT
ATOM      1  C   UNL     1     -10.918  12.810  67.462  0.00  0.00    +0.147 C 
ATOM      2  N   UNL     1     -11.819  14.055  67.737  0.00  0.00    -0.228 NA
ATOM      3  C   UNL     1     -11.761  14.497  69.095  0.00  0.00    +0.157 A 
ATOM      4  C   UNL     1     -12.036  13.562  70.089  0.00  0.00    +0.170 A 
ATOM      5  N   UNL     1     -12.820  13.878  71.151  0.00  0.00    -0.193 NA
ATOM      6  C   UNL     1     -13.257  15.152  71.322  0.00  0.00    +0.260 A 
ATOM      7  N   UNL     1     -12.573  16.088  70.617  0.00  0.00    -0.171 NA
ATOM      8  N   UNL     1     -14.573  15.415  71.824  0.00  0.00    -0.086 NA
ATOM      9  N   UNL     1     -11.808  12.206  69.685  0.00  0.00    -0.217 NA
ATOM     10  C   UNL     1     -11.939  15.818  69.462  0.00  0.00    +0.299 A 
ATOM     11  O   UNL     1     -11.524  16.675  68.659  0.00  0.00    -0.264 OA
ATOM     12  C   UNL     1     -11.869  11.793  68.307  0.00  0.00    +0.138 C 
ENDROOT
BRANCH   1  13
ATOM     13  C   UNL     1     -11.630  12.389  65.961  0.00  0.00    +0.203 C 
ATOM     14  O   UNL     1     -10.765  11.175  65.841  0.00  0.00    -0.219 OA
BRANCH  13  16
ATOM     15  C   UNL     1     -12.059  14.174  64.434  0.00  0.00    +0.038 C 
ATOM     16  C   UNL     1     -10.691  13.480  65.025  0.00  0.00    +0.184 C 
ATOM     17  O   UNL     1     -10.544  12.631  63.788  0.00  0.00    -0.220 OA
ENDBRANCH  13  16
ENDBRANCH   1  13
TORSDOF 2
ENDMDL
MODEL 3
REMARK VINA RESULT:      -6.8      2.732      5.628
REMARK  Name = 
REMARK  2 active torsions:
REMARK  status: ('A' for Active; 'I' for Inactive)
REMARK    1  A    between atoms: C_2  and  C_4
REMARK    2  A    between atoms: C_4  and  C_6
REMARK                            x       y       z     vdW  Elec       q    Type
REMARK                         _______ _______ _______ _____ _____    ______ ____
ROOT
ATOM      1  C   UNL     1     -11.901  13.723  68.567  0.00  0.00    +0.147 C 
ATOM      2  N   UNL     1     -11.824  13.334  70.078  0.00  0.00    -0.228 NA
ATOM      3  C   UNL     1     -12.785  14.021  70.881  0.00  0.00    +0.157 A 
ATOM      4  C   UNL     1     -12.803  15.411  70.816  0.00  0.00    +0.170 A 
ATOM      5  N   UNL     1     -12.924  16.165  71.938  0.00  0.00    -0.193 NA
ATOM      6  C   UNL     1     -13.147  15.571  73.138  0.00  0.00    +0.260 A 
ATOM      7  N   UNL     1     -13.596  14.294  73.067  0.00  0.00    -0.171 NA
ATOM      8  N   UNL     1     -12.537  16.078  74.332  0.00  0.00    -0.086 NA
ATOM      9  N   UNL     1     -12.265  15.939  69.596  0.00  0.00    -0.217 NA
ATOM     10  C   UNL     1     -13.328  13.478  72.031  0.00  0.00    +0.299 A 
ATOM     11  O   UNL     1     -13.493  12.243  72.034  0.00  0.00    -0.264 OA
ATOM     12  C   UNL     1     -11.300  15.218  68.806  0.00  0.00    +0.138 C 
ENDROOT
BRANCH   1  13
ATOM     13  C   UNL     1     -10.377  13.072  68.127  0.00  0.00    +0.203 C 
ATOM     14  O   UNL     1     -10.445  13.715  66.779  0.00  0.00    -0.219 OA
BRANCH  13  16
ATOM     15  C   UNL     1      -9.963  10.819  68.800  0.00  0.00    +0.038 C 
ATOM     16  C   UNL     1     -10.979  11.519  67.713  0.00  0.00    +0.184 C 
ATOM     17  O   UNL     1     -10.032  11.216  66.579  0.00  0.00    -0.220 OA
ENDBRANCH  13  16
ENDBRANCH   1  13
TORSDOF 2
ENDMDL
MODEL 4
REMARK VINA RESULT:      -6.6      2.948      4.312
REMARK  Name = 
REMARK  2 active torsions:
REMARK  status: ('A' for Active; 'I' for Inactive)
REMARK    1  A    between atoms: C_2  and  C_4
REMARK    2  A    between atoms: C_4  and  C_6
REMARK                            x       y       z     vdW  Elec       q    Type
REMARK                         _______ _______ _______ _____ _____    ______ ____
ROOT
ATOM      1  C   UNL     1     -11.332  15.792  67.856  0.00  0.00    +0.147 C 
ATOM      2  N   UNL     1     -10.997  15.551  66.350  0.00  0.00    -0.228 NA
ATOM      3  C   UNL     1     -11.908  14.653  65.713  0.00  0.00    +0.157 A 
ATOM      4  C   UNL     1     -12.094  13.404  66.296  0.00  0.00    +0.170 A 
ATOM      5  N   UNL     1     -12.141  12.276  65.542  0.00  0.00    -0.193 NA
ATOM      6  C   UNL     1     -12.121  12.361  64.187  0.00  0.00    +0.260 A 
ATOM      7  N   UNL     1     -12.427  13.585  63.688  0.00  0.00    -0.171 NA
ATOM      8  N   UNL     1     -11.411  11.396  63.401  0.00  0.00    -0.086 NA
ATOM      9  N   UNL     1     -11.799  13.372  67.699  0.00  0.00    -0.217 NA
ATOM     10  C   UNL     1     -12.216  14.727  64.367  0.00  0.00    +0.299 A 
ATOM     11  O   UNL     1     -12.236  15.868  63.867  0.00  0.00    -0.264 OA
ATOM     12  C   UNL     1     -10.879  14.295  68.312  0.00  0.00    +0.138 C 
ENDROOT
BRANCH   1  13
ATOM     13  C   UNL     1      -9.822  16.485  68.277  0.00  0.00    +0.203 C 
ATOM     14  O   UNL     1     -10.221  16.589  69.714  0.00  0.00    -0.219 OA
BRANCH  13  16
ATOM     15  C   UNL     1      -8.909  18.116  66.790  0.00  0.00    +0.038 C 
ATOM     16  C   UNL     1     -10.228  18.075  67.771  0.00  0.00    +0.184 C 
ATOM     17  O   UNL     1      -9.496  18.837  68.846  0.00  0.00    -0.220 OA
ENDBRANCH  13  16
ENDBRANCH   1  13
TORSDOF 2
ENDMDL
MODEL 5
REMARK VINA RESULT:      -6.5      3.637      4.998
REMARK  Name = 
REMARK  2 active torsions:
REMARK  status: ('A' for Active; 'I' for Inactive)
REMARK    1  A    between atoms: C_2  and  C_4
REMARK    2  A    between atoms: C_4  and  C_6
REMARK                            x       y       z     vdW  Elec       q    Type
REMARK                         _______ _______ _______ _____ _____    ______ ____
ROOT
ATOM      1  C   UNL     1      -9.906  15.973  67.639  0.00  0.00    +0.147 C 
ATOM      2  N   UNL     1      -9.994  15.693  66.105  0.00  0.00    -0.228 NA
ATOM      3  C   UNL     1     -11.248  15.130  65.711  0.00  0.00    +0.157 A 
ATOM      4  C   UNL     1     -11.669  13.976  66.364  0.00  0.00    +0.170 A 
ATOM      5  N   UNL     1     -12.214  12.940  65.677  0.00  0.00    -0.193 NA
ATOM      6  C   UNL     1     -12.464  13.060  64.348  0.00  0.00    +0.260 A 
ATOM      7  N   UNL     1     -12.490  14.335  63.886  0.00  0.00    -0.171 NA
ATOM      8  N   UNL     1     -12.264  11.952  63.461  0.00  0.00    -0.086 NA
ATOM      9  N   UNL     1     -11.100  13.811  67.670  0.00  0.00    -0.217 NA
ATOM     10  C   UNL     1     -11.804  15.338  64.462  0.00  0.00    +0.299 A 
ATOM     11  O   UNL     1     -11.589  16.448  63.940  0.00  0.00    -0.264 OA
ATOM     12  C   UNL     1      -9.835  14.395  68.037  0.00  0.00    +0.138 C 
ENDROOT
BRANCH   1  13
ATOM     13  C   UNL     1      -8.204  16.167  67.698  0.00  0.00    +0.203 C 
ATOM     14  O   UNL     1      -8.219  16.220  69.192  0.00  0.00    -0.219 OA
BRANCH  13  16
ATOM     15  C   UNL     1      -7.222  17.627  66.084  0.00  0.00    +0.038 C 
ATOM     16  C   UNL     1      -8.222  17.852  67.369  0.00  0.00    +0.184 C 
ATOM     17  O   UNL     1      -7.064  18.255  68.246  0.00  0.00    -0.220 OA
ENDBRANCH  13  16
ENDBRANCH   1  13
TORSDOF 2
ENDMDL
MODEL 6
REMARK VINA RESULT:      -6.4      2.982      5.506
REMARK  Name = 
REMARK  2 active torsions:
REMARK  status: ('A' for Active; 'I' for Inactive)
REMARK    1  A    between atoms: C_2  and  C_4
REMARK    2  A    between atoms: C_4  and  C_6
REMARK                            x       y       z     vdW  Elec       q    Type
REMARK                         _______ _______ _______ _____ _____    ______ ____
ROOT
ATOM      1  C   UNL     1     -11.684  14.428  66.307  0.00  0.00    +0.147 C 
ATOM      2  N   UNL     1     -10.741  15.052  67.384  0.00  0.00    -0.228 NA
ATOM      3  C   UNL     1     -10.677  16.478  67.312  0.00  0.00    +0.157 A 
ATOM      4  C   UNL     1     -10.335  17.046  66.089  0.00  0.00    +0.170 A 
ATOM      5  N   UNL     1      -9.459  18.081  66.016  0.00  0.00    -0.193 NA
ATOM      6  C   UNL     1      -8.988  18.656  67.152  0.00  0.00    +0.260 A 
ATOM      7  N   UNL     1      -9.713  18.393  68.267  0.00  0.00    -0.171 NA
ATOM      8  N   UNL     1      -7.630  19.106  67.238  0.00  0.00    -0.086 NA
ATOM      9  N   UNL     1     -10.620  16.206  64.963  0.00  0.00    -0.217 NA
ATOM     10  C   UNL     1     -10.446  17.275  68.418  0.00  0.00    +0.299 A 
ATOM     11  O   UNL     1     -10.913  16.869  69.499  0.00  0.00    -0.264 OA
ATOM     12  C   UNL     1     -10.681  14.771  65.069  0.00  0.00    +0.138 C 
ENDROOT
BRANCH   1  13
ATOM     13  C   UNL     1     -11.108  12.821  66.459  0.00  0.00    +0.203 C 
ATOM     14  O   UNL     1     -12.259  12.288  65.668  0.00  0.00    -0.219 OA
BRANCH  13  16
ATOM     15  C   UNL     1     -10.253  12.091  68.566  0.00  0.00    +0.038 C 
ATOM     16  C   UNL     1     -11.733  12.575  68.039  0.00  0.00    +0.184 C 
ATOM     17  O   UNL     1     -12.181  11.145  67.873  0.00  0.00    -0.220 OA
ENDBRANCH  13  16
ENDBRANCH   1  13
TORSDOF 2
ENDMDL
MODEL 7
REMARK VINA RESULT:      -6.2      4.697      6.321
REMARK  Name = 
REMARK  2 active torsions:
REMARK  status: ('A' for Active; 'I' for Inactive)
REMARK    1  A    between atoms: C_2  and  C_4
REMARK    2  A    between atoms: C_4  and  C_6
REMARK                            x       y       z     vdW  Elec       q    Type
REMARK                         _______ _______ _______ _____ _____    ______ ____
ROOT
ATOM      1  C   UNL     1     -11.083  14.940  65.736  0.00  0.00    +0.147 C 
ATOM      2  N   UNL     1      -9.568  14.562  65.709  0.00  0.00    -0.228 NA
ATOM      3  C   UNL     1      -8.756  15.456  66.474  0.00  0.00    +0.157 A 
ATOM      4  C   UNL     1      -8.846  16.814  66.185  0.00  0.00    +0.170 A 
ATOM      5  N   UNL     1      -7.735  17.590  66.107  0.00  0.00    -0.193 NA
ATOM      6  C   UNL     1      -6.520  17.075  66.426  0.00  0.00    +0.260 A 
ATOM      7  N   UNL     1      -6.559  15.928  67.149  0.00  0.00    -0.171 NA
ATOM      8  N   UNL     1      -5.348  17.448  65.689  0.00  0.00    -0.086 NA
ATOM      9  N   UNL     1     -10.086  17.194  65.574  0.00  0.00    -0.217 NA
ATOM     10  C   UNL     1      -7.585  15.061  67.094  0.00  0.00    +0.299 A 
ATOM     11  O   UNL     1      -7.557  13.894  67.529  0.00  0.00    -0.264 OA
ATOM     12  C   UNL     1     -10.884  16.267  64.813  0.00  0.00    +0.138 C 
ENDROOT
BRANCH   1  13
ATOM     13  C   UNL     1     -11.545  13.962  64.406  0.00  0.00    +0.203 C 
ATOM     14  O   UNL     1     -12.786  14.767  64.190  0.00  0.00    -0.219 OA
BRANCH  13  16
ATOM     15  C   UNL     1     -11.140  11.629  64.714  0.00  0.00    +0.038 C 
ATOM     16  C   UNL     1     -12.209  12.697  65.359  0.00  0.00    +0.184 C 
ATOM     17  O   UNL     1     -13.287  12.252  64.404  0.00  0.00    -0.220 OA
ENDBRANCH  13  16
ENDBRANCH   1  13
TORSDOF 2
ENDMDL
MODEL 8
REMARK VINA RESULT:      -6.2      2.732      4.633
REMARK  Name = 
REMARK  2 active torsions:
REMARK  status: ('A' for Active; 'I' for Inactive)
REMARK    1  A    between atoms: C_2  and  C_4
REMARK    2  A    between atoms: C_4  and  C_6
REMARK                            x       y       z     vdW  Elec       q    Type
REMARK                         _______ _______ _______ _____ _____    ______ ____
ROOT
ATOM      1  C   UNL     1     -11.535  15.866  68.294  0.00  0.00    +0.147 C 
ATOM      2  N   UNL     1     -10.980  14.442  67.974  0.00  0.00    -0.228 NA
ATOM      3  C   UNL     1     -11.815  13.393  68.467  0.00  0.00    +0.157 A 
ATOM      4  C   UNL     1     -12.142  13.412  69.820  0.00  0.00    +0.170 A 
ATOM      5  N   UNL     1     -12.116  12.277  70.564  0.00  0.00    -0.193 NA
ATOM      6  C   UNL     1     -11.882  11.078  69.971  0.00  0.00    +0.260 A 
ATOM      7  N   UNL     1     -12.056  11.064  68.626  0.00  0.00    -0.171 NA
ATOM      8  N   UNL     1     -11.097  10.075  70.629  0.00  0.00    -0.086 NA
ATOM      9  N   UNL     1     -12.071  14.715  70.413  0.00  0.00    -0.217 NA
ATOM     10  C   UNL     1     -11.906  12.156  67.855  0.00  0.00    +0.299 A 
ATOM     11  O   UNL     1     -11.802  12.145  66.614  0.00  0.00    -0.264 OA
ATOM     12  C   UNL     1     -11.221  15.753  69.889  0.00  0.00    +0.138 C 
ENDROOT
BRANCH   1  13
ATOM     13  C   UNL     1     -10.082  16.714  67.966  0.00  0.00    +0.203 C 
ATOM     14  O   UNL     1     -10.748  18.032  68.199  0.00  0.00    -0.219 OA
BRANCH  13  16
ATOM     15  C   UNL     1      -8.720  16.006  66.137  0.00  0.00    +0.038 C 
ATOM     16  C   UNL     1     -10.233  16.637  66.257  0.00  0.00    +0.184 C 
ATOM     17  O   UNL     1      -9.722  18.018  65.934  0.00  0.00    -0.220 OA
ENDBRANCH  13  16
ENDBRANCH   1  13
TORSDOF 2
ENDMDL
MODEL 9
REMARK VINA RESULT:      -6.1      2.854      5.119
REMARK  Name = 
REMARK  2 active torsions:
REMARK  status: ('A' for Active; 'I' for Inactive)
REMARK    1  A    between atoms: C_2  and  C_4
REMARK    2  A    between atoms: C_4  and  C_6
REMARK                            x       y       z     vdW  Elec       q    Type
REMARK                         _______ _______ _______ _____ _____    ______ ____
ROOT
ATOM      1  C   UNL     1     -10.805  14.415  68.736  0.00  0.00    +0.147 C 
ATOM      2  N   UNL     1     -10.684  15.113  67.344  0.00  0.00    -0.228 NA
ATOM      3  C   UNL     1      -9.975  16.352  67.400  0.00  0.00    +0.157 A 
ATOM      4  C   UNL     1     -10.425  17.311  68.303  0.00  0.00    +0.170 A 
ATOM      5  N   UNL     1     -10.516  18.619  67.950  0.00  0.00    -0.193 NA
ATOM      6  C   UNL     1     -10.058  19.032  66.740  0.00  0.00    +0.260 A 
ATOM      7  N   UNL     1      -9.211  18.170  66.127  0.00  0.00    -0.171 NA
ATOM      8  N   UNL     1     -10.752  20.045  66.000  0.00  0.00    -0.086 NA
ATOM      9  N   UNL     1     -11.159  16.766  69.407  0.00  0.00    -0.217 NA
ATOM     10  C   UNL     1      -9.234  16.841  66.340  0.00  0.00    +0.299 A 
ATOM     11  O   UNL     1      -8.665  15.994  65.626  0.00  0.00    -0.264 OA
ATOM     12  C   UNL     1     -11.860  15.511  69.319  0.00  0.00    +0.138 C 
ENDROOT
BRANCH   1  13
ATOM     13  C   UNL     1     -12.040  13.314  68.290  0.00  0.00    +0.203 C 
ATOM     14  O   UNL     1     -12.042  12.697  69.651  0.00  0.00    -0.219 OA
BRANCH  13  16
ATOM     15  C   UNL     1     -11.817  12.414  66.089  0.00  0.00    +0.038 C 
ATOM     16  C   UNL     1     -10.992  12.210  67.496  0.00  0.00    +0.184 C 
ATOM     17  O   UNL     1     -11.749  10.941  67.798  0.00  0.00    -0.220 OA
ENDBRANCH  13  16
ENDBRANCH   1  13
TORSDOF 2
ENDMDL
