MODEL 1
REMARK VINA RESULT:      -6.6      0.000      0.000
REMARK  Name = 
REMARK  5 active torsions:
REMARK  status: ('A' for Active; 'I' for Inactive)
REMARK    1  A    between atoms: O_2  and  C_3
REMARK    2  A    between atoms: C_5  and  C_6
REMARK    3  A    between atoms: C_6  and  C_7
REMARK    4  A    between atoms: C_16  and  O_17
REMARK    5  A    between atoms: C_19  and  O_20
REMARK                            x       y       z     vdW  Elec       q    Type
REMARK                         _______ _______ _______ _____ _____    ______ ____
ROOT
ATOM      1  C   UNL     1     -12.379  14.646  69.671  0.00  0.00    +0.175 A 
ATOM      2  C   UNL     1     -12.543  13.875  70.815  0.00  0.00    +0.206 A 
ATOM      3  C   UNL     1     -12.601  12.504  70.694  0.00  0.00    +0.175 A 
ATOM      4  C   UNL     1     -11.952  11.936  69.613  0.00  0.00    +0.036 A 
ATOM      5  C   UNL     1     -11.493  12.686  68.538  0.00  0.00    -0.011 A 
ATOM      6  C   UNL     1     -11.817  14.037  68.570  0.00  0.00    +0.036 A 
ENDROOT
BRANCH   1   8
ATOM      7  C   UNL     1     -10.833  16.508  69.488  0.00  0.00    +0.253 C 
ATOM      8  O   UNL     1     -12.116  16.011  69.820  0.00  0.00    -0.468 OA
ENDBRANCH   1   8
BRANCH   2   9
ATOM      9  O   UNL     1     -13.167  14.483  71.899  0.00  0.00    -0.465 OA
ATOM     10  C   UNL     1     -14.528  14.839  71.861  0.00  0.00    +0.253 C 
ENDBRANCH   2   9
BRANCH   3  11
ATOM     11  O   UNL     1     -12.838  11.778  71.845  0.00  0.00    -0.468 OA
ATOM     12  C   UNL     1     -13.098  10.398  71.859  0.00  0.00    +0.253 C 
ENDBRANCH   3  11
BRANCH   5  13
ATOM     13  C   UNL     1     -11.589  12.023  67.200  0.00  0.00    +0.057 C 
BRANCH  13  14
ATOM     14  C   UNL     1     -11.538  12.990  66.087  0.00  0.00    +0.036 A 
ATOM     15  C   UNL     1     -10.298  13.551  65.810  0.00  0.00    +0.170 A 
ATOM     16  N   UNL     1      -9.125  12.803  66.136  0.00  0.00    -0.107 NA
ATOM     17  N   UNL     1     -10.217  14.728  65.165  0.00  0.00    -0.193 NA
ATOM     18  C   UNL     1     -11.348  15.311  64.748  0.00  0.00    +0.258 A 
ATOM     19  N   UNL     1     -11.300  16.647  64.292  0.00  0.00    -0.086 NA
ATOM     20  N   UNL     1     -12.421  14.502  64.571  0.00  0.00    -0.210 NA
ATOM     21  C   UNL     1     -12.617  13.422  65.367  0.00  0.00    +0.101 A 
ENDBRANCH  13  14
ENDBRANCH   5  13
TORSDOF 5
ENDMDL
MODEL 2
REMARK VINA RESULT:      -6.4      2.947      4.378
REMARK  Name = 
REMARK  5 active torsions:
REMARK  status: ('A' for Active; 'I' for Inactive)
REMARK    1  A    between atoms: O_2  and  C_3
REMARK    2  A    between atoms: C_5  and  C_6
REMARK    3  A    between atoms: C_6  and  C_7
REMARK    4  A    between atoms: C_16  and  O_17
REMARK    5  A    between atoms: C_19  and  O_20
REMARK                            x       y       z     vdW  Elec       q    Type
REMARK                         _______ _______ _______ _____ _____    ______ ____
ROOT
ATOM      1  C   UNL     1     -10.113  16.796  66.570  0.00  0.00    +0.175 A 
ATOM      2  C   UNL     1     -10.194  17.011  67.940  0.00  0.00    +0.206 A 
ATOM      3  C   UNL     1     -11.172  16.363  68.663  0.00  0.00    +0.175 A 
ATOM      4  C   UNL     1     -11.632  15.158  68.164  0.00  0.00    +0.036 A 
ATOM      5  C   UNL     1     -11.353  14.727  66.874  0.00  0.00    -0.011 A 
ATOM      6  C   UNL     1     -10.662  15.631  66.077  0.00  0.00    +0.036 A 
ENDROOT
BRANCH   1   8
ATOM      7  C   UNL     1      -7.714  16.796  66.205  0.00  0.00    +0.253 C 
ATOM      8  O   UNL     1      -9.001  17.290  65.883  0.00  0.00    -0.468 OA
ENDBRANCH   1   8
BRANCH   2   9
ATOM      9  O   UNL     1      -9.691  18.217  68.418  0.00  0.00    -0.465 OA
ATOM     10  C   UNL     1     -10.237  19.451  68.022  0.00  0.00    +0.253 C 
ENDBRANCH   2   9
BRANCH   3  11
ATOM     11  O   UNL     1     -11.264  16.660  70.008  0.00  0.00    -0.468 OA
ATOM     12  C   UNL     1     -12.000  15.895  70.929  0.00  0.00    +0.253 C 
ENDBRANCH   3  11
BRANCH   5  13
ATOM     13  C   UNL     1     -12.448  13.964  66.197  0.00  0.00    +0.057 C 
BRANCH  13  14
ATOM     14  C   UNL     1     -11.932  12.893  65.325  0.00  0.00    +0.036 A 
ATOM     15  C   UNL     1     -11.373  11.791  65.959  0.00  0.00    +0.170 A 
ATOM     16  N   UNL     1     -11.829  11.460  67.273  0.00  0.00    -0.107 NA
ATOM     17  N   UNL     1     -10.495  11.009  65.308  0.00  0.00    -0.193 NA
ATOM     18  C   UNL     1     -10.220  11.280  64.026  0.00  0.00    +0.258 A 
ATOM     19  N   UNL     1      -9.131  10.626  63.408  0.00  0.00    -0.086 NA
ATOM     20  N   UNL     1     -11.150  11.988  63.341  0.00  0.00    -0.210 NA
ATOM     21  C   UNL     1     -11.898  12.936  63.958  0.00  0.00    +0.101 A 
ENDBRANCH  13  14
ENDBRANCH   5  13
TORSDOF 5
ENDMDL
MODEL 3
REMARK VINA RESULT:      -6.3      2.997      4.852
REMARK  Name = 
REMARK  5 active torsions:
REMARK  status: ('A' for Active; 'I' for Inactive)
REMARK    1  A    between atoms: O_2  and  C_3
REMARK    2  A    between atoms: C_5  and  C_6
REMARK    3  A    between atoms: C_6  and  C_7
REMARK    4  A    between atoms: C_16  and  O_17
REMARK    5  A    between atoms: C_19  and  O_20
REMARK                            x       y       z     vdW  Elec       q    Type
REMARK                         _______ _______ _______ _____ _____    ______ ____
ROOT
ATOM      1  C   UNL     1     -10.504   9.044  71.157  0.00  0.00    +0.175 A 
ATOM      2  C   UNL     1     -11.647   8.521  71.749  0.00  0.00    +0.206 A 
ATOM      3  C   UNL     1     -12.766   9.318  71.861  0.00  0.00    +0.175 A 
ATOM      4  C   UNL     1     -12.917  10.329  70.930  0.00  0.00    +0.036 A 
ATOM      5  C   UNL     1     -11.890  10.730  70.086  0.00  0.00    -0.011 A 
ATOM      6  C   UNL     1     -10.664  10.115  70.304  0.00  0.00    +0.036 A 
ENDROOT
BRANCH   1   8
ATOM      7  C   UNL     1      -9.099   7.947  69.510  0.00  0.00    +0.253 C 
ATOM      8  O   UNL     1      -9.450   8.174  70.862  0.00  0.00    -0.468 OA
ENDBRANCH   1   8
BRANCH   2   9
ATOM      9  O   UNL     1     -11.467   7.481  72.654  0.00  0.00    -0.465 OA
ATOM     10  C   UNL     1     -11.627   6.137  72.273  0.00  0.00    +0.253 C 
ENDBRANCH   2   9
BRANCH   3  11
ATOM     11  O   UNL     1     -13.857   8.785  72.520  0.00  0.00    -0.468 OA
ATOM     12  C   UNL     1     -14.849   8.014  71.892  0.00  0.00    +0.253 C 
ENDBRANCH   3  11
BRANCH   5  13
ATOM     13  C   UNL     1     -11.841  12.193  69.777  0.00  0.00    +0.057 C 
BRANCH  13  14
ATOM     14  C   UNL     1     -11.694  12.459  68.334  0.00  0.00    +0.036 A 
ATOM     15  C   UNL     1     -11.843  13.778  67.927  0.00  0.00    +0.170 A 
ATOM     16  N   UNL     1     -11.534  14.816  68.861  0.00  0.00    -0.107 NA
ATOM     17  N   UNL     1     -12.179  14.061  66.657  0.00  0.00    -0.193 NA
ATOM     18  C   UNL     1     -12.308  13.052  65.786  0.00  0.00    +0.258 A 
ATOM     19  N   UNL     1     -12.891  13.308  64.526  0.00  0.00    -0.086 NA
ATOM     20  N   UNL     1     -11.654  11.903  66.085  0.00  0.00    -0.210 NA
ATOM     21  C   UNL     1     -11.497  11.506  67.372  0.00  0.00    +0.101 A 
ENDBRANCH  13  14
ENDBRANCH   5  13
TORSDOF 5
ENDMDL
MODEL 4
REMARK VINA RESULT:      -6.2      4.022      6.170
REMARK  Name = 
REMARK  5 active torsions:
REMARK  status: ('A' for Active; 'I' for Inactive)
REMARK    1  A    between atoms: O_2  and  C_3
REMARK    2  A    between atoms: C_5  and  C_6
REMARK    3  A    between atoms: C_6  and  C_7
REMARK    4  A    between atoms: C_16  and  O_17
REMARK    5  A    between atoms: C_19  and  O_20
REMARK                            x       y       z     vdW  Elec       q    Type
REMARK                         _______ _______ _______ _____ _____    ______ ____
ROOT
ATOM      1  C   UNL     1     -11.701  13.932  68.435  0.00  0.00    +0.175 A 
ATOM      2  C   UNL     1     -11.849  14.930  69.391  0.00  0.00    +0.206 A 
ATOM      3  C   UNL     1     -12.482  14.631  70.578  0.00  0.00    +0.175 A 
ATOM      4  C   UNL     1     -12.428  13.319  71.009  0.00  0.00    +0.036 A 
ATOM      5  C   UNL     1     -12.012  12.278  70.190  0.00  0.00    -0.011 A 
ATOM      6  C   UNL     1     -11.746  12.625  68.871  0.00  0.00    +0.036 A 
ENDROOT
BRANCH   1   8
ATOM      7  C   UNL     1     -11.455  14.193  66.036  0.00  0.00    +0.253 C 
ATOM      8  O   UNL     1     -10.884  14.184  67.330  0.00  0.00    -0.468 OA
ENDBRANCH   1   8
BRANCH   2   9
ATOM      9  O   UNL     1     -11.864  16.243  68.931  0.00  0.00    -0.465 OA
ATOM     10  C   UNL     1     -10.696  17.026  68.903  0.00  0.00    +0.253 C 
ENDBRANCH   2   9
BRANCH   3  11
ATOM     11  O   UNL     1     -12.673  15.668  71.469  0.00  0.00    -0.468 OA
ATOM     12  C   UNL     1     -13.563  15.612  72.555  0.00  0.00    +0.253 C 
ENDBRANCH   3  11
BRANCH   5  13
ATOM     13  C   UNL     1     -12.719  10.974  70.392  0.00  0.00    +0.057 C 
BRANCH  13  14
ATOM     14  C   UNL     1     -11.807   9.901  70.827  0.00  0.00    +0.036 A 
ATOM     15  C   UNL     1     -12.312   8.991  71.747  0.00  0.00    +0.170 A 
ATOM     16  N   UNL     1     -13.722   8.757  71.767  0.00  0.00    -0.107 NA
ATOM     17  N   UNL     1     -11.478   8.288  72.531  0.00  0.00    -0.193 NA
ATOM     18  C   UNL     1     -10.157   8.438  72.364  0.00  0.00    +0.258 A 
ATOM     19  N   UNL     1      -9.280   7.898  73.329  0.00  0.00    -0.086 NA
ATOM     20  N   UNL     1      -9.746   8.895  71.156  0.00  0.00    -0.210 NA
ATOM     21  C   UNL     1     -10.497   9.778  70.453  0.00  0.00    +0.101 A 
ENDBRANCH  13  14
ENDBRANCH   5  13
TORSDOF 5
ENDMDL
MODEL 5
REMARK VINA RESULT:      -6.2      0.539      2.868
REMARK  Name = 
REMARK  5 active torsions:
REMARK  status: ('A' for Active; 'I' for Inactive)
REMARK    1  A    between atoms: O_2  and  C_3
REMARK    2  A    between atoms: C_5  and  C_6
REMARK    3  A    between atoms: C_6  and  C_7
REMARK    4  A    between atoms: C_16  and  O_17
REMARK    5  A    between atoms: C_19  and  O_20
REMARK                            x       y       z     vdW  Elec       q    Type
REMARK                         _______ _______ _______ _____ _____    ______ ____
ROOT
ATOM      1  C   UNL     1     -12.366  12.523  70.909  0.00  0.00    +0.175 A 
ATOM      2  C   UNL     1     -12.325  13.906  71.034  0.00  0.00    +0.206 A 
ATOM      3  C   UNL     1     -11.776  14.654  70.015  0.00  0.00    +0.175 A 
ATOM      4  C   UNL     1     -11.820  14.115  68.742  0.00  0.00    +0.036 A 
ATOM      5  C   UNL     1     -12.136  12.785  68.503  0.00  0.00    -0.011 A 
ATOM      6  C   UNL     1     -12.311  11.999  69.636  0.00  0.00    +0.036 A 
ENDROOT
BRANCH   1   8
ATOM      7  C   UNL     1     -13.146  10.382  71.741  0.00  0.00    +0.253 C 
ATOM      8  O   UNL     1     -13.103  11.792  71.845  0.00  0.00    -0.468 OA
ENDBRANCH   1   8
BRANCH   2   9
ATOM      9  O   UNL     1     -12.318  14.421  72.326  0.00  0.00    -0.465 OA
ATOM     10  C   UNL     1     -13.435  15.092  72.857  0.00  0.00    +0.253 C 
ENDBRANCH   2   9
BRANCH   3  11
ATOM     11  O   UNL     1     -11.689  16.018  70.210  0.00  0.00    -0.468 OA
ATOM     12  C   UNL     1     -10.753  16.842  69.562  0.00  0.00    +0.253 C 
ENDBRANCH   3  11
BRANCH   5  13
ATOM     13  C   UNL     1     -11.405  12.140  67.368  0.00  0.00    +0.057 C 
BRANCH  13  14
ATOM     14  C   UNL     1     -11.407  12.972  66.151  0.00  0.00    +0.036 A 
ATOM     15  C   UNL     1     -10.262  13.719  65.907  0.00  0.00    +0.170 A 
ATOM     16  N   UNL     1      -9.017  13.241  66.420  0.00  0.00    -0.107 NA
ATOM     17  N   UNL     1     -10.321  14.813  65.129  0.00  0.00    -0.193 NA
ATOM     18  C   UNL     1     -11.487  15.128  64.550  0.00  0.00    +0.258 A 
ATOM     19  N   UNL     1     -11.625  16.391  63.935  0.00  0.00    -0.086 NA
ATOM     20  N   UNL     1     -12.379  14.120  64.390  0.00  0.00    -0.210 NA
ATOM     21  C   UNL     1     -12.465  13.116  65.296  0.00  0.00    +0.101 A 
ENDBRANCH  13  14
ENDBRANCH   5  13
TORSDOF 5
ENDMDL
MODEL 6
REMARK VINA RESULT:      -6.1      3.775      5.777
REMARK  Name = 
REMARK  5 active torsions:
REMARK  status: ('A' for Active; 'I' for Inactive)
REMARK    1  A    between atoms: O_2  and  C_3
REMARK    2  A    between atoms: C_5  and  C_6
REMARK    3  A    between atoms: C_6  and  C_7
REMARK    4  A    between atoms: C_16  and  O_17
REMARK    5  A    between atoms: C_19  and  O_20
REMARK                            x       y       z     vdW  Elec       q    Type
REMARK                         _______ _______ _______ _____ _____    ______ ____
ROOT
ATOM      1  C   UNL     1     -11.551  14.387  67.661  0.00  0.00    +0.175 A 
ATOM      2  C   UNL     1     -11.342  13.383  66.724  0.00  0.00    +0.206 A 
ATOM      3  C   UNL     1     -10.971  13.730  65.443  0.00  0.00    +0.175 A 
ATOM      4  C   UNL     1     -10.288  14.923  65.285  0.00  0.00    +0.036 A 
ATOM      5  C   UNL     1     -10.206  15.877  66.290  0.00  0.00    -0.011 A 
ATOM      6  C   UNL     1     -10.939  15.602  67.437  0.00  0.00    +0.036 A 
ENDROOT
BRANCH   1   8
ATOM      7  C   UNL     1     -12.128  15.004  69.936  0.00  0.00    +0.253 C 
ATOM      8  O   UNL     1     -11.724  14.023  69.000  0.00  0.00    -0.468 OA
ENDBRANCH   1   8
BRANCH   2   9
ATOM      9  O   UNL     1     -12.014  12.182  66.928  0.00  0.00    -0.465 OA
ATOM     10  C   UNL     1     -11.360  11.053  67.452  0.00  0.00    +0.253 C 
ENDBRANCH   2   9
BRANCH   3  11
ATOM     11  O   UNL     1     -10.844  12.708  64.524  0.00  0.00    -0.468 OA
ATOM     12  C   UNL     1     -11.777  12.453  63.505  0.00  0.00    +0.253 C 
ENDBRANCH   3  11
BRANCH   5  13
ATOM     13  C   UNL     1     -10.221  17.302  65.832  0.00  0.00    +0.057 C 
BRANCH  13  14
ATOM     14  C   UNL     1      -9.213  18.126  66.522  0.00  0.00    +0.036 A 
ATOM     15  C   UNL     1      -9.675  19.275  67.151  0.00  0.00    +0.170 A 
ATOM     16  N   UNL     1     -11.028  19.299  67.613  0.00  0.00    -0.107 NA
ATOM     17  N   UNL     1      -8.836  20.296  67.398  0.00  0.00    -0.193 NA
ATOM     18  C   UNL     1      -7.543  20.156  67.080  0.00  0.00    +0.258 A 
ATOM     19  N   UNL     1      -6.707  21.294  67.107  0.00  0.00    -0.086 NA
ATOM     20  N   UNL     1      -7.074  18.888  66.981  0.00  0.00    -0.210 NA
ATOM     21  C   UNL     1      -7.866  17.887  66.527  0.00  0.00    +0.101 A 
ENDBRANCH  13  14
ENDBRANCH   5  13
TORSDOF 5
ENDMDL
MODEL 7
REMARK VINA RESULT:      -6.1      4.436      6.936
REMARK  Name = 
REMARK  5 active torsions:
REMARK  status: ('A' for Active; 'I' for Inactive)
REMARK    1  A    between atoms: O_2  and  C_3
REMARK    2  A    between atoms: C_5  and  C_6
REMARK    3  A    between atoms: C_6  and  C_7
REMARK    4  A    between atoms: C_16  and  O_17
REMARK    5  A    between atoms: C_19  and  O_20
REMARK                            x       y       z     vdW  Elec       q    Type
REMARK                         _______ _______ _______ _____ _____    ______ ____
ROOT
ATOM      1  C   UNL     1     -10.481  14.603  67.360  0.00  0.00    +0.175 A 
ATOM      2  C   UNL     1     -10.191  15.962  67.336  0.00  0.00    +0.206 A 
ATOM      3  C   UNL     1     -10.951  16.822  68.099  0.00  0.00    +0.175 A 
ATOM      4  C   UNL     1     -11.545  16.302  69.234  0.00  0.00    +0.036 A 
ATOM      5  C   UNL     1     -11.627  14.937  69.478  0.00  0.00    -0.011 A 
ATOM      6  C   UNL     1     -11.159  14.119  68.458  0.00  0.00    +0.036 A 
ENDROOT
BRANCH   1   8
ATOM      7  C   UNL     1     -10.087  12.612  66.031  0.00  0.00    +0.253 C 
ATOM      8  O   UNL     1      -9.584  13.720  66.752  0.00  0.00    -0.468 OA
ENDBRANCH   1   8
BRANCH   2   9
ATOM      9  O   UNL     1      -9.560  16.450  66.196  0.00  0.00    -0.465 OA
ATOM     10  C   UNL     1      -8.174  16.690  66.167  0.00  0.00    +0.253 C 
ENDBRANCH   2   9
BRANCH   3  11
ATOM     11  O   UNL     1     -10.677  18.171  67.991  0.00  0.00    -0.468 OA
ATOM     12  C   UNL     1      -9.716  18.838  68.769  0.00  0.00    +0.253 C 
ENDBRANCH   3  11
BRANCH   5  13
ATOM     13  C   UNL     1     -12.874  14.477  70.165  0.00  0.00    +0.057 C 
BRANCH  13  14
ATOM     14  C   UNL     1     -12.861  14.766  71.610  0.00  0.00    +0.036 A 
ATOM     15  C   UNL     1     -13.911  15.532  72.100  0.00  0.00    +0.170 A 
ATOM     16  N   UNL     1     -15.162  15.489  71.411  0.00  0.00    -0.107 NA
ATOM     17  N   UNL     1     -13.770  16.219  73.247  0.00  0.00    -0.193 NA
ATOM     18  C   UNL     1     -12.624  16.101  73.930  0.00  0.00    +0.258 A 
ATOM     19  N   UNL     1     -12.369  16.993  74.995  0.00  0.00    -0.086 NA
ATOM     20  N   UNL     1     -11.893  14.983  73.704  0.00  0.00    -0.210 NA
ATOM     21  C   UNL     1     -11.868  14.403  72.478  0.00  0.00    +0.101 A 
ENDBRANCH  13  14
ENDBRANCH   5  13
TORSDOF 5
ENDMDL
MODEL 8
REMARK VINA RESULT:      -6.1      1.933      3.701
REMARK  Name = 
REMARK  5 active torsions:
REMARK  status: ('A' for Active; 'I' for Inactive)
REMARK    1  A    between atoms: O_2  and  C_3
REMARK    2  A    between atoms: C_5  and  C_6
REMARK    3  A    between atoms: C_6  and  C_7
REMARK    4  A    between atoms: C_16  and  O_17
REMARK    5  A    between atoms: C_19  and  O_20
REMARK                            x       y       z     vdW  Elec       q    Type
REMARK                         _______ _______ _______ _____ _____    ______ ____
ROOT
ATOM      1  C   UNL     1     -11.260   9.672  70.329  0.00  0.00    +0.175 A 
ATOM      2  C   UNL     1     -12.272  10.214  71.113  0.00  0.00    +0.206 A 
ATOM      3  C   UNL     1     -12.471  11.577  71.099  0.00  0.00    +0.175 A 
ATOM      4  C   UNL     1     -12.095  12.259  69.957  0.00  0.00    +0.036 A 
ATOM      5  C   UNL     1     -11.305  11.687  68.969  0.00  0.00    -0.011 A 
ATOM      6  C   UNL     1     -10.831  10.411  69.248  0.00  0.00    +0.036 A 
ENDROOT
BRANCH   1   8
ATOM      7  C   UNL     1     -10.307   7.723  69.244  0.00  0.00    +0.253 C 
ATOM      8  O   UNL     1     -11.198   8.283  70.189  0.00  0.00    -0.468 OA
ENDBRANCH   1   8
BRANCH   2   9
ATOM      9  O   UNL     1     -12.654   9.488  72.236  0.00  0.00    -0.465 OA
ATOM     10  C   UNL     1     -13.868   8.779  72.277  0.00  0.00    +0.253 C 
ENDBRANCH   2   9
BRANCH   3  11
ATOM     11  O   UNL     1     -13.438  12.082  71.946  0.00  0.00    -0.468 OA
ATOM     12  C   UNL     1     -13.504  13.429  72.341  0.00  0.00    +0.253 C 
ENDBRANCH   3  11
BRANCH   5  13
ATOM     13  C   UNL     1     -10.337  12.611  68.298  0.00  0.00    +0.057 C 
BRANCH  13  14
ATOM     14  C   UNL     1     -10.740  12.944  66.920  0.00  0.00    +0.036 A 
ATOM     15  C   UNL     1     -10.110  14.035  66.335  0.00  0.00    +0.170 A 
ATOM     16  N   UNL     1      -8.794  14.377  66.777  0.00  0.00    -0.107 NA
ATOM     17  N   UNL     1     -10.694  14.688  65.317  0.00  0.00    -0.193 NA
ATOM     18  C   UNL     1     -11.860  14.230  64.843  0.00  0.00    +0.258 A 
ATOM     19  N   UNL     1     -12.597  15.035  63.947  0.00  0.00    -0.086 NA
ATOM     20  N   UNL     1     -12.138  12.924  65.073  0.00  0.00    -0.210 NA
ATOM     21  C   UNL     1     -11.726  12.314  66.212  0.00  0.00    +0.101 A 
ENDBRANCH  13  14
ENDBRANCH   5  13
TORSDOF 5
ENDMDL
MODEL 9
REMARK VINA RESULT:      -6.1      4.270      6.330
REMARK  Name = 
REMARK  5 active torsions:
REMARK  status: ('A' for Active; 'I' for Inactive)
REMARK    1  A    between atoms: O_2  and  C_3
REMARK    2  A    between atoms: C_5  and  C_6
REMARK    3  A    between atoms: C_6  and  C_7
REMARK    4  A    between atoms: C_16  and  O_17
REMARK    5  A    between atoms: C_19  and  O_20
REMARK                            x       y       z     vdW  Elec       q    Type
REMARK                         _______ _______ _______ _____ _____    ______ ____
ROOT
ATOM      1  C   UNL     1     -11.533  14.080  68.181  0.00  0.00    +0.175 A 
ATOM      2  C   UNL     1     -11.777  13.708  66.864  0.00  0.00    +0.206 A 
ATOM      3  C   UNL     1     -11.524  12.410  66.478  0.00  0.00    +0.175 A 
ATOM      4  C   UNL     1     -11.597  11.434  67.455  0.00  0.00    +0.036 A 
ATOM      5  C   UNL     1     -11.644  11.734  68.810  0.00  0.00    -0.011 A 
ATOM      6  C   UNL     1     -11.514  13.079  69.129  0.00  0.00    +0.036 A 
ENDROOT
BRANCH   1   8
ATOM      7  C   UNL     1     -11.086  16.191  69.290  0.00  0.00    +0.253 C 
ATOM      8  O   UNL     1     -11.982  15.330  68.614  0.00  0.00    -0.468 OA
ENDBRANCH   1   8
BRANCH   2   9
ATOM      9  O   UNL     1     -11.733  14.717  65.908  0.00  0.00    -0.465 OA
ATOM     10  C   UNL     1     -10.516  15.287  65.495  0.00  0.00    +0.253 C 
ENDBRANCH   2   9
BRANCH   3  11
ATOM     11  O   UNL     1     -11.712  12.101  65.145  0.00  0.00    -0.468 OA
ATOM     12  C   UNL     1     -10.797  11.359  64.379  0.00  0.00    +0.253 C 
ENDBRANCH   3  11
BRANCH   5  13
ATOM     13  C   UNL     1     -10.927  10.777  69.709  0.00  0.00    +0.057 C 
BRANCH  13  14
ATOM     14  C   UNL     1     -11.815  10.187  70.728  0.00  0.00    +0.036 A 
ATOM     15  C   UNL     1     -11.717   8.815  70.918  0.00  0.00    +0.170 A 
ATOM     16  N   UNL     1     -10.472   8.176  70.627  0.00  0.00    -0.107 NA
ATOM     17  N   UNL     1     -12.743   8.131  71.451  0.00  0.00    -0.193 NA
ATOM     18  C   UNL     1     -13.830   8.806  71.846  0.00  0.00    +0.258 A 
ATOM     19  N   UNL     1     -14.998   8.086  72.178  0.00  0.00    -0.086 NA
ATOM     20  N   UNL     1     -13.660  10.122  72.126  0.00  0.00    -0.210 NA
ATOM     21  C   UNL     1     -12.764  10.870  71.436  0.00  0.00    +0.101 A 
ENDBRANCH  13  14
ENDBRANCH   5  13
TORSDOF 5
ENDMDL
