MODEL 1
REMARK VINA RESULT:      -7.3      0.000      0.000
REMARK  Name = 
REMARK  6 active torsions:
REMARK  status: ('A' for Active; 'I' for Inactive)
REMARK    1  A    between atoms: C_5  and  C_6
REMARK    2  A    between atoms: C_6  and  O_7
REMARK    3  A    between atoms: O_7  and  N_8
REMARK    4  A    between atoms: C_9  and  C_10
REMARK    5  A    between atoms: C_9  and  C_16
REMARK    6  A    between atoms: C_10  and  N_11
REMARK                            x       y       z     vdW  Elec       q    Type
REMARK                         _______ _______ _______ _____ _____    ______ ____
ROOT
ATOM      1  N   UNL     1     -11.448  14.360  67.754  0.00  0.00    -0.085 NA
ATOM      2  C   UNL     1     -10.631  13.899  66.867  0.00  0.00    +0.121 C 
ENDROOT
BRANCH   2   3
ATOM      3  C   UNL     1      -9.436  14.707  66.598  0.00  0.00    +0.029 A 
ATOM      4  C   UNL     1      -9.578  15.949  65.993  0.00  0.00    +0.060 A 
ATOM      5 CL   UNL     1     -10.898  16.106  64.838  0.00  0.00    -0.082 Cl
ATOM      6  C   UNL     1      -8.572  16.896  66.061  0.00  0.00    +0.023 A 
ATOM      7  C   UNL     1      -7.364  16.559  66.626  0.00  0.00    +0.059 A 
ATOM      8 CL   UNL     1      -5.864  17.319  66.153  0.00  0.00    -0.082 Cl
ATOM      9  C   UNL     1      -7.281  15.390  67.360  0.00  0.00    +0.011 A 
ATOM     10  C   UNL     1      -8.350  14.528  67.417  0.00  0.00    +0.003 A 
ENDBRANCH   2   3
BRANCH   1  11
ATOM     11  O   UNL     1     -12.250  13.582  68.538  0.00  0.00    -0.373 OA
BRANCH  11  12
ATOM     12  C   UNL     1     -12.009  13.547  69.919  0.00  0.00    +0.266 C 
BRANCH  12  18
ATOM     13 CL   UNL     1     -12.484  15.761  74.913  0.00  0.00    -0.082 Cl
ATOM     14  C   UNL     1     -12.830  15.907  73.190  0.00  0.00    +0.058 A 
ATOM     15  C   UNL     1     -11.864  16.340  72.291  0.00  0.00    +0.023 A 
ATOM     16  C   UNL     1     -11.731  15.725  71.052  0.00  0.00    +0.058 A 
ATOM     17 CL   UNL     1     -10.492  16.207  69.903  0.00  0.00    -0.082 Cl
ATOM     18  C   UNL     1     -12.599  14.722  70.636  0.00  0.00    +0.035 A 
ATOM     19  C   UNL     1     -13.774  14.616  71.370  0.00  0.00    +0.001 A 
ATOM     20  C   UNL     1     -13.887  15.205  72.624  0.00  0.00    +0.011 A 
ENDBRANCH  12  18
ENDBRANCH  11  12
ENDBRANCH   1  11
BRANCH   2  21
ATOM     21  C   UNL     1     -10.621  12.434  66.595  0.00  0.00    +0.157 C 
BRANCH  21  22
ATOM     22  N   UNL     1     -11.230  12.203  65.289  0.00  0.00    -0.302 N 
ATOM     23  C   UNL     1     -12.484  12.625  65.001  0.00  0.00    +0.179 A 
ATOM     24  N   UNL     1     -12.684  12.555  63.676  0.00  0.00    -0.222 NA
ATOM     25  C   UNL     1     -11.630  11.858  63.188  0.00  0.00    +0.119 A 
ATOM     26  C   UNL     1     -10.606  12.108  64.090  0.00  0.00    +0.098 A 
ENDBRANCH  21  22
ENDBRANCH   2  21
TORSDOF 6
ENDMDL
MODEL 2
REMARK VINA RESULT:      -7.2      2.377      5.492
REMARK  Name = 
REMARK  6 active torsions:
REMARK  status: ('A' for Active; 'I' for Inactive)
REMARK    1  A    between atoms: C_5  and  C_6
REMARK    2  A    between atoms: C_6  and  O_7
REMARK    3  A    between atoms: O_7  and  N_8
REMARK    4  A    between atoms: C_9  and  C_10
REMARK    5  A    between atoms: C_9  and  C_16
REMARK    6  A    between atoms: C_10  and  N_11
REMARK                            x       y       z     vdW  Elec       q    Type
REMARK                         _______ _______ _______ _____ _____    ______ ____
ROOT
ATOM      1  N   UNL     1      -8.773  14.553  67.576  0.00  0.00    -0.085 NA
ATOM      2  C   UNL     1      -9.996  14.788  67.237  0.00  0.00    +0.121 C 
ENDROOT
BRANCH   2   3
ATOM      3  C   UNL     1     -10.951  14.984  68.334  0.00  0.00    +0.029 A 
ATOM      4  C   UNL     1     -11.574  13.879  68.899  0.00  0.00    +0.060 A 
ATOM      5 CL   UNL     1     -11.904  12.532  67.812  0.00  0.00    -0.082 Cl
ATOM      6  C   UNL     1     -12.166  13.952  70.146  0.00  0.00    +0.023 A 
ATOM      7  C   UNL     1     -12.253  15.169  70.782  0.00  0.00    +0.059 A 
ATOM      8 CL   UNL     1     -13.529  15.546  71.914  0.00  0.00    -0.082 Cl
ATOM      9  C   UNL     1     -11.502  16.224  70.296  0.00  0.00    +0.011 A 
ATOM     10  C   UNL     1     -10.783  16.087  69.133  0.00  0.00    +0.003 A 
ENDBRANCH   2   3
BRANCH   1  11
ATOM     11  O   UNL     1      -7.688  14.892  66.821  0.00  0.00    -0.373 OA
BRANCH  11  12
ATOM     12  C   UNL     1      -6.646  15.609  67.426  0.00  0.00    +0.266 C 
BRANCH  12  18
ATOM     13 CL   UNL     1     -10.522  19.479  67.678  0.00  0.00    -0.082 Cl
ATOM     14  C   UNL     1      -8.807  19.112  67.495  0.00  0.00    +0.058 A 
ATOM     15  C   UNL     1      -8.009  18.808  68.591  0.00  0.00    +0.023 A 
ATOM     16  C   UNL     1      -7.071  17.786  68.515  0.00  0.00    +0.058 A 
ATOM     17 CL   UNL     1      -6.075  17.335  69.890  0.00  0.00    -0.082 Cl
ATOM     18  C   UNL     1      -6.838  17.092  67.333  0.00  0.00    +0.035 A 
ATOM     19  C   UNL     1      -7.343  17.693  66.186  0.00  0.00    +0.001 A 
ATOM     20  C   UNL     1      -8.306  18.690  66.269  0.00  0.00    +0.011 A 
ENDBRANCH  12  18
ENDBRANCH  11  12
ENDBRANCH   1  11
BRANCH   2  21
ATOM     21  C   UNL     1     -10.268  15.374  65.894  0.00  0.00    +0.157 C 
BRANCH  21  22
ATOM     22  N   UNL     1     -11.036  14.407  65.115  0.00  0.00    -0.302 N 
ATOM     23  C   UNL     1     -12.181  14.751  64.480  0.00  0.00    +0.179 A 
ATOM     24  N   UNL     1     -12.517  13.782  63.613  0.00  0.00    -0.222 NA
ATOM     25  C   UNL     1     -11.703  12.740  63.904  0.00  0.00    +0.119 A 
ATOM     26  C   UNL     1     -10.567  13.330  64.440  0.00  0.00    +0.098 A 
ENDBRANCH  21  22
ENDBRANCH   2  21
TORSDOF 6
ENDMDL
MODEL 3
REMARK VINA RESULT:      -7.1      2.433      5.480
REMARK  Name = 
REMARK  6 active torsions:
REMARK  status: ('A' for Active; 'I' for Inactive)
REMARK    1  A    between atoms: C_5  and  C_6
REMARK    2  A    between atoms: C_6  and  O_7
REMARK    3  A    between atoms: O_7  and  N_8
REMARK    4  A    between atoms: C_9  and  C_10
REMARK    5  A    between atoms: C_9  and  C_16
REMARK    6  A    between atoms: C_10  and  N_11
REMARK                            x       y       z     vdW  Elec       q    Type
REMARK                         _______ _______ _______ _____ _____    ______ ____
ROOT
ATOM      1  N   UNL     1      -9.407  14.589  67.425  0.00  0.00    -0.085 NA
ATOM      2  C   UNL     1     -10.674  14.453  67.218  0.00  0.00    +0.121 C 
ENDROOT
BRANCH   2   3
ATOM      3  C   UNL     1     -11.536  14.498  68.404  0.00  0.00    +0.029 A 
ATOM      4  C   UNL     1     -11.760  13.333  69.126  0.00  0.00    +0.060 A 
ATOM      5 CL   UNL     1     -11.792  11.836  68.198  0.00  0.00    -0.082 Cl
ATOM      6  C   UNL     1     -12.228  13.377  70.427  0.00  0.00    +0.023 A 
ATOM      7  C   UNL     1     -12.599  14.585  70.971  0.00  0.00    +0.059 A 
ATOM      8 CL   UNL     1     -13.816  14.717  72.217  0.00  0.00    -0.082 Cl
ATOM      9  C   UNL     1     -12.231  15.745  70.315  0.00  0.00    +0.011 A 
ATOM     10  C   UNL     1     -11.617  15.685  69.087  0.00  0.00    +0.003 A 
ENDBRANCH   2   3
BRANCH   1  11
ATOM     11  O   UNL     1      -8.535  15.127  66.523  0.00  0.00    -0.373 OA
BRANCH  11  12
ATOM     12  C   UNL     1      -8.441  16.523  66.430  0.00  0.00    +0.266 C 
BRANCH  12  18
ATOM     13 CL   UNL     1      -5.893  20.698  68.909  0.00  0.00    -0.082 Cl
ATOM     14  C   UNL     1      -7.010  19.343  69.066  0.00  0.00    +0.058 A 
ATOM     15  C   UNL     1      -8.332  19.440  68.649  0.00  0.00    +0.023 A 
ATOM     16  C   UNL     1      -8.936  18.386  67.975  0.00  0.00    +0.058 A 
ATOM     17 CL   UNL     1     -10.589  18.484  67.387  0.00  0.00    -0.082 Cl
ATOM     18  C   UNL     1      -8.279  17.179  67.767  0.00  0.00    +0.035 A 
ATOM     19  C   UNL     1      -7.146  16.981  68.546  0.00  0.00    +0.001 A 
ATOM     20  C   UNL     1      -6.527  18.046  69.189  0.00  0.00    +0.011 A 
ENDBRANCH  12  18
ENDBRANCH  11  12
ENDBRANCH   1  11
BRANCH   2  21
ATOM     21  C   UNL     1     -11.224  14.807  65.879  0.00  0.00    +0.157 C 
BRANCH  21  22
ATOM     22  N   UNL     1     -11.501  13.571  65.153  0.00  0.00    -0.302 N 
ATOM     23  C   UNL     1     -12.766  13.160  64.898  0.00  0.00    +0.179 A 
ATOM     24  N   UNL     1     -12.739  12.181  63.981  0.00  0.00    -0.222 NA
ATOM     25  C   UNL     1     -11.435  11.833  63.862  0.00  0.00    +0.119 A 
ATOM     26  C   UNL     1     -10.740  12.986  64.196  0.00  0.00    +0.098 A 
ENDBRANCH  21  22
ENDBRANCH   2  21
TORSDOF 6
ENDMDL
MODEL 4
REMARK VINA RESULT:      -7.0      2.510      3.194
REMARK  Name = 
REMARK  6 active torsions:
REMARK  status: ('A' for Active; 'I' for Inactive)
REMARK    1  A    between atoms: C_5  and  C_6
REMARK    2  A    between atoms: C_6  and  O_7
REMARK    3  A    between atoms: O_7  and  N_8
REMARK    4  A    between atoms: C_9  and  C_10
REMARK    5  A    between atoms: C_9  and  C_16
REMARK    6  A    between atoms: C_10  and  N_11
REMARK                            x       y       z     vdW  Elec       q    Type
REMARK                         _______ _______ _______ _____ _____    ______ ____
ROOT
ATOM      1  N   UNL     1     -10.780  17.040  68.595  0.00  0.00    -0.085 NA
ATOM      2  C   UNL     1      -9.949  16.918  67.614  0.00  0.00    +0.121 C 
ENDROOT
BRANCH   2   3
ATOM      3  C   UNL     1      -8.940  17.975  67.479  0.00  0.00    +0.029 A 
ATOM      4  C   UNL     1      -9.322  19.225  67.011  0.00  0.00    +0.060 A 
ATOM      5 CL   UNL     1     -10.632  19.247  65.834  0.00  0.00    -0.082 Cl
ATOM      6  C   UNL     1      -8.531  20.340  67.220  0.00  0.00    +0.023 A 
ATOM      7  C   UNL     1      -7.287  20.188  67.787  0.00  0.00    +0.059 A 
ATOM      8 CL   UNL     1      -5.966  21.282  67.456  0.00  0.00    -0.082 Cl
ATOM      9  C   UNL     1      -6.978  18.982  68.389  0.00  0.00    +0.011 A 
ATOM     10  C   UNL     1      -7.850  17.923  68.312  0.00  0.00    +0.003 A 
ENDBRANCH   2   3
BRANCH   1  11
ATOM     11  O   UNL     1     -11.377  15.990  69.229  0.00  0.00    -0.373 OA
BRANCH  11  12
ATOM     12  C   UNL     1     -10.804  15.507  70.415  0.00  0.00    +0.266 C 
BRANCH  12  18
ATOM     13 CL   UNL     1     -16.214  15.324  71.287  0.00  0.00    -0.082 Cl
ATOM     14  C   UNL     1     -14.610  14.835  71.832  0.00  0.00    +0.058 A 
ATOM     15  C   UNL     1     -13.932  13.779  71.235  0.00  0.00    +0.023 A 
ATOM     16  C   UNL     1     -12.570  13.874  70.977  0.00  0.00    +0.058 A 
ATOM     17 CL   UNL     1     -11.682  12.583  70.181  0.00  0.00    -0.082 Cl
ATOM     18  C   UNL     1     -11.825  14.978  71.374  0.00  0.00    +0.035 A 
ATOM     19  C   UNL     1     -12.439  15.798  72.313  0.00  0.00    +0.001 A 
ATOM     20  C   UNL     1     -13.808  15.721  72.540  0.00  0.00    +0.011 A 
ENDBRANCH  12  18
ENDBRANCH  11  12
ENDBRANCH   1  11
BRANCH   2  21
ATOM     21  C   UNL     1      -9.689  15.560  67.058  0.00  0.00    +0.157 C 
BRANCH  21  22
ATOM     22  N   UNL     1     -10.857  15.146  66.286  0.00  0.00    -0.302 N 
ATOM     23  C   UNL     1     -11.052  15.557  65.011  0.00  0.00    +0.179 A 
ATOM     24  N   UNL     1     -12.015  14.812  64.446  0.00  0.00    -0.222 NA
ATOM     25  C   UNL     1     -12.572  14.111  65.462  0.00  0.00    +0.119 A 
ATOM     26  C   UNL     1     -11.551  13.988  66.394  0.00  0.00    +0.098 A 
ENDBRANCH  21  22
ENDBRANCH   2  21
TORSDOF 6
ENDMDL
MODEL 5
REMARK VINA RESULT:      -6.9      2.185      4.187
REMARK  Name = 
REMARK  6 active torsions:
REMARK  status: ('A' for Active; 'I' for Inactive)
REMARK    1  A    between atoms: C_5  and  C_6
REMARK    2  A    between atoms: C_6  and  O_7
REMARK    3  A    between atoms: O_7  and  N_8
REMARK    4  A    between atoms: C_9  and  C_10
REMARK    5  A    between atoms: C_9  and  C_16
REMARK    6  A    between atoms: C_10  and  N_11
REMARK                            x       y       z     vdW  Elec       q    Type
REMARK                         _______ _______ _______ _____ _____    ______ ____
ROOT
ATOM      1  N   UNL     1     -11.250  12.697  67.733  0.00  0.00    -0.085 NA
ATOM      2  C   UNL     1     -10.823  13.334  66.694  0.00  0.00    +0.121 C 
ENDROOT
BRANCH   2   3
ATOM      3  C   UNL     1     -10.394  12.512  65.557  0.00  0.00    +0.029 A 
ATOM      4  C   UNL     1      -9.391  11.568  65.740  0.00  0.00    +0.060 A 
ATOM      5 CL   UNL     1      -8.147  11.974  66.919  0.00  0.00    -0.082 Cl
ATOM      6  C   UNL     1      -9.215  10.530  64.844  0.00  0.00    +0.023 A 
ATOM      7  C   UNL     1      -9.958  10.502  63.687  0.00  0.00    +0.059 A 
ATOM      8 CL   UNL     1      -9.381   9.752  62.219  0.00  0.00    -0.082 Cl
ATOM      9  C   UNL     1     -11.052  11.343  63.584  0.00  0.00    +0.011 A 
ATOM     10  C   UNL     1     -11.312  12.268  64.566  0.00  0.00    +0.003 A 
ENDBRANCH   2   3
BRANCH   1  11
ATOM     11  O   UNL     1     -12.172  13.190  68.610  0.00  0.00    -0.373 OA
BRANCH  11  12
ATOM     12  C   UNL     1     -11.811  13.329  69.958  0.00  0.00    +0.266 C 
BRANCH  12  18
ATOM     13 CL   UNL     1     -12.444  15.738  74.842  0.00  0.00    -0.082 Cl
ATOM     14  C   UNL     1     -12.831  15.757  73.122  0.00  0.00    +0.058 A 
ATOM     15  C   UNL     1     -11.930  16.242  72.182  0.00  0.00    +0.023 A 
ATOM     16  C   UNL     1     -11.751  15.580  70.973  0.00  0.00    +0.058 A 
ATOM     17 CL   UNL     1     -10.588  16.131  69.776  0.00  0.00    -0.082 Cl
ATOM     18  C   UNL     1     -12.513  14.471  70.626  0.00  0.00    +0.035 A 
ATOM     19  C   UNL     1     -13.658  14.278  71.390  0.00  0.00    +0.001 A 
ATOM     20  C   UNL     1     -13.814  14.917  72.614  0.00  0.00    +0.011 A 
ENDBRANCH  12  18
ENDBRANCH  11  12
ENDBRANCH   1  11
BRANCH   2  21
ATOM     21  C   UNL     1     -11.279  14.736  66.474  0.00  0.00    +0.157 C 
BRANCH  21  22
ATOM     22  N   UNL     1     -10.105  15.570  66.234  0.00  0.00    -0.302 N 
ATOM     23  C   UNL     1     -10.215  16.879  65.906  0.00  0.00    +0.179 A 
ATOM     24  N   UNL     1      -9.017  17.472  66.034  0.00  0.00    -0.222 NA
ATOM     25  C   UNL     1      -8.131  16.462  66.205  0.00  0.00    +0.119 A 
ATOM     26  C   UNL     1      -8.876  15.447  66.790  0.00  0.00    +0.098 A 
ENDBRANCH  21  22
ENDBRANCH   2  21
TORSDOF 6
ENDMDL
MODEL 6
REMARK VINA RESULT:      -6.8      2.776      5.743
REMARK  Name = 
REMARK  6 active torsions:
REMARK  status: ('A' for Active; 'I' for Inactive)
REMARK    1  A    between atoms: C_5  and  C_6
REMARK    2  A    between atoms: C_6  and  O_7
REMARK    3  A    between atoms: O_7  and  N_8
REMARK    4  A    between atoms: C_9  and  C_10
REMARK    5  A    between atoms: C_9  and  C_16
REMARK    6  A    between atoms: C_10  and  N_11
REMARK                            x       y       z     vdW  Elec       q    Type
REMARK                         _______ _______ _______ _____ _____    ______ ____
ROOT
ATOM      1  N   UNL     1      -9.865  13.340  67.798  0.00  0.00    -0.085 NA
ATOM      2  C   UNL     1     -11.130  13.101  67.703  0.00  0.00    +0.121 C 
ENDROOT
BRANCH   2   3
ATOM      3  C   UNL     1     -11.702  12.209  68.719  0.00  0.00    +0.029 A 
ATOM      4  C   UNL     1     -11.277  10.889  68.782  0.00  0.00    +0.060 A 
ATOM      5 CL   UNL     1     -10.835  10.140  67.250  0.00  0.00    -0.082 Cl
ATOM      6  C   UNL     1     -11.478  10.127  69.918  0.00  0.00    +0.023 A 
ATOM      7  C   UNL     1     -12.224  10.641  70.954  0.00  0.00    +0.059 A 
ATOM      8 CL   UNL     1     -13.137   9.628  72.045  0.00  0.00    -0.082 Cl
ATOM      9  C   UNL     1     -12.507  11.995  70.954  0.00  0.00    +0.011 A 
ATOM     10  C   UNL     1     -12.156  12.779  69.882  0.00  0.00    +0.003 A 
ENDBRANCH   2   3
BRANCH   1  11
ATOM     11  O   UNL     1      -9.268  14.492  67.375  0.00  0.00    -0.373 OA
BRANCH  11  12
ATOM     12  C   UNL     1      -8.268  15.064  68.176  0.00  0.00    +0.266 C 
BRANCH  12  18
ATOM     13 CL   UNL     1     -10.517  19.494  65.856  0.00  0.00    -0.082 Cl
ATOM     14  C   UNL     1      -9.655  18.825  67.241  0.00  0.00    +0.058 A 
ATOM     15  C   UNL     1     -10.317  18.104  68.228  0.00  0.00    +0.023 A 
ATOM     16  C   UNL     1      -9.747  16.955  68.761  0.00  0.00    +0.058 A 
ATOM     17 CL   UNL     1     -10.568  15.986  69.974  0.00  0.00    -0.082 Cl
ATOM     18  C   UNL     1      -8.475  16.531  68.393  0.00  0.00    +0.035 A 
ATOM     19  C   UNL     1      -7.701  17.483  67.740  0.00  0.00    +0.001 A 
ATOM     20  C   UNL     1      -8.283  18.613  67.180  0.00  0.00    +0.011 A 
ENDBRANCH  12  18
ENDBRANCH  11  12
ENDBRANCH   1  11
BRANCH   2  21
ATOM     21  C   UNL     1     -11.996  14.089  67.001  0.00  0.00    +0.157 C 
BRANCH  21  22
ATOM     22  N   UNL     1     -12.281  13.583  65.661  0.00  0.00    -0.302 N 
ATOM     23  C   UNL     1     -12.447  14.414  64.605  0.00  0.00    +0.179 A 
ATOM     24  N   UNL     1     -12.399  13.702  63.468  0.00  0.00    -0.222 NA
ATOM     25  C   UNL     1     -12.448  12.404  63.852  0.00  0.00    +0.119 A 
ATOM     26  C   UNL     1     -11.894  12.401  65.124  0.00  0.00    +0.098 A 
ENDBRANCH  21  22
ENDBRANCH   2  21
TORSDOF 6
ENDMDL
MODEL 7
REMARK VINA RESULT:      -6.8      2.800      6.035
REMARK  Name = 
REMARK  6 active torsions:
REMARK  status: ('A' for Active; 'I' for Inactive)
REMARK    1  A    between atoms: C_5  and  C_6
REMARK    2  A    between atoms: C_6  and  O_7
REMARK    3  A    between atoms: O_7  and  N_8
REMARK    4  A    between atoms: C_9  and  C_10
REMARK    5  A    between atoms: C_9  and  C_16
REMARK    6  A    between atoms: C_10  and  N_11
REMARK                            x       y       z     vdW  Elec       q    Type
REMARK                         _______ _______ _______ _____ _____    ______ ____
ROOT
ATOM      1  N   UNL     1      -9.940  13.944  68.524  0.00  0.00    -0.085 NA
ATOM      2  C   UNL     1     -11.016  13.389  68.075  0.00  0.00    +0.121 C 
ENDROOT
BRANCH   2   3
ATOM      3  C   UNL     1     -11.648  12.392  68.948  0.00  0.00    +0.029 A 
ATOM      4  C   UNL     1     -11.254  11.063  68.859  0.00  0.00    +0.060 A 
ATOM      5 CL   UNL     1     -10.767  10.501  67.263  0.00  0.00    -0.082 Cl
ATOM      6  C   UNL     1     -11.517  10.170  69.882  0.00  0.00    +0.023 A 
ATOM      7  C   UNL     1     -12.293  10.570  70.946  0.00  0.00    +0.059 A 
ATOM      8 CL   UNL     1     -13.271   9.453  71.865  0.00  0.00    -0.082 Cl
ATOM      9  C   UNL     1     -12.547  11.920  71.107  0.00  0.00    +0.011 A 
ATOM     10  C   UNL     1     -12.136  12.824  70.156  0.00  0.00    +0.003 A 
ENDBRANCH   2   3
BRANCH   1  11
ATOM     11  O   UNL     1      -9.534  15.205  68.198  0.00  0.00    -0.373 OA
BRANCH  11  12
ATOM     12  C   UNL     1      -8.513  15.358  67.248  0.00  0.00    +0.266 C 
BRANCH  12  18
ATOM     13 CL   UNL     1      -9.907  20.657  67.455  0.00  0.00    -0.082 Cl
ATOM     14  C   UNL     1      -9.394  19.300  66.453  0.00  0.00    +0.058 A 
ATOM     15  C   UNL     1      -8.065  18.897  66.402  0.00  0.00    +0.023 A 
ATOM     16  C   UNL     1      -7.739  17.547  66.405  0.00  0.00    +0.058 A 
ATOM     17 CL   UNL     1      -6.071  16.993  66.390  0.00  0.00    -0.082 Cl
ATOM     18  C   UNL     1      -8.715  16.558  66.375  0.00  0.00    +0.035 A 
ATOM     19  C   UNL     1      -9.984  16.991  66.011  0.00  0.00    +0.001 A 
ATOM     20  C   UNL     1     -10.314  18.341  66.045  0.00  0.00    +0.011 A 
ENDBRANCH  12  18
ENDBRANCH  11  12
ENDBRANCH   1  11
BRANCH   2  21
ATOM     21  C   UNL     1     -11.827  14.115  67.058  0.00  0.00    +0.157 C 
BRANCH  21  22
ATOM     22  N   UNL     1     -11.695  13.421  65.781  0.00  0.00    -0.302 N 
ATOM     23  C   UNL     1     -12.777  13.059  65.050  0.00  0.00    +0.179 A 
ATOM     24  N   UNL     1     -12.383  12.717  63.813  0.00  0.00    -0.222 NA
ATOM     25  C   UNL     1     -11.032  12.639  63.873  0.00  0.00    +0.119 A 
ATOM     26  C   UNL     1     -10.682  13.518  64.888  0.00  0.00    +0.098 A 
ENDBRANCH  21  22
ENDBRANCH   2  21
TORSDOF 6
ENDMDL
MODEL 8
REMARK VINA RESULT:      -6.8      3.259      6.530
REMARK  Name = 
REMARK  6 active torsions:
REMARK  status: ('A' for Active; 'I' for Inactive)
REMARK    1  A    between atoms: C_5  and  C_6
REMARK    2  A    between atoms: C_6  and  O_7
REMARK    3  A    between atoms: O_7  and  N_8
REMARK    4  A    between atoms: C_9  and  C_10
REMARK    5  A    between atoms: C_9  and  C_16
REMARK    6  A    between atoms: C_10  and  N_11
REMARK                            x       y       z     vdW  Elec       q    Type
REMARK                         _______ _______ _______ _____ _____    ______ ____
ROOT
ATOM      1  N   UNL     1     -10.646  17.011  68.018  0.00  0.00    -0.085 NA
ATOM      2  C   UNL     1     -10.875  15.745  68.126  0.00  0.00    +0.121 C 
ENDROOT
BRANCH   2   3
ATOM      3  C   UNL     1     -11.112  15.017  66.874  0.00  0.00    +0.029 A 
ATOM      4  C   UNL     1     -10.029  14.634  66.094  0.00  0.00    +0.060 A 
ATOM      5 CL   UNL     1      -8.637  15.713  66.114  0.00  0.00    -0.082 Cl
ATOM      6  C   UNL     1     -10.151  13.643  65.138  0.00  0.00    +0.023 A 
ATOM      7  C   UNL     1     -11.393  13.117  64.864  0.00  0.00    +0.059 A 
ATOM      8 CL   UNL     1     -11.811  12.464  63.299  0.00  0.00    -0.082 Cl
ATOM      9  C   UNL     1     -12.430  13.383  65.741  0.00  0.00    +0.011 A 
ATOM     10  C   UNL     1     -12.248  14.251  66.790  0.00  0.00    +0.003 A 
ENDBRANCH   2   3
BRANCH   1  11
ATOM     11  O   UNL     1      -9.883  17.730  68.891  0.00  0.00    -0.373 OA
BRANCH  11  12
ATOM     12  C   UNL     1      -9.877  19.129  68.784  0.00  0.00    +0.266 C 
BRANCH  12  18
ATOM     13 CL   UNL     1      -5.431  17.431  66.063  0.00  0.00    -0.082 Cl
ATOM     14  C   UNL     1      -6.408  18.799  66.593  0.00  0.00    +0.058 A 
ATOM     15  C   UNL     1      -7.576  19.156  65.930  0.00  0.00    +0.023 A 
ATOM     16  C   UNL     1      -8.705  19.531  66.647  0.00  0.00    +0.058 A 
ATOM     17 CL   UNL     1     -10.217  19.944  65.852  0.00  0.00    -0.082 Cl
ATOM     18  C   UNL     1      -8.688  19.643  68.032  0.00  0.00    +0.035 A 
ATOM     19  C   UNL     1      -7.423  19.685  68.606  0.00  0.00    +0.001 A 
ATOM     20  C   UNL     1      -6.303  19.275  67.894  0.00  0.00    +0.011 A 
ENDBRANCH  12  18
ENDBRANCH  11  12
ENDBRANCH   1  11
BRANCH   2  21
ATOM     21  C   UNL     1     -10.367  15.024  69.327  0.00  0.00    +0.157 C 
BRANCH  21  22
ATOM     22  N   UNL     1     -11.461  14.893  70.284  0.00  0.00    -0.302 N 
ATOM     23  C   UNL     1     -12.113  15.974  70.775  0.00  0.00    +0.179 A 
ATOM     24  N   UNL     1     -13.240  15.574  71.385  0.00  0.00    -0.222 NA
ATOM     25  C   UNL     1     -13.143  14.226  71.474  0.00  0.00    +0.119 A 
ATOM     26  C   UNL     1     -12.338  13.868  70.402  0.00  0.00    +0.098 A 
ENDBRANCH  21  22
ENDBRANCH   2  21
TORSDOF 6
ENDMDL
MODEL 9
REMARK VINA RESULT:      -6.7      3.302      4.096
REMARK  Name = 
REMARK  6 active torsions:
REMARK  status: ('A' for Active; 'I' for Inactive)
REMARK    1  A    between atoms: C_5  and  C_6
REMARK    2  A    between atoms: C_6  and  O_7
REMARK    3  A    between atoms: O_7  and  N_8
REMARK    4  A    between atoms: C_9  and  C_10
REMARK    5  A    between atoms: C_9  and  C_16
REMARK    6  A    between atoms: C_10  and  N_11
REMARK                            x       y       z     vdW  Elec       q    Type
REMARK                         _______ _______ _______ _____ _____    ______ ____
ROOT
ATOM      1  N   UNL     1     -10.610  13.109  68.295  0.00  0.00    -0.085 NA
ATOM      2  C   UNL     1     -10.582  13.716  67.156  0.00  0.00    +0.121 C 
ENDROOT
BRANCH   2   3
ATOM      3  C   UNL     1     -10.633  15.183  67.198  0.00  0.00    +0.029 A 
ATOM      4  C   UNL     1     -10.934  15.819  68.396  0.00  0.00    +0.060 A 
ATOM      5 CL   UNL     1     -12.045  14.971  69.468  0.00  0.00    -0.082 Cl
ATOM      6  C   UNL     1     -10.627  17.152  68.594  0.00  0.00    +0.023 A 
ATOM      7  C   UNL     1     -10.133  17.895  67.546  0.00  0.00    +0.059 A 
ATOM      8 CL   UNL     1     -10.387  19.618  67.417  0.00  0.00    -0.082 Cl
ATOM      9  C   UNL     1      -9.692  17.230  66.416  0.00  0.00    +0.011 A 
ATOM     10  C   UNL     1      -9.857  15.871  66.300  0.00  0.00    +0.003 A 
ENDBRANCH   2   3
BRANCH   1  11
ATOM     11  O   UNL     1     -10.032  11.895  68.531  0.00  0.00    -0.373 OA
BRANCH  11  12
ATOM     12  C   UNL     1     -10.863  10.793  68.781  0.00  0.00    +0.266 C 
BRANCH  12  18
ATOM     13 CL   UNL     1     -14.467   8.340  72.107  0.00  0.00    -0.082 Cl
ATOM     14  C   UNL     1     -13.063   9.398  71.969  0.00  0.00    +0.058 A 
ATOM     15  C   UNL     1     -11.785   8.886  71.774  0.00  0.00    +0.023 A 
ATOM     16  C   UNL     1     -10.911   9.497  70.884  0.00  0.00    +0.058 A 
ATOM     17 CL   UNL     1      -9.305   8.857  70.570  0.00  0.00    -0.082 Cl
ATOM     18  C   UNL     1     -11.243  10.675  70.225  0.00  0.00    +0.035 A 
ATOM     19  C   UNL     1     -12.330  11.361  70.753  0.00  0.00    +0.001 A 
ATOM     20  C   UNL     1     -13.220  10.732  71.615  0.00  0.00    +0.011 A 
ENDBRANCH  12  18
ENDBRANCH  11  12
ENDBRANCH   1  11
BRANCH   2  21
ATOM     21  C   UNL     1      -9.974  13.022  65.987  0.00  0.00    +0.157 C 
BRANCH  21  22
ATOM     22  N   UNL     1     -11.048  12.569  65.108  0.00  0.00    -0.302 N 
ATOM     23  C   UNL     1     -12.351  12.664  65.466  0.00  0.00    +0.179 A 
ATOM     24  N   UNL     1     -13.124  12.462  64.387  0.00  0.00    -0.222 NA
ATOM     25  C   UNL     1     -12.288  12.002  63.426  0.00  0.00    +0.119 A 
ATOM     26  C   UNL     1     -11.054  12.545  63.754  0.00  0.00    +0.098 A 
ENDBRANCH  21  22
ENDBRANCH   2  21
TORSDOF 6
ENDMDL
