MODEL 1
REMARK VINA RESULT:      -7.3      0.000      0.000
REMARK  Name = 
REMARK  0 active torsions:
REMARK  status: ('A' for Active; 'I' for Inactive)
REMARK                            x       y       z     vdW  Elec       q    Type
REMARK                         _______ _______ _______ _____ _____    ______ ____
ROOT
ATOM      1  N   UNL     1      -9.338  16.013  69.232  0.00  0.00    -0.069 NA
ATOM      2  C   UNL     1     -10.732  15.908  68.915  0.00  0.00    +0.350 C 
ATOM      3  N   UNL     1     -11.352  14.643  69.076  0.00  0.00    -0.220 N 
ATOM      4  C   UNL     1     -11.852  14.381  70.391  0.00  0.00    +0.062 A 
ATOM      5  C   UNL     1     -12.414  13.178  70.801  0.00  0.00    +0.049 A 
ATOM      6  C   UNL     1     -13.375  13.127  71.791  0.00  0.00    +0.004 A 
ATOM      7  C   UNL     1     -13.926  14.316  72.246  0.00  0.00    +0.000 A 
ATOM      8  C   UNL     1     -13.380  15.531  71.862  0.00  0.00    +0.001 A 
ATOM      9  C   UNL     1     -12.031  11.860  70.289  0.00  0.00    +0.179 C 
ATOM     10  O   UNL     1     -12.363  10.912  71.057  0.00  0.00    -0.291 OA
ATOM     11  C   UNL     1     -11.485  11.401  68.999  0.00  0.00    +0.097 C 
ATOM     12  C   UNL     1     -11.469  12.438  67.954  0.00  0.00    -0.000 A 
ATOM     13  C   UNL     1     -11.711  11.833  66.727  0.00  0.00    -0.003 A 
ATOM     14  C   UNL     1     -12.054  12.589  65.623  0.00  0.00    -0.000 A 
ATOM     15  C   UNL     1     -11.692  13.925  65.606  0.00  0.00    +0.001 A 
ATOM     16  C   UNL     1     -11.197  14.510  66.764  0.00  0.00    +0.015 A 
ATOM     17  C   UNL     1     -12.338  15.561  70.943  0.00  0.00    +0.015 A 
ATOM     18  C   UNL     1     -11.208  13.781  67.945  0.00  0.00    +0.056 A 
ATOM     19  O   UNL     1     -11.467  16.915  69.032  0.00  0.00    -0.248 OA
ENDROOT
TORSDOF 0
ENDMDL
MODEL 2
REMARK VINA RESULT:      -7.0      1.633      5.543
REMARK  Name = 
REMARK  0 active torsions:
REMARK  status: ('A' for Active; 'I' for Inactive)
REMARK                            x       y       z     vdW  Elec       q    Type
REMARK                         _______ _______ _______ _____ _____    ______ ____
ROOT
ATOM      1  N   UNL     1      -9.960  11.147  68.779  0.00  0.00    -0.069 NA
ATOM      2  C   UNL     1     -11.263  11.668  68.486  0.00  0.00    +0.350 C 
ATOM      3  N   UNL     1     -11.366  13.044  68.158  0.00  0.00    -0.220 N 
ATOM      4  C   UNL     1     -11.170  13.348  66.773  0.00  0.00    +0.062 A 
ATOM      5  C   UNL     1     -11.136  14.631  66.241  0.00  0.00    +0.049 A 
ATOM      6  C   UNL     1     -11.533  14.888  64.944  0.00  0.00    +0.004 A 
ATOM      7  C   UNL     1     -12.157  13.878  64.226  0.00  0.00    +0.000 A 
ATOM      8  C   UNL     1     -12.197  12.587  64.728  0.00  0.00    +0.001 A 
ATOM      9  C   UNL     1     -10.643  15.816  66.947  0.00  0.00    +0.179 C 
ATOM     10  O   UNL     1     -10.334  16.765  66.172  0.00  0.00    -0.291 OA
ATOM     11  C   UNL     1     -10.583  16.186  68.373  0.00  0.00    +0.097 C 
ATOM     12  C   UNL     1     -11.305  15.260  69.262  0.00  0.00    -0.000 A 
ATOM     13  C   UNL     1     -11.856  15.990  70.307  0.00  0.00    -0.003 A 
ATOM     14  C   UNL     1     -12.832  15.439  71.115  0.00  0.00    -0.000 A 
ATOM     15  C   UNL     1     -12.910  14.060  71.200  0.00  0.00    +0.001 A 
ATOM     16  C   UNL     1     -12.166  13.282  70.323  0.00  0.00    +0.015 A 
ATOM     17  C   UNL     1     -11.694  12.322  65.996  0.00  0.00    +0.015 A 
ATOM     18  C   UNL     1     -11.470  13.902  69.296  0.00  0.00    +0.056 A 
ATOM     19  O   UNL     1     -12.136  10.908  68.008  0.00  0.00    -0.248 OA
ENDROOT
TORSDOF 0
ENDMDL
MODEL 3
REMARK VINA RESULT:      -7.0      2.442      4.579
REMARK  Name = 
REMARK  0 active torsions:
REMARK  status: ('A' for Active; 'I' for Inactive)
REMARK                            x       y       z     vdW  Elec       q    Type
REMARK                         _______ _______ _______ _____ _____    ______ ____
ROOT
ATOM      1  N   UNL     1     -12.478  14.589  64.239  0.00  0.00    -0.069 NA
ATOM      2  C   UNL     1     -11.256  14.207  64.882  0.00  0.00    +0.350 C 
ATOM      3  N   UNL     1     -11.189  14.318  66.295  0.00  0.00    -0.220 N 
ATOM      4  C   UNL     1     -11.671  13.177  67.011  0.00  0.00    +0.062 A 
ATOM      5  C   UNL     1     -11.784  13.098  68.393  0.00  0.00    +0.049 A 
ATOM      6  C   UNL     1     -11.669  11.897  69.063  0.00  0.00    +0.004 A 
ATOM      7  C   UNL     1     -11.240  10.780  68.359  0.00  0.00    +0.000 A 
ATOM      8  C   UNL     1     -11.127  10.826  66.979  0.00  0.00    +0.001 A 
ATOM      9  C   UNL     1     -12.083  14.231  69.272  0.00  0.00    +0.179 C 
ATOM     10  O   UNL     1     -12.526  13.881  70.403  0.00  0.00    -0.291 OA
ATOM     11  C   UNL     1     -11.826  15.679  69.171  0.00  0.00    +0.097 C 
ATOM     12  C   UNL     1     -10.954  16.054  68.045  0.00  0.00    -0.000 A 
ATOM     13  C   UNL     1     -10.173  17.136  68.432  0.00  0.00    -0.003 A 
ATOM     14  C   UNL     1      -9.061  17.501  67.698  0.00  0.00    -0.000 A 
ATOM     15  C   UNL     1      -9.002  17.126  66.368  0.00  0.00    +0.001 A 
ATOM     16  C   UNL     1      -9.937  16.226  65.873  0.00  0.00    +0.015 A 
ATOM     17  C   UNL     1     -11.352  12.022  66.306  0.00  0.00    +0.015 A 
ATOM     18  C   UNL     1     -10.821  15.620  66.755  0.00  0.00    +0.056 A 
ATOM     19  O   UNL     1     -10.526  13.339  64.351  0.00  0.00    -0.248 OA
ENDROOT
TORSDOF 0
ENDMDL
MODEL 4
REMARK VINA RESULT:      -6.9      1.936      4.544
REMARK  Name = 
REMARK  0 active torsions:
REMARK  status: ('A' for Active; 'I' for Inactive)
REMARK                            x       y       z     vdW  Elec       q    Type
REMARK                         _______ _______ _______ _____ _____    ______ ____
ROOT
ATOM      1  N   UNL     1     -12.438  14.191  67.488  0.00  0.00    -0.069 NA
ATOM      2  C   UNL     1     -11.418  14.005  68.477  0.00  0.00    +0.350 C 
ATOM      3  N   UNL     1     -11.772  13.329  69.672  0.00  0.00    -0.220 N 
ATOM      4  C   UNL     1     -11.667  11.903  69.610  0.00  0.00    +0.062 A 
ATOM      5  C   UNL     1     -12.046  11.035  70.626  0.00  0.00    +0.049 A 
ATOM      6  C   UNL     1     -11.429   9.813  70.803  0.00  0.00    +0.004 A 
ATOM      7  C   UNL     1     -10.283   9.533  70.072  0.00  0.00    +0.000 A 
ATOM      8  C   UNL     1      -9.886  10.376  69.046  0.00  0.00    +0.001 A 
ATOM      9  C   UNL     1     -13.143  11.277  71.566  0.00  0.00    +0.179 C 
ATOM     10  O   UNL     1     -13.563  10.224  72.125  0.00  0.00    -0.291 OA
ATOM     11  C   UNL     1     -13.747  12.506  72.112  0.00  0.00    +0.097 C 
ATOM     12  C   UNL     1     -13.007  13.735  71.780  0.00  0.00    -0.000 A 
ATOM     13  C   UNL     1     -13.110  14.616  72.849  0.00  0.00    -0.003 A 
ATOM     14  C   UNL     1     -12.271  15.710  72.946  0.00  0.00    -0.000 A 
ATOM     15  C   UNL     1     -11.687  16.191  71.787  0.00  0.00    +0.001 A 
ATOM     16  C   UNL     1     -11.784  15.448  70.618  0.00  0.00    +0.015 A 
ATOM     17  C   UNL     1     -10.585  11.554  68.810  0.00  0.00    +0.015 A 
ATOM     18  C   UNL     1     -12.342  14.178  70.670  0.00  0.00    +0.056 A 
ATOM     19  O   UNL     1     -10.220  13.927  68.120  0.00  0.00    -0.248 OA
ENDROOT
TORSDOF 0
ENDMDL
MODEL 5
REMARK VINA RESULT:      -6.8      1.535      5.316
REMARK  Name = 
REMARK  0 active torsions:
REMARK  status: ('A' for Active; 'I' for Inactive)
REMARK                            x       y       z     vdW  Elec       q    Type
REMARK                         _______ _______ _______ _____ _____    ______ ____
ROOT
ATOM      1  N   UNL     1      -9.764  10.682  69.212  0.00  0.00    -0.069 NA
ATOM      2  C   UNL     1     -11.143  10.947  68.926  0.00  0.00    +0.350 C 
ATOM      3  N   UNL     1     -11.581  12.295  68.979  0.00  0.00    -0.220 N 
ATOM      4  C   UNL     1     -11.411  13.031  67.763  0.00  0.00    +0.062 A 
ATOM      5  C   UNL     1     -11.684  14.384  67.611  0.00  0.00    +0.049 A 
ATOM      6  C   UNL     1     -12.079  14.912  66.398  0.00  0.00    +0.004 A 
ATOM      7  C   UNL     1     -12.394  14.041  65.364  0.00  0.00    +0.000 A 
ATOM      8  C   UNL     1     -12.123  12.688  65.484  0.00  0.00    +0.001 A 
ATOM      9  C   UNL     1     -11.541  15.389  68.666  0.00  0.00    +0.179 C 
ATOM     10  O   UNL     1     -11.453  16.570  68.222  0.00  0.00    -0.291 OA
ATOM     11  C   UNL     1     -11.637  15.327  70.136  0.00  0.00    +0.097 C 
ATOM     12  C   UNL     1     -12.135  14.039  70.648  0.00  0.00    -0.000 A 
ATOM     13  C   UNL     1     -12.897  14.280  71.784  0.00  0.00    -0.003 A 
ATOM     14  C   UNL     1     -13.733  13.305  72.294  0.00  0.00    -0.000 A 
ATOM     15  C   UNL     1     -13.459  11.983  71.987  0.00  0.00    +0.001 A 
ATOM     16  C   UNL     1     -12.504  11.693  71.021  0.00  0.00    +0.015 A 
ATOM     17  C   UNL     1     -11.623  12.186  66.680  0.00  0.00    +0.015 A 
ATOM     18  C   UNL     1     -11.948  12.732  70.289  0.00  0.00    +0.056 A 
ATOM     19  O   UNL     1     -11.772  10.180  68.162  0.00  0.00    -0.248 OA
ENDROOT
TORSDOF 0
ENDMDL
MODEL 6
REMARK VINA RESULT:      -6.7      2.694      5.075
REMARK  Name = 
REMARK  0 active torsions:
REMARK  status: ('A' for Active; 'I' for Inactive)
REMARK                            x       y       z     vdW  Elec       q    Type
REMARK                         _______ _______ _______ _____ _____    ______ ____
ROOT
ATOM      1  N   UNL     1     -11.686  11.548  67.141  0.00  0.00    -0.069 NA
ATOM      2  C   UNL     1     -10.871  11.960  68.245  0.00  0.00    +0.350 C 
ATOM      3  N   UNL     1     -11.190  11.449  69.529  0.00  0.00    -0.220 N 
ATOM      4  C   UNL     1     -10.592  10.186  69.839  0.00  0.00    +0.062 A 
ATOM      5  C   UNL     1     -10.835   9.457  70.996  0.00  0.00    +0.049 A 
ATOM      6  C   UNL     1      -9.881   8.620  71.539  0.00  0.00    +0.004 A 
ATOM      7  C   UNL     1      -8.592   8.657  71.025  0.00  0.00    +0.000 A 
ATOM      8  C   UNL     1      -8.323   9.368  69.866  0.00  0.00    +0.001 A 
ATOM      9  C   UNL     1     -12.104   9.447  71.727  0.00  0.00    +0.179 C 
ATOM     10  O   UNL     1     -12.234   8.445  72.487  0.00  0.00    -0.291 OA
ATOM     11  C   UNL     1     -13.186  10.438  71.880  0.00  0.00    +0.097 C 
ATOM     12  C   UNL     1     -12.864  11.764  71.327  0.00  0.00    -0.000 A 
ATOM     13  C   UNL     1     -13.463  12.732  72.123  0.00  0.00    -0.003 A 
ATOM     14  C   UNL     1     -13.085  14.058  72.027  0.00  0.00    -0.000 A 
ATOM     15  C   UNL     1     -12.494  14.486  70.852  0.00  0.00    +0.001 A 
ATOM     16  C   UNL     1     -12.107  13.548  69.903  0.00  0.00    +0.015 A 
ATOM     17  C   UNL     1      -9.326  10.123  69.269  0.00  0.00    +0.015 A 
ATOM     18  C   UNL     1     -12.194  12.199  70.216  0.00  0.00    +0.056 A 
ATOM     19  O   UNL     1      -9.675  12.273  68.045  0.00  0.00    -0.248 OA
ENDROOT
TORSDOF 0
ENDMDL
MODEL 7
REMARK VINA RESULT:      -6.6      2.915      5.248
REMARK  Name = 
REMARK  0 active torsions:
REMARK  status: ('A' for Active; 'I' for Inactive)
REMARK                            x       y       z     vdW  Elec       q    Type
REMARK                         _______ _______ _______ _____ _____    ______ ____
ROOT
ATOM      1  N   UNL     1     -12.567  12.856  63.485  0.00  0.00    -0.069 NA
ATOM      2  C   UNL     1     -11.238  12.806  64.020  0.00  0.00    +0.350 C 
ATOM      3  N   UNL     1     -11.095  12.778  65.431  0.00  0.00    -0.220 N 
ATOM      4  C   UNL     1     -11.146  11.472  66.014  0.00  0.00    +0.062 A 
ATOM      5  C   UNL     1     -11.119  11.212  67.378  0.00  0.00    +0.049 A 
ATOM      6  C   UNL     1     -10.590  10.041  67.882  0.00  0.00    +0.004 A 
ATOM      7  C   UNL     1      -9.900   9.197  67.022  0.00  0.00    +0.000 A 
ATOM      8  C   UNL     1      -9.919   9.426  65.656  0.00  0.00    +0.001 A 
ATOM      9  C   UNL     1     -11.676  12.092  68.408  0.00  0.00    +0.179 C 
ATOM     10  O   UNL     1     -11.898  11.500  69.503  0.00  0.00    -0.291 OA
ATOM     11  C   UNL     1     -11.880  13.550  68.483  0.00  0.00    +0.097 C 
ATOM     12  C   UNL     1     -11.257  14.299  67.378  0.00  0.00    -0.000 A 
ATOM     13  C   UNL     1     -10.813  15.520  67.867  0.00  0.00    -0.003 A 
ATOM     14  C   UNL     1      -9.928  16.293  67.139  0.00  0.00    -0.000 A 
ATOM     15  C   UNL     1      -9.865  16.101  65.770  0.00  0.00    +0.001 A 
ATOM     16  C   UNL     1     -10.520  15.015  65.205  0.00  0.00    +0.015 A 
ATOM     17  C   UNL     1     -10.550  10.558  65.153  0.00  0.00    +0.015 A 
ATOM     18  C   UNL     1     -11.103  14.071  66.038  0.00  0.00    +0.056 A 
ATOM     19  O   UNL     1     -10.325  12.273  63.350  0.00  0.00    -0.248 OA
ENDROOT
TORSDOF 0
ENDMDL
MODEL 8
REMARK VINA RESULT:      -6.5      2.068      4.695
REMARK  Name = 
REMARK  0 active torsions:
REMARK  status: ('A' for Active; 'I' for Inactive)
REMARK                            x       y       z     vdW  Elec       q    Type
REMARK                         _______ _______ _______ _____ _____    ______ ____
ROOT
ATOM      1  N   UNL     1     -12.914  15.834  70.212  0.00  0.00    -0.069 NA
ATOM      2  C   UNL     1     -11.612  15.328  69.892  0.00  0.00    +0.350 C 
ATOM      3  N   UNL     1     -11.268  15.208  68.522  0.00  0.00    -0.220 N 
ATOM      4  C   UNL     1     -10.714  16.391  67.936  0.00  0.00    +0.062 A 
ATOM      5  C   UNL     1     -10.390  16.533  66.593  0.00  0.00    +0.049 A 
ATOM      6  C   UNL     1      -9.374  17.370  66.177  0.00  0.00    +0.004 A 
ATOM      7  C   UNL     1      -8.538  17.929  67.134  0.00  0.00    +0.000 A 
ATOM      8  C   UNL     1      -8.842  17.812  68.480  0.00  0.00    +0.001 A 
ATOM      9  C   UNL     1     -11.095  15.877  65.489  0.00  0.00    +0.179 C 
ATOM     10  O   UNL     1     -10.905  16.439  64.372  0.00  0.00    -0.291 OA
ATOM     11  C   UNL     1     -11.846  14.613  65.384  0.00  0.00    +0.097 C 
ATOM     12  C   UNL     1     -11.737  13.752  66.574  0.00  0.00    -0.000 A 
ATOM     13  C   UNL     1     -11.748  12.426  66.162  0.00  0.00    -0.003 A 
ATOM     14  C   UNL     1     -11.355  11.417  67.021  0.00  0.00    -0.000 A 
ATOM     15  C   UNL     1     -11.419  11.655  68.383  0.00  0.00    +0.001 A 
ATOM     16  C   UNL     1     -11.665  12.944  68.837  0.00  0.00    +0.015 A 
ATOM     17  C   UNL     1      -9.935  17.052  68.879  0.00  0.00    +0.015 A 
ATOM     18  C   UNL     1     -11.700  13.986  67.921  0.00  0.00    +0.056 A 
ATOM     19  O   UNL     1     -10.669  15.503  70.697  0.00  0.00    -0.248 OA
ENDROOT
TORSDOF 0
ENDMDL
MODEL 9
REMARK VINA RESULT:      -6.4      3.297      5.153
REMARK  Name = 
REMARK  0 active torsions:
REMARK  status: ('A' for Active; 'I' for Inactive)
REMARK                            x       y       z     vdW  Elec       q    Type
REMARK                         _______ _______ _______ _____ _____    ______ ____
ROOT
ATOM      1  N   UNL     1     -12.062  11.102  68.404  0.00  0.00    -0.069 NA
ATOM      2  C   UNL     1     -10.820  11.578  67.872  0.00  0.00    +0.350 C 
ATOM      3  N   UNL     1     -10.863  12.345  66.679  0.00  0.00    -0.220 N 
ATOM      4  C   UNL     1     -11.069  13.748  66.874  0.00  0.00    +0.062 A 
ATOM      5  C   UNL     1     -11.235  14.674  65.852  0.00  0.00    +0.049 A 
ATOM      6  C   UNL     1     -10.848  15.991  65.997  0.00  0.00    +0.004 A 
ATOM      7  C   UNL     1     -10.105  16.347  67.113  0.00  0.00    +0.000 A 
ATOM      8  C   UNL     1      -9.932  15.448  68.153  0.00  0.00    +0.001 A 
ATOM      9  C   UNL     1     -11.867  14.390  64.561  0.00  0.00    +0.179 C 
ATOM     10  O   UNL     1     -12.265  15.429  63.961  0.00  0.00    -0.291 OA
ATOM     11  C   UNL     1     -11.990  13.165  63.748  0.00  0.00    +0.097 C 
ATOM     12  C   UNL     1     -11.185  12.036  64.243  0.00  0.00    -0.000 A 
ATOM     13  C   UNL     1     -10.736  11.303  63.153  0.00  0.00    -0.003 A 
ATOM     14  C   UNL     1      -9.718  10.379  63.294  0.00  0.00    -0.000 A 
ATOM     15  C   UNL     1      -9.490   9.844  64.550  0.00  0.00    +0.001 A 
ATOM     16  C   UNL     1     -10.130  10.398  65.652  0.00  0.00    +0.015 A 
ATOM     17  C   UNL     1     -10.423  14.153  68.036  0.00  0.00    +0.015 A 
ATOM     18  C   UNL     1     -10.873  11.558  65.486  0.00  0.00    +0.056 A 
ATOM     19  O   UNL     1      -9.861  11.796  68.647  0.00  0.00    -0.248 OA
ENDROOT
TORSDOF 0
ENDMDL
