MODEL 1
REMARK VINA RESULT:      -6.6      0.000      0.000
REMARK  Name = 
REMARK  4 active torsions:
REMARK  status: ('A' for Active; 'I' for Inactive)
REMARK    1  A    between atoms: N_2  and  C_4
REMARK    2  A    between atoms: C_4  and  C_5
REMARK    3  A    between atoms: C_5  and  C_6
REMARK    4  A    between atoms: C_6  and  N_7
REMARK                            x       y       z     vdW  Elec       q    Type
REMARK                         _______ _______ _______ _____ _____    ______ ____
ROOT
ATOM      1  N   UNL     1     -11.436  13.908  68.552  0.00  0.00    -0.287 N 
ATOM      2  C   UNL     1     -11.360  14.646  67.325  0.00  0.00    +0.048 A 
ATOM      3  C   UNL     1     -11.835  14.165  66.110  0.00  0.00    -0.008 A 
ATOM      4  C   UNL     1     -11.605  14.985  65.011  0.00  0.00    -0.002 A 
ATOM      5  C   UNL     1     -10.617  15.962  65.059  0.00  0.00    +0.011 A 
ATOM      6  C   UNL     1      -9.923  16.231  66.231  0.00  0.00    +0.059 A 
ATOM      7 CL   UNL     1      -8.305  16.914  66.218  0.00  0.00    -0.082 Cl
ATOM      8  C   UNL     1     -12.241  12.779  65.745  0.00  0.00    +0.032 C 
ATOM      9  C   UNL     1     -11.301  11.738  66.315  0.00  0.00    +0.032 C 
ATOM     10  C   UNL     1     -11.559  11.492  67.768  0.00  0.00    -0.008 A 
ATOM     11  C   UNL     1     -11.047  10.262  68.158  0.00  0.00    -0.003 A 
ATOM     12  C   UNL     1     -11.307   9.914  69.478  0.00  0.00    -0.000 A 
ATOM     13  C   UNL     1     -11.828  10.840  70.371  0.00  0.00    +0.001 A 
ATOM     14  C   UNL     1     -11.722  12.193  70.069  0.00  0.00    +0.015 A 
ATOM     15  C   UNL     1     -10.508  15.742  67.396  0.00  0.00    +0.026 A 
ATOM     16  C   UNL     1     -11.547  12.492  68.732  0.00  0.00    +0.048 A 
ENDROOT
BRANCH   1  17
ATOM     17  C   UNL     1     -11.229  14.740  69.707  0.00  0.00    +0.097 C 
BRANCH  17  18
ATOM     18  C   UNL     1     -12.535  15.392  70.119  0.00  0.00    +0.039 C 
BRANCH  18  19
ATOM     19  C   UNL     1     -12.478  15.871  71.544  0.00  0.00    +0.074 C 
BRANCH  19  21
ATOM     20  C   UNL     1     -12.488  15.213  73.846  0.00  0.00    +0.090 C 
ATOM     21  N   UNL     1     -12.651  14.774  72.481  0.00  0.00    -0.270 NA
ATOM     22  C   UNL     1     -13.947  14.142  72.311  0.00  0.00    +0.090 C 
ENDBRANCH  19  21
ENDBRANCH  18  19
ENDBRANCH  17  18
ENDBRANCH   1  17
TORSDOF 4
ENDMDL
MODEL 2
REMARK VINA RESULT:      -6.6      2.370      4.628
REMARK  Name = 
REMARK  4 active torsions:
REMARK  status: ('A' for Active; 'I' for Inactive)
REMARK    1  A    between atoms: N_2  and  C_4
REMARK    2  A    between atoms: C_4  and  C_5
REMARK    3  A    between atoms: C_5  and  C_6
REMARK    4  A    between atoms: C_6  and  N_7
REMARK                            x       y       z     vdW  Elec       q    Type
REMARK                         _______ _______ _______ _____ _____    ______ ____
ROOT
ATOM      1  N   UNL     1     -11.796  12.553  69.407  0.00  0.00    -0.287 N 
ATOM      2  C   UNL     1     -11.031  12.925  68.253  0.00  0.00    +0.048 A 
ATOM      3  C   UNL     1     -10.306  14.107  68.162  0.00  0.00    -0.008 A 
ATOM      4  C   UNL     1      -9.688  14.337  66.938  0.00  0.00    -0.002 A 
ATOM      5  C   UNL     1     -10.122  13.672  65.797  0.00  0.00    +0.011 A 
ATOM      6  C   UNL     1     -11.089  12.677  65.863  0.00  0.00    +0.059 A 
ATOM      7 CL   UNL     1     -12.122  12.291  64.498  0.00  0.00    -0.082 Cl
ATOM      8  C   UNL     1     -10.365  15.312  69.035  0.00  0.00    +0.032 C 
ATOM      9  C   UNL     1     -11.785  15.672  69.419  0.00  0.00    +0.032 C 
ATOM     10  C   UNL     1     -12.307  14.788  70.507  0.00  0.00    -0.008 A 
ATOM     11  C   UNL     1     -13.377  15.388  71.158  0.00  0.00    -0.003 A 
ATOM     12  C   UNL     1     -13.881  14.669  72.236  0.00  0.00    -0.000 A 
ATOM     13  C   UNL     1     -13.484  13.360  72.469  0.00  0.00    +0.001 A 
ATOM     14  C   UNL     1     -12.904  12.642  71.429  0.00  0.00    +0.015 A 
ATOM     15  C   UNL     1     -11.318  12.153  67.133  0.00  0.00    +0.026 A 
ATOM     16  C   UNL     1     -12.344  13.402  70.421  0.00  0.00    +0.048 A 
ENDROOT
BRANCH   1  17
ATOM     17  C   UNL     1     -12.139  11.156  69.412  0.00  0.00    +0.097 C 
BRANCH  17  18
ATOM     18  C   UNL     1     -11.011  10.345  70.019  0.00  0.00    +0.039 C 
BRANCH  18  19
ATOM     19  C   UNL     1     -11.502   9.009  70.506  0.00  0.00    +0.074 C 
BRANCH  19  21
ATOM     20  C   UNL     1     -13.200   8.943  72.192  0.00  0.00    +0.090 C 
ATOM     21  N   UNL     1     -11.784   9.033  71.931  0.00  0.00    -0.270 NA
ATOM     22  C   UNL     1     -11.081   7.966  72.621  0.00  0.00    +0.090 C 
ENDBRANCH  19  21
ENDBRANCH  18  19
ENDBRANCH  17  18
ENDBRANCH   1  17
TORSDOF 4
ENDMDL
MODEL 3
REMARK VINA RESULT:      -6.5      2.820      6.626
REMARK  Name = 
REMARK  4 active torsions:
REMARK  status: ('A' for Active; 'I' for Inactive)
REMARK    1  A    between atoms: N_2  and  C_4
REMARK    2  A    between atoms: C_4  and  C_5
REMARK    3  A    between atoms: C_5  and  C_6
REMARK    4  A    between atoms: C_6  and  N_7
REMARK                            x       y       z     vdW  Elec       q    Type
REMARK                         _______ _______ _______ _____ _____    ______ ____
ROOT
ATOM      1  N   UNL     1     -11.555  12.123  69.622  0.00  0.00    -0.287 N 
ATOM      2  C   UNL     1     -11.849  10.934  70.366  0.00  0.00    +0.048 A 
ATOM      3  C   UNL     1     -12.877  10.845  71.296  0.00  0.00    -0.008 A 
ATOM      4  C   UNL     1     -12.964   9.638  71.979  0.00  0.00    -0.002 A 
ATOM      5  C   UNL     1     -11.867   8.785  72.039  0.00  0.00    +0.011 A 
ATOM      6  C   UNL     1     -10.706   9.049  71.324  0.00  0.00    +0.059 A 
ATOM      7 CL   UNL     1      -9.140   8.444  71.837  0.00  0.00    -0.082 Cl
ATOM      8  C   UNL     1     -13.678  11.938  71.915  0.00  0.00    +0.032 C 
ATOM      9  C   UNL     1     -12.825  13.133  72.286  0.00  0.00    +0.032 C 
ATOM     10  C   UNL     1     -12.496  13.973  71.092  0.00  0.00    -0.008 A 
ATOM     11  C   UNL     1     -12.137  15.257  71.477  0.00  0.00    -0.003 A 
ATOM     12  C   UNL     1     -11.885  16.133  70.427  0.00  0.00    -0.000 A 
ATOM     13  C   UNL     1     -11.778  15.670  69.123  0.00  0.00    +0.001 A 
ATOM     14  C   UNL     1     -11.529  14.319  68.911  0.00  0.00    +0.015 A 
ATOM     15  C   UNL     1     -10.837   9.982  70.299  0.00  0.00    +0.026 A 
ATOM     16  C   UNL     1     -11.873  13.480  69.953  0.00  0.00    +0.048 A 
ENDROOT
BRANCH   1  17
ATOM     17  C   UNL     1     -10.715  11.867  68.483  0.00  0.00    +0.097 C 
BRANCH  17  18
ATOM     18  C   UNL     1     -11.552  11.366  67.321  0.00  0.00    +0.039 C 
BRANCH  18  19
ATOM     19  C   UNL     1     -11.213  12.099  66.051  0.00  0.00    +0.074 C 
BRANCH  19  21
ATOM     20  C   UNL     1     -12.695  13.902  65.519  0.00  0.00    +0.090 C 
ATOM     21  N   UNL     1     -12.410  12.499  65.333  0.00  0.00    -0.270 NA
ATOM     22  C   UNL     1     -12.295  12.198  63.917  0.00  0.00    +0.090 C 
ENDBRANCH  19  21
ENDBRANCH  18  19
ENDBRANCH  17  18
ENDBRANCH   1  17
TORSDOF 4
ENDMDL
MODEL 4
REMARK VINA RESULT:      -6.3      2.576      4.772
REMARK  Name = 
REMARK  4 active torsions:
REMARK  status: ('A' for Active; 'I' for Inactive)
REMARK    1  A    between atoms: N_2  and  C_4
REMARK    2  A    between atoms: C_4  and  C_5
REMARK    3  A    between atoms: C_5  and  C_6
REMARK    4  A    between atoms: C_6  and  N_7
REMARK                            x       y       z     vdW  Elec       q    Type
REMARK                         _______ _______ _______ _____ _____    ______ ____
ROOT
ATOM      1  N   UNL     1     -11.642  12.836  68.478  0.00  0.00    -0.287 N 
ATOM      2  C   UNL     1     -11.181  11.765  69.311  0.00  0.00    +0.048 A 
ATOM      3  C   UNL     1     -10.189  10.869  68.929  0.00  0.00    -0.008 A 
ATOM      4  C   UNL     1      -9.925   9.847  69.834  0.00  0.00    -0.002 A 
ATOM      5  C   UNL     1     -10.863   9.508  70.803  0.00  0.00    +0.011 A 
ATOM      6  C   UNL     1     -12.024  10.251  70.977  0.00  0.00    +0.059 A 
ATOM      7 CL   UNL     1     -13.483   9.551  71.655  0.00  0.00    -0.082 Cl
ATOM      8  C   UNL     1      -9.609  10.632  67.578  0.00  0.00    +0.032 C 
ATOM      9  C   UNL     1     -10.666  10.637  66.493  0.00  0.00    +0.032 C 
ATOM     10  C   UNL     1     -11.086  12.027  66.132  0.00  0.00    -0.008 A 
ATOM     11  C   UNL     1     -11.672  12.053  64.874  0.00  0.00    -0.003 A 
ATOM     12  C   UNL     1     -12.028  13.319  64.423  0.00  0.00    -0.000 A 
ATOM     13  C   UNL     1     -12.004  14.414  65.276  0.00  0.00    +0.001 A 
ATOM     14  C   UNL     1     -12.012  14.192  66.648  0.00  0.00    +0.015 A 
ATOM     15  C   UNL     1     -12.013  11.517  70.397  0.00  0.00    +0.026 A 
ATOM     16  C   UNL     1     -11.572  12.947  67.052  0.00  0.00    +0.048 A 
ENDROOT
BRANCH   1  17
ATOM     17  C   UNL     1     -12.382  13.826  69.215  0.00  0.00    +0.097 C 
BRANCH  17  18
ATOM     18  C   UNL     1     -11.428  14.753  69.944  0.00  0.00    +0.039 C 
BRANCH  18  19
ATOM     19  C   UNL     1     -12.174  15.714  70.829  0.00  0.00    +0.074 C 
BRANCH  19  21
ATOM     20  C   UNL     1     -12.162  15.416  73.203  0.00  0.00    +0.090 C 
ATOM     21  N   UNL     1     -12.783  15.035  71.958  0.00  0.00    -0.270 NA
ATOM     22  C   UNL     1     -14.212  15.292  72.015  0.00  0.00    +0.090 C 
ENDBRANCH  19  21
ENDBRANCH  18  19
ENDBRANCH  17  18
ENDBRANCH   1  17
TORSDOF 4
ENDMDL
MODEL 5
REMARK VINA RESULT:      -6.2      2.624      5.350
REMARK  Name = 
REMARK  4 active torsions:
REMARK  status: ('A' for Active; 'I' for Inactive)
REMARK    1  A    between atoms: N_2  and  C_4
REMARK    2  A    between atoms: C_4  and  C_5
REMARK    3  A    between atoms: C_5  and  C_6
REMARK    4  A    between atoms: C_6  and  N_7
REMARK                            x       y       z     vdW  Elec       q    Type
REMARK                         _______ _______ _______ _____ _____    ______ ____
ROOT
ATOM      1  N   UNL     1     -11.461  14.757  68.473  0.00  0.00    -0.287 N 
ATOM      2  C   UNL     1     -11.953  14.222  69.709  0.00  0.00    +0.048 A 
ATOM      3  C   UNL     1     -11.805  12.891  70.081  0.00  0.00    -0.008 A 
ATOM      4  C   UNL     1     -12.413  12.534  71.278  0.00  0.00    -0.002 A 
ATOM      5  C   UNL     1     -13.431  13.318  71.810  0.00  0.00    +0.011 A 
ATOM      6  C   UNL     1     -13.781  14.534  71.237  0.00  0.00    +0.059 A 
ATOM      7 CL   UNL     1     -15.389  15.215  71.412  0.00  0.00    -0.082 Cl
ATOM      8  C   UNL     1     -11.396  11.725  69.250  0.00  0.00    +0.032 C 
ATOM      9  C   UNL     1     -12.034  11.750  67.876  0.00  0.00    +0.032 C 
ATOM     10  C   UNL     1     -11.349  12.714  66.962  0.00  0.00    -0.008 A 
ATOM     11  C   UNL     1     -11.613  12.408  65.634  0.00  0.00    -0.003 A 
ATOM     12  C   UNL     1     -10.955  13.209  64.708  0.00  0.00    -0.000 A 
ATOM     13  C   UNL     1     -10.287  14.358  65.106  0.00  0.00    +0.001 A 
ATOM     14  C   UNL     1     -10.598  14.919  66.339  0.00  0.00    +0.015 A 
ATOM     15  C   UNL     1     -12.844  15.069  70.356  0.00  0.00    +0.026 A 
ATOM     16  C   UNL     1     -11.175  14.061  67.254  0.00  0.00    +0.048 A 
ENDROOT
BRANCH   1  17
ATOM     17  C   UNL     1     -11.403  16.194  68.480  0.00  0.00    +0.097 C 
BRANCH  17  18
ATOM     18  C   UNL     1     -10.071  16.658  69.038  0.00  0.00    +0.039 C 
BRANCH  18  19
ATOM     19  C   UNL     1      -9.790  18.087  68.659  0.00  0.00    +0.074 C 
BRANCH  19  21
ATOM     20  C   UNL     1     -10.622  19.575  66.979  0.00  0.00    +0.090 C 
ATOM     21  N   UNL     1      -9.982  18.307  67.237  0.00  0.00    -0.270 NA
ATOM     22  C   UNL     1      -8.720  18.231  66.521  0.00  0.00    +0.090 C 
ENDBRANCH  19  21
ENDBRANCH  18  19
ENDBRANCH  17  18
ENDBRANCH   1  17
TORSDOF 4
ENDMDL
MODEL 6
REMARK VINA RESULT:      -6.2      1.615      2.840
REMARK  Name = 
REMARK  4 active torsions:
REMARK  status: ('A' for Active; 'I' for Inactive)
REMARK    1  A    between atoms: N_2  and  C_4
REMARK    2  A    between atoms: C_4  and  C_5
REMARK    3  A    between atoms: C_5  and  C_6
REMARK    4  A    between atoms: C_6  and  N_7
REMARK                            x       y       z     vdW  Elec       q    Type
REMARK                         _______ _______ _______ _____ _____    ______ ____
ROOT
ATOM      1  N   UNL     1     -10.673  15.339  68.200  0.00  0.00    -0.287 N 
ATOM      2  C   UNL     1     -10.282  16.653  67.780  0.00  0.00    +0.048 A 
ATOM      3  C   UNL     1     -10.458  17.128  66.485  0.00  0.00    -0.008 A 
ATOM      4  C   UNL     1      -9.947  18.397  66.240  0.00  0.00    -0.002 A 
ATOM      5  C   UNL     1      -8.976  18.937  67.077  0.00  0.00    +0.011 A 
ATOM      6  C   UNL     1      -8.582  18.288  68.239  0.00  0.00    +0.059 A 
ATOM      7 CL   UNL     1      -6.993  18.529  68.947  0.00  0.00    -0.082 Cl
ATOM      8  C   UNL     1     -10.798  16.373  65.247  0.00  0.00    +0.032 C 
ATOM      9  C   UNL     1     -10.052  15.058  65.156  0.00  0.00    +0.032 C 
ATOM     10  C   UNL     1     -10.662  14.011  66.031  0.00  0.00    -0.008 A 
ATOM     11  C   UNL     1     -10.293  12.740  65.611  0.00  0.00    -0.003 A 
ATOM     12  C   UNL     1     -10.875  11.697  66.322  0.00  0.00    -0.000 A 
ATOM     13  C   UNL     1     -11.574  11.938  67.496  0.00  0.00    +0.001 A 
ATOM     14  C   UNL     1     -11.364  13.137  68.166  0.00  0.00    +0.015 A 
ATOM     15  C   UNL     1      -9.446  17.292  68.688  0.00  0.00    +0.026 A 
ATOM     16  C   UNL     1     -10.860  14.168  67.397  0.00  0.00    +0.048 A 
ENDROOT
BRANCH   1  17
ATOM     17  C   UNL     1     -10.734  15.215  69.631  0.00  0.00    +0.097 C 
BRANCH  17  18
ATOM     18  C   UNL     1     -12.057  15.749  70.145  0.00  0.00    +0.039 C 
BRANCH  18  19
ATOM     19  C   UNL     1     -11.953  16.165  71.587  0.00  0.00    +0.074 C 
BRANCH  19  21
ATOM     20  C   UNL     1     -14.106  15.120  71.526  0.00  0.00    +0.090 C 
ATOM     21  N   UNL     1     -13.197  15.932  72.299  0.00  0.00    -0.270 NA
ATOM     22  C   UNL     1     -12.953  15.315  73.591  0.00  0.00    +0.090 C 
ENDBRANCH  19  21
ENDBRANCH  18  19
ENDBRANCH  17  18
ENDBRANCH   1  17
TORSDOF 4
ENDMDL
MODEL 7
REMARK VINA RESULT:      -6.1      2.541      5.128
REMARK  Name = 
REMARK  4 active torsions:
REMARK  status: ('A' for Active; 'I' for Inactive)
REMARK    1  A    between atoms: N_2  and  C_4
REMARK    2  A    between atoms: C_4  and  C_5
REMARK    3  A    between atoms: C_5  and  C_6
REMARK    4  A    between atoms: C_6  and  N_7
REMARK                            x       y       z     vdW  Elec       q    Type
REMARK                         _______ _______ _______ _____ _____    ______ ____
ROOT
ATOM      1  N   UNL     1     -10.330  16.080  68.145  0.00  0.00    -0.287 N 
ATOM      2  C   UNL     1     -10.050  14.731  67.749  0.00  0.00    +0.048 A 
ATOM      3  C   UNL     1      -8.772  14.264  67.469  0.00  0.00    -0.008 A 
ATOM      4  C   UNL     1      -8.700  12.949  67.023  0.00  0.00    -0.002 A 
ATOM      5  C   UNL     1      -9.824  12.325  66.493  0.00  0.00    +0.011 A 
ATOM      6  C   UNL     1     -11.067  12.943  66.507  0.00  0.00    +0.059 A 
ATOM      7 CL   UNL     1     -12.312  12.555  65.331  0.00  0.00    -0.082 Cl
ATOM      8  C   UNL     1      -7.519  15.038  67.246  0.00  0.00    +0.032 C 
ATOM      9  C   UNL     1      -7.751  16.273  66.401  0.00  0.00    +0.032 C 
ATOM     10  C   UNL     1      -8.363  17.383  67.196  0.00  0.00    -0.008 A 
ATOM     11  C   UNL     1      -8.148  18.607  66.579  0.00  0.00    -0.003 A 
ATOM     12  C   UNL     1      -8.618  19.708  67.286  0.00  0.00    -0.000 A 
ATOM     13  C   UNL     1      -9.438  19.547  68.395  0.00  0.00    +0.001 A 
ATOM     14  C   UNL     1     -10.103  18.338  68.564  0.00  0.00    +0.015 A 
ATOM     15  C   UNL     1     -11.187  14.022  67.379  0.00  0.00    +0.026 A 
ATOM     16  C   UNL     1      -9.550  17.257  67.907  0.00  0.00    +0.048 A 
ENDROOT
BRANCH   1  17
ATOM     17  C   UNL     1     -11.638  16.222  68.728  0.00  0.00    +0.097 C 
BRANCH  17  18
ATOM     18  C   UNL     1     -11.575  15.955  70.220  0.00  0.00    +0.039 C 
BRANCH  18  19
ATOM     19  C   UNL     1     -12.671  15.020  70.652  0.00  0.00    +0.074 C 
BRANCH  19  21
ATOM     20  C   UNL     1     -14.865  14.972  71.608  0.00  0.00    +0.090 C 
ATOM     21  N   UNL     1     -13.606  15.675  71.549  0.00  0.00    -0.270 NA
ATOM     22  C   UNL     1     -13.046  15.808  72.883  0.00  0.00    +0.090 C 
ENDBRANCH  19  21
ENDBRANCH  18  19
ENDBRANCH  17  18
ENDBRANCH   1  17
TORSDOF 4
ENDMDL
MODEL 8
REMARK VINA RESULT:      -6.1      3.146      5.614
REMARK  Name = 
REMARK  4 active torsions:
REMARK  status: ('A' for Active; 'I' for Inactive)
REMARK    1  A    between atoms: N_2  and  C_4
REMARK    2  A    between atoms: C_4  and  C_5
REMARK    3  A    between atoms: C_5  and  C_6
REMARK    4  A    between atoms: C_6  and  N_7
REMARK                            x       y       z     vdW  Elec       q    Type
REMARK                         _______ _______ _______ _____ _____    ______ ____
ROOT
ATOM      1  N   UNL     1     -11.793  11.557  69.658  0.00  0.00    -0.287 N 
ATOM      2  C   UNL     1     -11.659  10.551  70.671  0.00  0.00    +0.048 A 
ATOM      3  C   UNL     1     -10.588   9.669  70.740  0.00  0.00    -0.008 A 
ATOM      4  C   UNL     1     -10.666   8.710  71.743  0.00  0.00    -0.002 A 
ATOM      5  C   UNL     1     -11.891   8.397  72.321  0.00  0.00    +0.011 A 
ATOM      6  C   UNL     1     -13.041   9.109  72.007  0.00  0.00    +0.059 A 
ATOM      7 CL   UNL     1     -14.641   8.401  72.148  0.00  0.00    -0.082 Cl
ATOM      8  C   UNL     1      -9.549   9.374  69.714  0.00  0.00    +0.032 C 
ATOM      9  C   UNL     1     -10.132   9.281  68.320  0.00  0.00    +0.032 C 
ATOM     10  C   UNL     1     -10.403  10.632  67.739  0.00  0.00    -0.008 A 
ATOM     11  C   UNL     1     -10.485  10.566  66.355  0.00  0.00    -0.003 A 
ATOM     12  C   UNL     1     -10.662  11.791  65.721  0.00  0.00    -0.000 A 
ATOM     13  C   UNL     1     -10.965  12.933  66.449  0.00  0.00    +0.001 A 
ATOM     14  C   UNL     1     -11.476  12.791  67.734  0.00  0.00    +0.015 A 
ATOM     15  C   UNL     1     -12.830  10.339  71.389  0.00  0.00    +0.026 A 
ATOM     16  C   UNL     1     -11.203  11.587  68.353  0.00  0.00    +0.048 A 
ENDROOT
BRANCH   1  17
ATOM     17  C   UNL     1     -12.761  12.562  70.005  0.00  0.00    +0.097 C 
BRANCH  17  18
ATOM     18  C   UNL     1     -12.106  13.655  70.827  0.00  0.00    +0.039 C 
BRANCH  18  19
ATOM     19  C   UNL     1     -12.551  15.018  70.374  0.00  0.00    +0.074 C 
BRANCH  19  21
ATOM     20  C   UNL     1     -14.308  15.192  71.990  0.00  0.00    +0.090 C 
ATOM     21  N   UNL     1     -13.101  15.791  71.474  0.00  0.00    -0.270 NA
ATOM     22  C   UNL     1     -12.128  15.950  72.540  0.00  0.00    +0.090 C 
ENDBRANCH  19  21
ENDBRANCH  18  19
ENDBRANCH  17  18
ENDBRANCH   1  17
TORSDOF 4
ENDMDL
MODEL 9
REMARK VINA RESULT:      -6.0      2.466      4.588
REMARK  Name = 
REMARK  4 active torsions:
REMARK  status: ('A' for Active; 'I' for Inactive)
REMARK    1  A    between atoms: N_2  and  C_4
REMARK    2  A    between atoms: C_4  and  C_5
REMARK    3  A    between atoms: C_5  and  C_6
REMARK    4  A    between atoms: C_6  and  N_7
REMARK                            x       y       z     vdW  Elec       q    Type
REMARK                         _______ _______ _______ _____ _____    ______ ____
ROOT
ATOM      1  N   UNL     1     -11.060  14.565  69.390  0.00  0.00    -0.287 N 
ATOM      2  C   UNL     1     -10.275  13.667  68.596  0.00  0.00    +0.048 A 
ATOM      3  C   UNL     1     -10.699  12.394  68.232  0.00  0.00    -0.008 A 
ATOM      4  C   UNL     1      -9.774  11.634  67.526  0.00  0.00    -0.002 A 
ATOM      5  C   UNL     1      -8.421  11.954  67.573  0.00  0.00    +0.011 A 
ATOM      6  C   UNL     1      -7.971  13.100  68.216  0.00  0.00    +0.059 A 
ATOM      7 CL   UNL     1      -6.348  13.220  68.875  0.00  0.00    -0.082 Cl
ATOM      8  C   UNL     1     -11.840  11.599  68.764  0.00  0.00    +0.032 C 
ATOM      9  C   UNL     1     -11.965  11.713  70.269  0.00  0.00    +0.032 C 
ATOM     10  C   UNL     1     -12.600  13.004  70.678  0.00  0.00    -0.008 A 
ATOM     11  C   UNL     1     -13.124  12.910  71.961  0.00  0.00    -0.003 A 
ATOM     12  C   UNL     1     -13.801  14.043  72.398  0.00  0.00    -0.000 A 
ATOM     13  C   UNL     1     -13.736  15.233  71.686  0.00  0.00    +0.001 A 
ATOM     14  C   UNL     1     -12.702  15.411  70.774  0.00  0.00    +0.015 A 
ATOM     15  C   UNL     1      -8.946  14.058  68.477  0.00  0.00    +0.026 A 
ATOM     16  C   UNL     1     -12.116  14.251  70.306  0.00  0.00    +0.048 A 
ENDROOT
BRANCH   1  17
ATOM     17  C   UNL     1     -10.585  15.921  69.319  0.00  0.00    +0.097 C 
BRANCH  17  18
ATOM     18  C   UNL     1     -11.205  16.628  68.129  0.00  0.00    +0.039 C 
BRANCH  18  19
ATOM     19  C   UNL     1     -10.210  17.533  67.455  0.00  0.00    +0.074 C 
BRANCH  19  21
ATOM     20  C   UNL     1      -9.946  19.679  68.482  0.00  0.00    +0.090 C 
ATOM     21  N   UNL     1     -10.649  18.917  67.477  0.00  0.00    -0.270 NA
ATOM     22  C   UNL     1     -10.485  19.539  66.175  0.00  0.00    +0.090 C 
ENDBRANCH  19  21
ENDBRANCH  18  19
ENDBRANCH  17  18
ENDBRANCH   1  17
TORSDOF 4
ENDMDL
