MODEL 1
REMARK VINA RESULT:      -6.2      0.000      0.000
REMARK  Name = 
REMARK  5 active torsions:
REMARK  status: ('A' for Active; 'I' for Inactive)
REMARK    1  A    between atoms: C_2  and  C_3
REMARK    2  A    between atoms: C_3  and  C_4
REMARK    3  A    between atoms: C_4  and  N_5
REMARK    4  A    between atoms: N_8  and  S_9
REMARK    5  A    between atoms: S_9  and  C_12
REMARK                            x       y       z     vdW  Elec       q    Type
REMARK                         _______ _______ _______ _____ _____    ______ ____
ROOT
ATOM      1  S   UNL     1     -11.660  13.957  65.484  0.00  0.00    +0.104 S 
ATOM      2  O   UNL     1     -13.089  14.121  65.032  0.00  0.00    -0.146 OA
ATOM      3  O   UNL     1     -10.835  13.404  64.368  0.00  0.00    -0.146 OA
ENDROOT
BRANCH   1   4
ATOM      4  C   UNL     1     -11.681  12.826  66.812  0.00  0.00    +0.129 A 
ATOM      5  C   UNL     1     -11.370  11.490  66.589  0.00  0.00    +0.020 A 
ATOM      6  C   UNL     1     -11.026  10.754  67.710  0.00  0.00    -0.003 A 
ATOM      7  C   UNL     1     -11.134  11.267  68.987  0.00  0.00    -0.022 A 
ATOM      8  C   UNL     1     -11.204  10.318  70.142  0.00  0.00    +0.031 C 
ATOM      9  C   UNL     1     -11.523  12.571  69.190  0.00  0.00    -0.003 A 
ATOM     10  C   UNL     1     -11.968  13.274  68.076  0.00  0.00    +0.020 A 
ENDBRANCH   1   4
BRANCH   1  13
ATOM     11  N   UNL     1     -10.327  17.634  65.430  0.00  0.00    -0.184 NA
ATOM     12  C   UNL     1     -10.887  16.392  65.051  0.00  0.00    +0.371 C 
ATOM     13  N   UNL     1     -10.985  15.483  65.962  0.00  0.00    -0.071 NA
ATOM     14  O   UNL     1     -11.654  16.316  63.890  0.00  0.00    -0.244 OA
BRANCH  11  15
ATOM     15  C   UNL     1     -10.330  18.116  66.808  0.00  0.00    +0.117 C 
BRANCH  15  16
ATOM     16  C   UNL     1     -10.707  19.586  66.745  0.00  0.00    +0.023 C 
BRANCH  16  18
ATOM     17  C   UNL     1      -9.386  19.446  68.783  0.00  0.00    +0.000 C 
ATOM     18  C   UNL     1      -9.688  20.343  67.587  0.00  0.00    +0.002 C 
ENDBRANCH  16  18
ENDBRANCH  15  16
ENDBRANCH  11  15
ENDBRANCH   1  13
TORSDOF 5
ENDMDL
MODEL 2
REMARK VINA RESULT:      -6.0      1.525      2.099
REMARK  Name = 
REMARK  5 active torsions:
REMARK  status: ('A' for Active; 'I' for Inactive)
REMARK    1  A    between atoms: C_2  and  C_3
REMARK    2  A    between atoms: C_3  and  C_4
REMARK    3  A    between atoms: C_4  and  N_5
REMARK    4  A    between atoms: N_8  and  S_9
REMARK    5  A    between atoms: S_9  and  C_12
REMARK                            x       y       z     vdW  Elec       q    Type
REMARK                         _______ _______ _______ _____ _____    ______ ____
ROOT
ATOM      1  S   UNL     1     -12.195  13.951  64.919  0.00  0.00    +0.104 S 
ATOM      2  O   UNL     1     -13.573  13.977  65.531  0.00  0.00    -0.146 OA
ATOM      3  O   UNL     1     -12.288  14.201  63.449  0.00  0.00    -0.146 OA
ENDROOT
BRANCH   1   4
ATOM      4  C   UNL     1     -11.552  12.354  65.202  0.00  0.00    +0.129 A 
ATOM      5  C   UNL     1     -11.099  11.590  64.132  0.00  0.00    +0.020 A 
ATOM      6  C   UNL     1     -10.263  10.535  64.454  0.00  0.00    -0.003 A 
ATOM      7  C   UNL     1     -10.016  10.165  65.761  0.00  0.00    -0.022 A 
ATOM      8  C   UNL     1      -9.511   8.785  66.036  0.00  0.00    +0.031 C 
ATOM      9  C   UNL     1     -10.542  10.889  66.806  0.00  0.00    -0.003 A 
ATOM     10  C   UNL     1     -11.463  11.879  66.485  0.00  0.00    +0.020 A 
ENDBRANCH   1   4
BRANCH   1  13
ATOM     11  N   UNL     1     -10.116  17.219  65.466  0.00  0.00    -0.184 NA
ATOM     12  C   UNL     1     -10.949  16.223  64.906  0.00  0.00    +0.371 C 
ATOM     13  N   UNL     1     -11.184  15.175  65.621  0.00  0.00    -0.071 NA
ATOM     14  O   UNL     1     -11.783  16.552  63.838  0.00  0.00    -0.244 OA
BRANCH  11  15
ATOM     15  C   UNL     1      -9.935  17.381  66.906  0.00  0.00    +0.117 C 
BRANCH  15  16
ATOM     16  C   UNL     1     -10.541  18.727  67.262  0.00  0.00    +0.023 C 
BRANCH  16  18
ATOM     17  C   UNL     1      -8.379  19.704  67.803  0.00  0.00    +0.000 C 
ATOM     18  C   UNL     1      -9.545  19.794  66.824  0.00  0.00    +0.002 C 
ENDBRANCH  16  18
ENDBRANCH  15  16
ENDBRANCH  11  15
ENDBRANCH   1  13
TORSDOF 5
ENDMDL
MODEL 3
REMARK VINA RESULT:      -5.9      2.557      3.292
REMARK  Name = 
REMARK  5 active torsions:
REMARK  status: ('A' for Active; 'I' for Inactive)
REMARK    1  A    between atoms: C_2  and  C_3
REMARK    2  A    between atoms: C_3  and  C_4
REMARK    3  A    between atoms: C_4  and  N_5
REMARK    4  A    between atoms: N_8  and  S_9
REMARK    5  A    between atoms: S_9  and  C_12
REMARK                            x       y       z     vdW  Elec       q    Type
REMARK                         _______ _______ _______ _____ _____    ______ ____
ROOT
ATOM      1  S   UNL     1     -10.988  15.028  67.773  0.00  0.00    +0.104 S 
ATOM      2  O   UNL     1     -12.161  14.450  67.022  0.00  0.00    -0.146 OA
ATOM      3  O   UNL     1      -9.760  14.225  67.494  0.00  0.00    -0.146 OA
ENDROOT
BRANCH   1   4
ATOM      4  C   UNL     1     -11.381  14.925  69.470  0.00  0.00    +0.129 A 
ATOM      5  C   UNL     1     -11.158  16.017  70.301  0.00  0.00    +0.020 A 
ATOM      6  C   UNL     1     -11.837  16.009  71.506  0.00  0.00    -0.003 A 
ATOM      7  C   UNL     1     -12.567  14.917  71.931  0.00  0.00    -0.022 A 
ATOM      8  C   UNL     1     -12.876  14.777  73.387  0.00  0.00    +0.031 C 
ATOM      9  C   UNL     1     -12.709  13.811  71.124  0.00  0.00    -0.003 A 
ATOM     10  C   UNL     1     -11.943  13.777  69.965  0.00  0.00    +0.020 A 
ENDBRANCH   1   4
BRANCH   1  13
ATOM     11  N   UNL     1      -9.962  18.187  65.708  0.00  0.00    -0.184 NA
ATOM     12  C   UNL     1     -10.217  16.854  66.105  0.00  0.00    +0.371 C 
ATOM     13  N   UNL     1     -10.693  16.669  67.289  0.00  0.00    -0.071 NA
ATOM     14  O   UNL     1     -10.335  15.864  65.131  0.00  0.00    -0.244 OA
BRANCH  11  15
ATOM     15  C   UNL     1     -10.642  19.334  66.303  0.00  0.00    +0.117 C 
BRANCH  15  16
ATOM     16  C   UNL     1      -9.568  20.148  67.005  0.00  0.00    +0.023 C 
BRANCH  16  18
ATOM     17  C   UNL     1      -8.145  19.143  68.703  0.00  0.00    +0.000 C 
ATOM     18  C   UNL     1      -9.546  19.694  68.459  0.00  0.00    +0.002 C 
ENDBRANCH  16  18
ENDBRANCH  15  16
ENDBRANCH  11  15
ENDBRANCH   1  13
TORSDOF 5
ENDMDL
MODEL 4
REMARK VINA RESULT:      -5.9      3.954      5.015
REMARK  Name = 
REMARK  5 active torsions:
REMARK  status: ('A' for Active; 'I' for Inactive)
REMARK    1  A    between atoms: C_2  and  C_3
REMARK    2  A    between atoms: C_3  and  C_4
REMARK    3  A    between atoms: C_4  and  N_5
REMARK    4  A    between atoms: N_8  and  S_9
REMARK    5  A    between atoms: S_9  and  C_12
REMARK                            x       y       z     vdW  Elec       q    Type
REMARK                         _______ _______ _______ _____ _____    ______ ____
ROOT
ATOM      1  S   UNL     1     -11.200  11.745  68.870  0.00  0.00    +0.104 S 
ATOM      2  O   UNL     1     -12.140  11.381  67.749  0.00  0.00    -0.146 OA
ATOM      3  O   UNL     1      -9.835  12.010  68.323  0.00  0.00    -0.146 OA
ENDROOT
BRANCH   1   4
ATOM      4  C   UNL     1     -11.142  10.370  69.943  0.00  0.00    +0.129 A 
ATOM      5  C   UNL     1      -9.942   9.698  70.144  0.00  0.00    +0.020 A 
ATOM      6  C   UNL     1      -9.880   8.897  71.271  0.00  0.00    -0.003 A 
ATOM      7  C   UNL     1     -10.985   8.654  72.062  0.00  0.00    -0.022 A 
ATOM      8  C   UNL     1     -10.983   7.454  72.955  0.00  0.00    +0.031 C 
ATOM      9  C   UNL     1     -12.188   9.268  71.796  0.00  0.00    -0.003 A 
ATOM     10  C   UNL     1     -12.277   9.986  70.610  0.00  0.00    +0.020 A 
ENDBRANCH   1   4
BRANCH   1  13
ATOM     11  N   UNL     1     -12.074  15.458  69.736  0.00  0.00    -0.184 NA
ATOM     12  C   UNL     1     -11.643  14.291  69.065  0.00  0.00    +0.371 C 
ATOM     13  N   UNL     1     -11.746  13.171  69.697  0.00  0.00    -0.071 NA
ATOM     14  O   UNL     1     -11.513  14.310  67.677  0.00  0.00    -0.244 OA
BRANCH  11  15
ATOM     15  C   UNL     1     -13.049  15.431  70.822  0.00  0.00    +0.117 C 
BRANCH  15  16
ATOM     16  C   UNL     1     -12.322  15.930  72.059  0.00  0.00    +0.023 C 
BRANCH  16  18
ATOM     17  C   UNL     1     -12.445  15.596  74.466  0.00  0.00    +0.000 C 
ATOM     18  C   UNL     1     -13.299  15.819  73.223  0.00  0.00    +0.002 C 
ENDBRANCH  16  18
ENDBRANCH  15  16
ENDBRANCH  11  15
ENDBRANCH   1  13
TORSDOF 5
ENDMDL
MODEL 5
REMARK VINA RESULT:      -5.8      3.063      5.360
REMARK  Name = 
REMARK  5 active torsions:
REMARK  status: ('A' for Active; 'I' for Inactive)
REMARK    1  A    between atoms: C_2  and  C_3
REMARK    2  A    between atoms: C_3  and  C_4
REMARK    3  A    between atoms: C_4  and  N_5
REMARK    4  A    between atoms: N_8  and  S_9
REMARK    5  A    between atoms: S_9  and  C_12
REMARK                            x       y       z     vdW  Elec       q    Type
REMARK                         _______ _______ _______ _____ _____    ______ ____
ROOT
ATOM      1  S   UNL     1     -10.644  15.413  67.697  0.00  0.00    +0.104 S 
ATOM      2  O   UNL     1      -9.184  15.038  67.653  0.00  0.00    -0.146 OA
ATOM      3  O   UNL     1     -10.807  16.857  67.352  0.00  0.00    -0.146 OA
ENDROOT
BRANCH   1   4
ATOM      4  C   UNL     1     -11.184  15.139  69.333  0.00  0.00    +0.129 A 
ATOM      5  C   UNL     1     -11.105  16.162  70.270  0.00  0.00    +0.020 A 
ATOM      6  C   UNL     1     -11.891  16.010  71.399  0.00  0.00    -0.003 A 
ATOM      7  C   UNL     1     -12.589  14.848  71.657  0.00  0.00    -0.022 A 
ATOM      8  C   UNL     1     -13.022  14.563  73.060  0.00  0.00    +0.031 C 
ATOM      9  C   UNL     1     -12.588  13.812  70.751  0.00  0.00    -0.003 A 
ATOM     10  C   UNL     1     -11.718  13.922  69.673  0.00  0.00    +0.020 A 
ENDBRANCH   1   4
BRANCH   1  13
ATOM     11  N   UNL     1     -12.303  14.109  64.403  0.00  0.00    -0.184 NA
ATOM     12  C   UNL     1     -11.551  14.864  65.332  0.00  0.00    +0.371 C 
ATOM     13  N   UNL     1     -11.558  14.471  66.561  0.00  0.00    -0.071 NA
ATOM     14  O   UNL     1     -10.549  15.714  64.868  0.00  0.00    -0.244 OA
BRANCH  11  15
ATOM     15  C   UNL     1     -12.645  12.706  64.617  0.00  0.00    +0.117 C 
BRANCH  15  16
ATOM     16  C   UNL     1     -12.228  11.969  63.356  0.00  0.00    +0.023 C 
BRANCH  16  18
ATOM     17  C   UNL     1     -10.510  11.046  64.810  0.00  0.00    +0.000 C 
ATOM     18  C   UNL     1     -10.728  11.722  63.461  0.00  0.00    +0.002 C 
ENDBRANCH  16  18
ENDBRANCH  15  16
ENDBRANCH  11  15
ENDBRANCH   1  13
TORSDOF 5
ENDMDL
MODEL 6
REMARK VINA RESULT:      -5.7      3.392      4.534
REMARK  Name = 
REMARK  5 active torsions:
REMARK  status: ('A' for Active; 'I' for Inactive)
REMARK    1  A    between atoms: C_2  and  C_3
REMARK    2  A    between atoms: C_3  and  C_4
REMARK    3  A    between atoms: C_4  and  N_5
REMARK    4  A    between atoms: N_8  and  S_9
REMARK    5  A    between atoms: S_9  and  C_12
REMARK                            x       y       z     vdW  Elec       q    Type
REMARK                         _______ _______ _______ _____ _____    ______ ____
ROOT
ATOM      1  S   UNL     1     -11.242  13.965  67.546  0.00  0.00    +0.104 S 
ATOM      2  O   UNL     1     -11.967  14.548  66.359  0.00  0.00    -0.146 OA
ATOM      3  O   UNL     1      -9.853  14.514  67.612  0.00  0.00    -0.146 OA
ENDROOT
BRANCH   1   4
ATOM      4  C   UNL     1     -11.176  12.240  67.295  0.00  0.00    +0.129 A 
ATOM      5  C   UNL     1     -10.685  11.731  66.098  0.00  0.00    +0.020 A 
ATOM      6  C   UNL     1     -10.300  10.402  66.119  0.00  0.00    -0.003 A 
ATOM      7  C   UNL     1     -10.533   9.587  67.208  0.00  0.00    -0.022 A 
ATOM      8  C   UNL     1     -10.532   8.104  67.013  0.00  0.00    +0.031 C 
ATOM      9  C   UNL     1     -11.096  10.093  68.357  0.00  0.00    -0.003 A 
ATOM     10  C   UNL     1     -11.577  11.396  68.299  0.00  0.00    +0.020 A 
ENDBRANCH   1   4
BRANCH   1  13
ATOM     11  N   UNL     1     -12.579  15.892  70.676  0.00  0.00    -0.184 NA
ATOM     12  C   UNL     1     -11.926  15.566  69.465  0.00  0.00    +0.371 C 
ATOM     13  N   UNL     1     -12.059  14.360  69.025  0.00  0.00    -0.071 NA
ATOM     14  O   UNL     1     -11.524  16.591  68.610  0.00  0.00    -0.244 OA
BRANCH  11  15
ATOM     15  C   UNL     1     -13.746  15.164  71.166  0.00  0.00    +0.117 C 
BRANCH  15  16
ATOM     16  C   UNL     1     -13.801  15.407  72.665  0.00  0.00    +0.023 C 
BRANCH  16  18
ATOM     17  C   UNL     1     -12.432  15.778  74.642  0.00  0.00    +0.000 C 
ATOM     18  C   UNL     1     -12.365  15.369  73.174  0.00  0.00    +0.002 C 
ENDBRANCH  16  18
ENDBRANCH  15  16
ENDBRANCH  11  15
ENDBRANCH   1  13
TORSDOF 5
ENDMDL
MODEL 7
REMARK VINA RESULT:      -5.7      1.365      2.070
REMARK  Name = 
REMARK  5 active torsions:
REMARK  status: ('A' for Active; 'I' for Inactive)
REMARK    1  A    between atoms: C_2  and  C_3
REMARK    2  A    between atoms: C_3  and  C_4
REMARK    3  A    between atoms: C_4  and  N_5
REMARK    4  A    between atoms: N_8  and  S_9
REMARK    5  A    between atoms: S_9  and  C_12
REMARK                            x       y       z     vdW  Elec       q    Type
REMARK                         _______ _______ _______ _____ _____    ______ ____
ROOT
ATOM      1  S   UNL     1     -11.542  12.937  64.933  0.00  0.00    +0.104 S 
ATOM      2  O   UNL     1     -13.047  12.926  65.026  0.00  0.00    -0.146 OA
ATOM      3  O   UNL     1     -11.118  12.673  63.525  0.00  0.00    -0.146 OA
ENDROOT
BRANCH   1   4
ATOM      4  C   UNL     1     -10.966  11.654  65.966  0.00  0.00    +0.129 A 
ATOM      5  C   UNL     1     -11.348  11.616  67.302  0.00  0.00    +0.020 A 
ATOM      6  C   UNL     1     -11.188  10.399  67.942  0.00  0.00    -0.003 A 
ATOM      7  C   UNL     1     -10.547   9.333  67.344  0.00  0.00    -0.022 A 
ATOM      8  C   UNL     1     -10.000   8.243  68.209  0.00  0.00    +0.031 C 
ATOM      9  C   UNL     1     -10.104   9.420  66.044  0.00  0.00    -0.003 A 
ATOM     10  C   UNL     1     -10.169  10.670  65.441  0.00  0.00    +0.020 A 
ENDBRANCH   1   4
BRANCH   1  13
ATOM     11  N   UNL     1     -10.698  16.754  65.079  0.00  0.00    -0.184 NA
ATOM     12  C   UNL     1     -11.224  15.498  64.697  0.00  0.00    +0.371 C 
ATOM     13  N   UNL     1     -10.904  14.477  65.419  0.00  0.00    -0.071 NA
ATOM     14  O   UNL     1     -12.334  15.450  63.857  0.00  0.00    -0.244 OA
BRANCH  11  15
ATOM     15  C   UNL     1     -10.272  17.051  66.444  0.00  0.00    +0.117 C 
BRANCH  15  16
ATOM     16  C   UNL     1      -9.167  18.087  66.329  0.00  0.00    +0.023 C 
BRANCH  16  18
ATOM     17  C   UNL     1     -10.272  19.634  67.847  0.00  0.00    +0.000 C 
ATOM     18  C   UNL     1      -9.833  19.456  66.397  0.00  0.00    +0.002 C 
ENDBRANCH  16  18
ENDBRANCH  15  16
ENDBRANCH  11  15
ENDBRANCH   1  13
TORSDOF 5
ENDMDL
MODEL 8
REMARK VINA RESULT:      -5.7      2.031      3.069
REMARK  Name = 
REMARK  5 active torsions:
REMARK  status: ('A' for Active; 'I' for Inactive)
REMARK    1  A    between atoms: C_2  and  C_3
REMARK    2  A    between atoms: C_3  and  C_4
REMARK    3  A    between atoms: C_4  and  N_5
REMARK    4  A    between atoms: N_8  and  S_9
REMARK    5  A    between atoms: S_9  and  C_12
REMARK                            x       y       z     vdW  Elec       q    Type
REMARK                         _______ _______ _______ _____ _____    ______ ____
ROOT
ATOM      1  S   UNL     1     -11.863  13.698  66.084  0.00  0.00    +0.104 S 
ATOM      2  O   UNL     1     -12.175  13.095  67.430  0.00  0.00    -0.146 OA
ATOM      3  O   UNL     1     -13.127  13.909  65.316  0.00  0.00    -0.146 OA
ENDROOT
BRANCH   1   4
ATOM      4  C   UNL     1     -10.854  12.550  65.242  0.00  0.00    +0.129 A 
ATOM      5  C   UNL     1      -9.992  11.728  65.960  0.00  0.00    +0.020 A 
ATOM      6  C   UNL     1      -9.532  10.605  65.293  0.00  0.00    -0.003 A 
ATOM      7  C   UNL     1      -9.783  10.393  63.953  0.00  0.00    -0.022 A 
ATOM      8  C   UNL     1      -8.903   9.451  63.195  0.00  0.00    +0.031 C 
ATOM      9  C   UNL     1     -10.574  11.264  63.239  0.00  0.00    -0.003 A 
ATOM     10  C   UNL     1     -10.947  12.441  63.878  0.00  0.00    +0.020 A 
ENDBRANCH   1   4
BRANCH   1  13
ATOM     11  N   UNL     1     -10.319  17.215  65.343  0.00  0.00    -0.184 NA
ATOM     12  C   UNL     1     -10.977  15.970  65.209  0.00  0.00    +0.371 C 
ATOM     13  N   UNL     1     -11.066  15.230  66.262  0.00  0.00    -0.071 NA
ATOM     14  O   UNL     1     -11.825  15.761  64.122  0.00  0.00    -0.244 OA
BRANCH  11  15
ATOM     15  C   UNL     1     -10.199  17.913  66.620  0.00  0.00    +0.117 C 
BRANCH  15  16
ATOM     16  C   UNL     1     -10.458  19.381  66.329  0.00  0.00    +0.023 C 
BRANCH  16  18
ATOM     17  C   UNL     1      -9.638  19.112  68.604  0.00  0.00    +0.000 C 
ATOM     18  C   UNL     1     -10.070  20.157  67.581  0.00  0.00    +0.002 C 
ENDBRANCH  16  18
ENDBRANCH  15  16
ENDBRANCH  11  15
ENDBRANCH   1  13
TORSDOF 5
ENDMDL
MODEL 9
REMARK VINA RESULT:      -5.6      3.830      5.336
REMARK  Name = 
REMARK  5 active torsions:
REMARK  status: ('A' for Active; 'I' for Inactive)
REMARK    1  A    between atoms: C_2  and  C_3
REMARK    2  A    between atoms: C_3  and  C_4
REMARK    3  A    between atoms: C_4  and  N_5
REMARK    4  A    between atoms: N_8  and  S_9
REMARK    5  A    between atoms: S_9  and  C_12
REMARK                            x       y       z     vdW  Elec       q    Type
REMARK                         _______ _______ _______ _____ _____    ______ ____
ROOT
ATOM      1  S   UNL     1     -11.374  12.714  68.528  0.00  0.00    +0.104 S 
ATOM      2  O   UNL     1      -9.931  13.148  68.473  0.00  0.00    -0.146 OA
ATOM      3  O   UNL     1     -12.195  13.766  69.199  0.00  0.00    -0.146 OA
ENDROOT
BRANCH   1   4
ATOM      4  C   UNL     1     -11.421  11.246  69.471  0.00  0.00    +0.129 A 
ATOM      5  C   UNL     1     -10.337  10.377  69.454  0.00  0.00    +0.020 A 
ATOM      6  C   UNL     1     -10.275   9.467  70.496  0.00  0.00    -0.003 A 
ATOM      7  C   UNL     1     -11.301   9.324  71.408  0.00  0.00    -0.022 A 
ATOM      8  C   UNL     1     -11.395   8.056  72.195  0.00  0.00    +0.031 C 
ATOM      9  C   UNL     1     -12.405  10.144  71.357  0.00  0.00    -0.003 A 
ATOM     10  C   UNL     1     -12.515  10.982  70.254  0.00  0.00    +0.020 A 
ENDBRANCH   1   4
BRANCH   1  13
ATOM     11  N   UNL     1     -12.773  13.314  64.925  0.00  0.00    -0.184 NA
ATOM     12  C   UNL     1     -12.248  13.512  66.223  0.00  0.00    +0.371 C 
ATOM     13  N   UNL     1     -12.004  12.461  66.931  0.00  0.00    -0.071 NA
ATOM     14  O   UNL     1     -11.651  14.731  66.539  0.00  0.00    -0.244 OA
BRANCH  11  15
ATOM     15  C   UNL     1     -12.584  12.076  64.175  0.00  0.00    +0.117 C 
BRANCH  15  16
ATOM     16  C   UNL     1     -11.265  12.223  63.436  0.00  0.00    +0.023 C 
BRANCH  16  18
ATOM     17  C   UNL     1      -9.360  10.894  62.713  0.00  0.00    +0.000 C 
ATOM     18  C   UNL     1     -10.407  11.021  63.813  0.00  0.00    +0.002 C 
ENDBRANCH  16  18
ENDBRANCH  15  16
ENDBRANCH  11  15
ENDBRANCH   1  13
TORSDOF 5
ENDMDL
