MODEL 1
REMARK VINA RESULT:      -8.5      0.000      0.000
REMARK  Name = 
REMARK  2 active torsions:
REMARK  status: ('A' for Active; 'I' for Inactive)
REMARK    1  A    between atoms: C_2  and  S_4
REMARK    2  A    between atoms: S_4  and  C_5
REMARK                            x       y       z     vdW  Elec       q    Type
REMARK                         _______ _______ _______ _____ _____    ______ ____
ROOT
ATOM      1  C   UNL     1     -11.678  15.974  68.475  0.00  0.00    +0.059 C 
ATOM      2  C   UNL     1     -10.560  16.371  67.332  0.00  0.00    +0.011 C 
ATOM      3  C   UNL     1      -9.651  14.964  67.471  0.00  0.00    +0.004 C 
ATOM      4  C   UNL     1      -8.411  15.493  66.584  0.00  0.00    +0.000 C 
ATOM      5  C   UNL     1      -7.963  16.811  66.837  0.00  0.00    +0.003 C 
ATOM      6  C   UNL     1      -8.796  17.919  67.197  0.00  0.00    +0.034 C 
ATOM      7  C   UNL     1      -8.275  19.074  67.938  0.00  0.00    +0.136 C 
ATOM      8  O   UNL     1      -7.774  20.025  67.001  0.00  0.00    -0.456 OA
ATOM      9  C   UNL     1      -6.706  20.724  67.541  0.00  0.00    +0.317 C 
ATOM     10  O   UNL     1      -5.978  21.553  66.915  0.00  0.00    -0.250 OA
ATOM     11  C   UNL     1      -6.512  20.227  68.940  0.00  0.00    +0.113 C 
ATOM     12  C   UNL     1      -7.146  18.842  68.875  0.00  0.00    +0.052 C 
ATOM     13  C   UNL     1      -9.533  19.598  68.619  0.00  0.00    +0.040 C 
ATOM     14  C   UNL     1     -10.604  18.525  68.440  0.00  0.00    +0.004 C 
ATOM     15  C   UNL     1      -9.778  18.464  66.212  0.00  0.00    +0.003 C 
ATOM     16  C   UNL     1     -10.400  14.279  66.209  0.00  0.00    +0.016 C 
ATOM     17  C   UNL     1     -11.864  14.462  66.484  0.00  0.00    -0.041 C 
ATOM     18  C   UNL     1     -12.624  13.718  65.678  0.00  0.00    +0.029 C 
ATOM     19  C   UNL     1     -11.906  13.051  64.582  0.00  0.00    +0.173 C 
ATOM     20  C   UNL     1     -10.624  12.326  64.860  0.00  0.00    +0.069 C 
ATOM     21  O   UNL     1     -12.450  12.860  63.453  0.00  0.00    -0.291 OA
ATOM     22  C   UNL     1     -10.072  14.907  64.935  0.00  0.00    +0.004 C 
ATOM     23  C   UNL     1     -10.057  12.828  66.184  0.00  0.00    +0.012 C 
ATOM     24  C   UNL     1      -9.619  17.241  68.415  0.00  0.00    +0.004 C 
ATOM     25  C   UNL     1     -12.105  14.558  67.932  0.00  0.00    +0.033 C 
ENDROOT
BRANCH   1  26
ATOM     26  S   UNL     1     -10.540  15.414  69.880  0.00  0.00    -0.078 S 
BRANCH  26  28
ATOM     27  C   UNL     1     -11.380  15.085  71.782  0.00  0.00    +0.085 C 
ATOM     28  C   UNL     1     -11.374  15.374  71.437  0.00  0.00    +0.199 C 
ATOM     29  O   UNL     1     -12.241  16.216  71.662  0.00  0.00    -0.285 OA
ENDBRANCH  26  28
ENDBRANCH   1  26
TORSDOF 2
ENDMDL
MODEL 2
REMARK VINA RESULT:      -7.3      1.582      1.829
REMARK  Name = 
REMARK  2 active torsions:
REMARK  status: ('A' for Active; 'I' for Inactive)
REMARK    1  A    between atoms: C_2  and  S_4
REMARK    2  A    between atoms: S_4  and  C_5
REMARK                            x       y       z     vdW  Elec       q    Type
REMARK                         _______ _______ _______ _____ _____    ______ ____
ROOT
ATOM      1  C   UNL     1     -11.672  15.368  68.585  0.00  0.00    +0.059 C 
ATOM      2  C   UNL     1     -10.364  15.400  67.584  0.00  0.00    +0.011 C 
ATOM      3  C   UNL     1      -9.368  14.459  68.558  0.00  0.00    +0.004 C 
ATOM      4  C   UNL     1      -8.016  14.753  67.725  0.00  0.00    +0.000 C 
ATOM      5  C   UNL     1      -7.787  16.092  67.335  0.00  0.00    +0.003 C 
ATOM      6  C   UNL     1      -8.796  17.032  66.948  0.00  0.00    +0.034 C 
ATOM      7  C   UNL     1      -8.594  18.481  67.066  0.00  0.00    +0.136 C 
ATOM      8  O   UNL     1      -7.990  18.953  65.863  0.00  0.00    -0.456 OA
ATOM      9  C   UNL     1      -7.163  20.034  66.126  0.00  0.00    +0.317 C 
ATOM     10  O   UNL     1      -6.401  20.598  65.283  0.00  0.00    -0.250 OA
ATOM     11  C   UNL     1      -7.256  20.317  67.593  0.00  0.00    +0.113 C 
ATOM     12  C   UNL     1      -7.702  18.970  68.149  0.00  0.00    +0.052 C 
ATOM     13  C   UNL     1     -10.027  18.985  67.183  0.00  0.00    +0.040 C 
ATOM     14  C   UNL     1     -10.903  17.757  67.416  0.00  0.00    +0.004 C 
ATOM     15  C   UNL     1      -9.568  16.819  65.687  0.00  0.00    +0.003 C 
ATOM     16  C   UNL     1      -9.717  13.114  67.726  0.00  0.00    +0.016 C 
ATOM     17  C   UNL     1     -11.215  13.091  67.642  0.00  0.00    -0.041 C 
ATOM     18  C   UNL     1     -11.676  11.910  67.224  0.00  0.00    +0.029 C 
ATOM     19  C   UNL     1     -10.649  10.972  66.746  0.00  0.00    +0.173 C 
ATOM     20  C   UNL     1      -9.401  10.759  67.546  0.00  0.00    +0.069 C 
ATOM     21  O   UNL     1     -10.885  10.155  65.806  0.00  0.00    -0.291 OA
ATOM     22  C   UNL     1      -9.164  13.114  66.377  0.00  0.00    +0.004 C 
ATOM     23  C   UNL     1      -9.223  11.938  68.496  0.00  0.00    +0.012 C 
ATOM     24  C   UNL     1      -9.808  16.859  68.200  0.00  0.00    +0.004 C 
ATOM     25  C   UNL     1     -11.802  13.810  68.783  0.00  0.00    +0.033 C 
ENDROOT
BRANCH   1  26
ATOM     26  S   UNL     1     -10.849  15.801  70.233  0.00  0.00    -0.078 S 
BRANCH  26  28
ATOM     27  C   UNL     1     -11.993  16.003  71.987  0.00  0.00    +0.085 C 
ATOM     28  C   UNL     1     -12.024  15.974  71.540  0.00  0.00    +0.199 C 
ATOM     29  O   UNL     1     -13.220  15.879  71.272  0.00  0.00    -0.285 OA
ENDBRANCH  26  28
ENDBRANCH   1  26
TORSDOF 2
ENDMDL
MODEL 3
REMARK VINA RESULT:      -7.3      2.651      6.952
REMARK  Name = 
REMARK  2 active torsions:
REMARK  status: ('A' for Active; 'I' for Inactive)
REMARK    1  A    between atoms: C_2  and  S_4
REMARK    2  A    between atoms: S_4  and  C_5
REMARK                            x       y       z     vdW  Elec       q    Type
REMARK                         _______ _______ _______ _____ _____    ______ ____
ROOT
ATOM      1  C   UNL     1      -8.475  18.737  68.399  0.00  0.00    +0.059 C 
ATOM      2  C   UNL     1      -8.090  17.138  68.503  0.00  0.00    +0.011 C 
ATOM      3  C   UNL     1      -7.048  17.116  67.185  0.00  0.00    +0.004 C 
ATOM      4  C   UNL     1      -6.923  15.509  67.113  0.00  0.00    +0.000 C 
ATOM      5  C   UNL     1      -8.122  14.770  67.249  0.00  0.00    +0.003 C 
ATOM      6  C   UNL     1      -9.228  15.123  68.087  0.00  0.00    +0.034 C 
ATOM      7  C   UNL     1     -10.592  14.656  67.810  0.00  0.00    +0.136 C 
ATOM      8  O   UNL     1     -10.778  13.397  68.452  0.00  0.00    -0.456 OA
ATOM      9  C   UNL     1     -11.654  12.605  67.725  0.00  0.00    +0.317 C 
ATOM     10  O   UNL     1     -11.928  11.393  67.977  0.00  0.00    -0.250 OA
ATOM     11  C   UNL     1     -12.103  13.409  66.545  0.00  0.00    +0.113 C 
ATOM     12  C   UNL     1     -10.966  14.413  66.393  0.00  0.00    +0.052 C 
ATOM     13  C   UNL     1     -11.431  15.734  68.485  0.00  0.00    +0.040 C 
ATOM     14  C   UNL     1     -10.477  16.874  68.833  0.00  0.00    +0.004 C 
ATOM     15  C   UNL     1      -9.073  15.104  69.572  0.00  0.00    +0.003 C 
ATOM     16  C   UNL     1      -5.745  17.283  68.132  0.00  0.00    +0.016 C 
ATOM     17  C   UNL     1      -6.068  18.438  69.033  0.00  0.00    -0.041 C 
ATOM     18  C   UNL     1      -4.994  18.879  69.691  0.00  0.00    +0.029 C 
ATOM     19  C   UNL     1      -3.794  18.038  69.562  0.00  0.00    +0.173 C 
ATOM     20  C   UNL     1      -3.376  17.534  68.215  0.00  0.00    +0.069 C 
ATOM     21  O   UNL     1      -2.963  17.921  70.512  0.00  0.00    -0.291 OA
ATOM     22  C   UNL     1      -5.472  16.104  68.946  0.00  0.00    +0.004 C 
ATOM     23  C   UNL     1      -4.572  17.611  67.272  0.00  0.00    +0.012 C 
ATOM     24  C   UNL     1      -9.432  16.659  67.616  0.00  0.00    +0.004 C 
ATOM     25  C   UNL     1      -7.022  19.346  68.378  0.00  0.00    +0.033 C 
ENDROOT
BRANCH   1  26
ATOM     26  S   UNL     1      -8.871  18.870  66.554  0.00  0.00    -0.078 S 
BRANCH  26  28
ATOM     27  C   UNL     1     -10.581  19.921  65.922  0.00  0.00    +0.085 C 
ATOM     28  C   UNL     1     -10.415  19.676  66.260  0.00  0.00    +0.199 C 
ATOM     29  O   UNL     1     -11.232  19.734  67.177  0.00  0.00    -0.285 OA
ENDBRANCH  26  28
ENDBRANCH   1  26
TORSDOF 2
ENDMDL
MODEL 4
REMARK VINA RESULT:      -7.1      2.938      7.200
REMARK  Name = 
REMARK  2 active torsions:
REMARK  status: ('A' for Active; 'I' for Inactive)
REMARK    1  A    between atoms: C_2  and  S_4
REMARK    2  A    between atoms: S_4  and  C_5
REMARK                            x       y       z     vdW  Elec       q    Type
REMARK                         _______ _______ _______ _____ _____    ______ ____
ROOT
ATOM      1  C   UNL     1     -11.381  14.614  65.721  0.00  0.00    +0.059 C 
ATOM      2  C   UNL     1     -10.513  14.368  67.099  0.00  0.00    +0.011 C 
ATOM      3  C   UNL     1      -9.000  14.600  66.405  0.00  0.00    +0.004 C 
ATOM      4  C   UNL     1      -8.163  14.061  67.675  0.00  0.00    +0.000 C 
ATOM      5  C   UNL     1      -8.631  12.878  68.291  0.00  0.00    +0.003 C 
ATOM      6  C   UNL     1     -10.006  12.501  68.435  0.00  0.00    +0.034 C 
ATOM      7  C   UNL     1     -10.415  11.099  68.583  0.00  0.00    +0.136 C 
ATOM      8  O   UNL     1     -10.397  10.766  69.969  0.00  0.00    -0.456 OA
ATOM      9  C   UNL     1     -10.070   9.430  70.145  0.00  0.00    +0.317 C 
ATOM     10  O   UNL     1      -9.862   8.866  71.261  0.00  0.00    -0.250 OA
ATOM     11  C   UNL     1      -9.897   8.834  68.783  0.00  0.00    +0.113 C 
ATOM     12  C   UNL     1      -9.572  10.060  67.937  0.00  0.00    +0.052 C 
ATOM     13  C   UNL     1     -11.844  11.137  68.056  0.00  0.00    +0.040 C 
ATOM     14  C   UNL     1     -12.024  12.495  67.382  0.00  0.00    +0.004 C 
ATOM     15  C   UNL     1     -10.907  13.295  69.322  0.00  0.00    +0.003 C 
ATOM     16  C   UNL     1      -8.945  16.145  66.887  0.00  0.00    +0.016 C 
ATOM     17  C   UNL     1     -10.257  16.731  66.456  0.00  0.00    -0.041 C 
ATOM     18  C   UNL     1     -10.264  18.063  66.536  0.00  0.00    +0.029 C 
ATOM     19  C   UNL     1      -9.095  18.654  67.205  0.00  0.00    +0.173 C 
ATOM     20  C   UNL     1      -7.717  18.188  66.853  0.00  0.00    +0.069 C 
ATOM     21  O   UNL     1      -9.194  19.713  67.896  0.00  0.00    -0.291 OA
ATOM     22  C   UNL     1      -8.808  16.291  68.331  0.00  0.00    +0.004 C 
ATOM     23  C   UNL     1      -7.820  16.823  66.181  0.00  0.00    +0.012 C 
ATOM     24  C   UNL     1     -10.492  12.702  66.904  0.00  0.00    +0.004 C 
ATOM     25  C   UNL     1     -10.783  16.006  65.289  0.00  0.00    +0.033 C 
ENDROOT
BRANCH   1  26
ATOM     26  S   UNL     1     -10.430  13.504  64.519  0.00  0.00    -0.078 S 
BRANCH  26  28
ATOM     27  C   UNL     1     -11.458  12.096  63.341  0.00  0.00    +0.085 C 
ATOM     28  C   UNL     1     -11.507  12.487  63.558  0.00  0.00    +0.199 C 
ATOM     29  O   UNL     1     -12.618  12.922  63.261  0.00  0.00    -0.285 OA
ENDBRANCH  26  28
ENDBRANCH   1  26
TORSDOF 2
ENDMDL
MODEL 5
REMARK VINA RESULT:      -7.1      2.792      7.904
REMARK  Name = 
REMARK  2 active torsions:
REMARK  status: ('A' for Active; 'I' for Inactive)
REMARK    1  A    between atoms: C_2  and  S_4
REMARK    2  A    between atoms: S_4  and  C_5
REMARK                            x       y       z     vdW  Elec       q    Type
REMARK                         _______ _______ _______ _____ _____    ______ ____
ROOT
ATOM      1  C   UNL     1      -6.977  20.458  66.836  0.00  0.00    +0.059 C 
ATOM      2  C   UNL     1      -7.310  19.165  67.800  0.00  0.00    +0.011 C 
ATOM      3  C   UNL     1      -5.825  18.403  67.601  0.00  0.00    +0.004 C 
ATOM      4  C   UNL     1      -6.271  17.013  68.290  0.00  0.00    +0.000 C 
ATOM      5  C   UNL     1      -7.536  16.498  67.923  0.00  0.00    +0.003 C 
ATOM      6  C   UNL     1      -8.701  17.277  67.631  0.00  0.00    +0.034 C 
ATOM      7  C   UNL     1      -9.782  16.769  66.778  0.00  0.00    +0.136 C 
ATOM      8  O   UNL     1     -10.714  16.068  67.598  0.00  0.00    -0.456 OA
ATOM      9  C   UNL     1     -11.300  15.030  66.890  0.00  0.00    +0.317 C 
ATOM     10  O   UNL     1     -12.080  14.157  67.377  0.00  0.00    -0.250 OA
ATOM     11  C   UNL     1     -10.745  15.072  65.501  0.00  0.00    +0.113 C 
ATOM     12  C   UNL     1      -9.423  15.803  65.709  0.00  0.00    +0.052 C 
ATOM     13  C   UNL     1     -10.393  18.061  66.251  0.00  0.00    +0.040 C 
ATOM     14  C   UNL     1      -9.425  19.183  66.617  0.00  0.00    +0.004 C 
ATOM     15  C   UNL     1      -9.360  18.066  68.715  0.00  0.00    +0.003 C 
ATOM     16  C   UNL     1      -5.248  19.026  68.980  0.00  0.00    +0.016 C 
ATOM     17  C   UNL     1      -5.551  20.493  68.896  0.00  0.00    -0.041 C 
ATOM     18  C   UNL     1      -4.901  21.195  69.828  0.00  0.00    +0.029 C 
ATOM     19  C   UNL     1      -4.208  20.390  70.845  0.00  0.00    +0.173 C 
ATOM     20  C   UNL     1      -3.365  19.223  70.429  0.00  0.00    +0.069 C 
ATOM     21  O   UNL     1      -4.100  20.788  72.044  0.00  0.00    -0.291 OA
ATOM     22  C   UNL     1      -5.884  18.475  70.170  0.00  0.00    +0.004 C 
ATOM     23  C   UNL     1      -3.774  18.804  69.021  0.00  0.00    +0.012 C 
ATOM     24  C   UNL     1      -8.061  18.314  66.565  0.00  0.00    +0.004 C 
ATOM     25  C   UNL     1      -5.621  20.922  67.491  0.00  0.00    +0.033 C 
ENDROOT
BRANCH   1  26
ATOM     26  S   UNL     1      -6.277  19.575  65.316  0.00  0.00    -0.078 S 
BRANCH  26  28
ATOM     27  C   UNL     1      -6.127  20.823  63.628  0.00  0.00    +0.085 C 
ATOM     28  C   UNL     1      -5.911  20.697  64.002  0.00  0.00    +0.199 C 
ATOM     29  O   UNL     1      -4.790  21.200  63.952  0.00  0.00    -0.285 OA
ENDBRANCH  26  28
ENDBRANCH   1  26
TORSDOF 2
ENDMDL
MODEL 6
REMARK VINA RESULT:      -7.0      1.996      4.927
REMARK  Name = 
REMARK  2 active torsions:
REMARK  status: ('A' for Active; 'I' for Inactive)
REMARK    1  A    between atoms: C_2  and  S_4
REMARK    2  A    between atoms: S_4  and  C_5
REMARK                            x       y       z     vdW  Elec       q    Type
REMARK                         _______ _______ _______ _____ _____    ______ ____
ROOT
ATOM      1  C   UNL     1     -10.616  13.315  67.820  0.00  0.00    +0.059 C 
ATOM      2  C   UNL     1     -10.080  14.595  68.708  0.00  0.00    +0.011 C 
ATOM      3  C   UNL     1     -11.475  15.519  68.555  0.00  0.00    +0.004 C 
ATOM      4  C   UNL     1     -10.832  16.871  69.157  0.00  0.00    +0.000 C 
ATOM      5  C   UNL     1      -9.540  17.220  68.702  0.00  0.00    +0.003 C 
ATOM      6  C   UNL     1      -8.491  16.297  68.383  0.00  0.00    +0.034 C 
ATOM      7  C   UNL     1      -7.410  16.642  67.452  0.00  0.00    +0.136 C 
ATOM      8  O   UNL     1      -6.357  17.258  68.190  0.00  0.00    -0.456 OA
ATOM      9  C   UNL     1      -5.696  18.192  67.407  0.00  0.00    +0.317 C 
ATOM     10  O   UNL     1      -4.793  18.984  67.813  0.00  0.00    -0.250 OA
ATOM     11  C   UNL     1      -6.333  18.164  66.052  0.00  0.00    +0.113 C 
ATOM     12  C   UNL     1      -7.716  17.603  66.362  0.00  0.00    +0.052 C 
ATOM     13  C   UNL     1      -6.984  15.267  66.950  0.00  0.00    +0.040 C 
ATOM     14  C   UNL     1      -8.054  14.283  67.416  0.00  0.00    +0.004 C 
ATOM     15  C   UNL     1      -7.867  15.477  69.464  0.00  0.00    +0.003 C 
ATOM     16  C   UNL     1     -12.040  15.021  69.988  0.00  0.00    +0.016 C 
ATOM     17  C   UNL     1     -11.915  13.526  69.953  0.00  0.00    -0.041 C 
ATOM     18  C   UNL     1     -12.587  12.942  70.948  0.00  0.00    +0.029 C 
ATOM     19  C   UNL     1     -13.122  13.860  71.964  0.00  0.00    +0.173 C 
ATOM     20  C   UNL     1     -13.846  15.102  71.542  0.00  0.00    +0.069 C 
ATOM     21  O   UNL     1     -13.206  13.523  73.183  0.00  0.00    -0.291 OA
ATOM     22  C   UNL     1     -11.277  15.537  71.117  0.00  0.00    +0.004 C 
ATOM     23  C   UNL     1     -13.473  15.417  70.097  0.00  0.00    +0.012 C 
ATOM     24  C   UNL     1      -9.308  15.305  67.398  0.00  0.00    +0.004 C 
ATOM     25  C   UNL     1     -11.976  13.040  68.566  0.00  0.00    +0.033 C 
ENDROOT
BRANCH   1  26
ATOM     26  S   UNL     1     -11.296  14.217  66.302  0.00  0.00    -0.078 S 
BRANCH  26  28
ATOM     27  C   UNL     1     -11.603  12.935  64.662  0.00  0.00    +0.085 C 
ATOM     28  C   UNL     1     -11.799  13.099  65.032  0.00  0.00    +0.199 C 
ATOM     29  O   UNL     1     -12.972  12.731  65.003  0.00  0.00    -0.285 OA
ENDBRANCH  26  28
ENDBRANCH   1  26
TORSDOF 2
ENDMDL
MODEL 7
REMARK VINA RESULT:      -6.9      1.967      6.285
REMARK  Name = 
REMARK  2 active torsions:
REMARK  status: ('A' for Active; 'I' for Inactive)
REMARK    1  A    between atoms: C_2  and  S_4
REMARK    2  A    between atoms: S_4  and  C_5
REMARK                            x       y       z     vdW  Elec       q    Type
REMARK                         _______ _______ _______ _____ _____    ______ ____
ROOT
ATOM      1  C   UNL     1     -10.145  15.873  69.489  0.00  0.00    +0.059 C 
ATOM      2  C   UNL     1      -9.470  15.548  68.023  0.00  0.00    +0.011 C 
ATOM      3  C   UNL     1     -10.611  16.377  67.109  0.00  0.00    +0.004 C 
ATOM      4  C   UNL     1     -10.118  15.800  65.685  0.00  0.00    +0.000 C 
ATOM      5  C   UNL     1      -9.836  14.416  65.621  0.00  0.00    +0.003 C 
ATOM      6  C   UNL     1      -9.262  13.633  66.674  0.00  0.00    +0.034 C 
ATOM      7  C   UNL     1      -9.472  12.184  66.767  0.00  0.00    +0.136 C 
ATOM      8  O   UNL     1      -8.454  11.530  66.012  0.00  0.00    -0.456 OA
ATOM      9  C   UNL     1      -8.935  10.347  65.470  0.00  0.00    +0.317 C 
ATOM     10  O   UNL     1      -8.307   9.603  64.657  0.00  0.00    -0.250 OA
ATOM     11  C   UNL     1     -10.351  10.193  65.929  0.00  0.00    +0.113 C 
ATOM     12  C   UNL     1     -10.745  11.633  66.236  0.00  0.00    +0.052 C 
ATOM     13  C   UNL     1      -9.277  11.938  68.258  0.00  0.00    +0.040 C 
ATOM     14  C   UNL     1      -9.264  13.310  68.928  0.00  0.00    +0.004 C 
ATOM     15  C   UNL     1      -7.852  13.880  67.102  0.00  0.00    +0.003 C 
ATOM     16  C   UNL     1      -9.677  17.696  67.021  0.00  0.00    +0.016 C 
ATOM     17  C   UNL     1      -9.255  17.966  68.435  0.00  0.00    -0.041 C 
ATOM     18  C   UNL     1      -8.703  19.173  68.574  0.00  0.00    +0.029 C 
ATOM     19  C   UNL     1      -8.439  19.888  67.316  0.00  0.00    +0.173 C 
ATOM     20  C   UNL     1      -9.494  19.946  66.254  0.00  0.00    +0.069 C 
ATOM     21  O   UNL     1      -7.442  20.661  67.190  0.00  0.00    -0.291 OA
ATOM     22  C   UNL     1      -8.489  17.505  66.196  0.00  0.00    +0.004 C 
ATOM     23  C   UNL     1     -10.499  18.827  66.502  0.00  0.00    +0.012 C 
ATOM     24  C   UNL     1     -10.245  14.066  67.886  0.00  0.00    +0.004 C 
ATOM     25  C   UNL     1     -10.256  17.441  69.376  0.00  0.00    +0.033 C 
ENDROOT
BRANCH   1  26
ATOM     26  S   UNL     1     -11.951  15.430  69.136  0.00  0.00    -0.078 S 
BRANCH  26  28
ATOM     27  C   UNL     1     -12.927  14.541  70.775  0.00  0.00    +0.085 C 
ATOM     28  C   UNL     1     -12.814  14.938  70.596  0.00  0.00    +0.199 C 
ATOM     29  O   UNL     1     -13.369  15.803  71.271  0.00  0.00    -0.285 OA
ENDBRANCH  26  28
ENDBRANCH   1  26
TORSDOF 2
ENDMDL
MODEL 8
REMARK VINA RESULT:      -6.9      4.115      7.545
REMARK  Name = 
REMARK  2 active torsions:
REMARK  status: ('A' for Active; 'I' for Inactive)
REMARK    1  A    between atoms: C_2  and  S_4
REMARK    2  A    between atoms: S_4  and  C_5
REMARK                            x       y       z     vdW  Elec       q    Type
REMARK                         _______ _______ _______ _____ _____    ______ ____
ROOT
ATOM      1  C   UNL     1     -10.433  12.343  68.598  0.00  0.00    +0.059 C 
ATOM      2  C   UNL     1      -9.830  11.848  67.148  0.00  0.00    +0.011 C 
ATOM      3  C   UNL     1     -11.317  11.662  66.386  0.00  0.00    +0.004 C 
ATOM      4  C   UNL     1     -10.733  10.896  65.092  0.00  0.00    +0.000 C 
ATOM      5  C   UNL     1      -9.779   9.880  65.329  0.00  0.00    +0.003 C 
ATOM      6  C   UNL     1      -8.784   9.895  66.360  0.00  0.00    +0.034 C 
ATOM      7  C   UNL     1      -8.198   8.659  66.892  0.00  0.00    +0.136 C 
ATOM      8  O   UNL     1      -7.066   8.315  66.095  0.00  0.00    -0.456 OA
ATOM      9  C   UNL     1      -6.908   6.939  66.042  0.00  0.00    +0.317 C 
ATOM     10  O   UNL     1      -6.066   6.324  65.321  0.00  0.00    -0.250 OA
ATOM     11  C   UNL     1      -7.986   6.337  66.888  0.00  0.00    +0.113 C 
ATOM     12  C   UNL     1      -9.042   7.437  66.890  0.00  0.00    +0.052 C 
ATOM     13  C   UNL     1      -7.763   9.098  68.285  0.00  0.00    +0.040 C 
ATOM     14  C   UNL     1      -8.403  10.461  68.532  0.00  0.00    +0.004 C 
ATOM     15  C   UNL     1      -7.676  10.896  66.310  0.00  0.00    +0.003 C 
ATOM     16  C   UNL     1     -11.220  13.125  65.699  0.00  0.00    +0.016 C 
ATOM     17  C   UNL     1     -10.867  14.056  66.821  0.00  0.00    -0.041 C 
ATOM     18  C   UNL     1     -11.015  15.337  66.477  0.00  0.00    +0.029 C 
ATOM     19  C   UNL     1     -11.283  15.574  65.050  0.00  0.00    +0.173 C 
ATOM     20  C   UNL     1     -12.309  14.749  64.335  0.00  0.00    +0.069 C 
ATOM     21  O   UNL     1     -10.852  16.609  64.458  0.00  0.00    -0.291 OA
ATOM     22  C   UNL     1     -10.191  13.208  64.669  0.00  0.00    +0.004 C 
ATOM     23  C   UNL     1     -12.555  13.475  65.136  0.00  0.00    +0.012 C 
ATOM     24  C   UNL     1      -9.728  10.243  67.628  0.00  0.00    +0.004 C 
ATOM     25  C   UNL     1     -11.354  13.521  68.102  0.00  0.00    +0.033 C 
ENDROOT
BRANCH   1  26
ATOM     26  S   UNL     1     -11.767  11.030  68.876  0.00  0.00    -0.078 S 
BRANCH  26  28
ATOM     27  C   UNL     1     -11.942  10.369  70.866  0.00  0.00    +0.085 C 
ATOM     28  C   UNL     1     -12.041  10.710  70.591  0.00  0.00    +0.199 C 
ATOM     29  O   UNL     1     -12.760  11.480  71.226  0.00  0.00    -0.285 OA
ENDBRANCH  26  28
ENDBRANCH   1  26
TORSDOF 2
ENDMDL
MODEL 9
REMARK VINA RESULT:      -6.9      2.445      3.757
REMARK  Name = 
REMARK  2 active torsions:
REMARK  status: ('A' for Active; 'I' for Inactive)
REMARK    1  A    between atoms: C_2  and  S_4
REMARK    2  A    between atoms: S_4  and  C_5
REMARK                            x       y       z     vdW  Elec       q    Type
REMARK                         _______ _______ _______ _____ _____    ______ ____
ROOT
ATOM      1  C   UNL     1      -9.638  16.621  65.841  0.00  0.00    +0.059 C 
ATOM      2  C   UNL     1      -8.645  15.871  66.919  0.00  0.00    +0.011 C 
ATOM      3  C   UNL     1      -9.806  15.653  68.114  0.00  0.00    +0.004 C 
ATOM      4  C   UNL     1      -8.764  15.205  69.263  0.00  0.00    +0.000 C 
ATOM      5  C   UNL     1      -7.575  15.963  69.375  0.00  0.00    +0.003 C 
ATOM      6  C   UNL     1      -6.856  16.551  68.286  0.00  0.00    +0.034 C 
ATOM      7  C   UNL     1      -5.983  17.716  68.471  0.00  0.00    +0.136 C 
ATOM      8  O   UNL     1      -4.677  17.254  68.808  0.00  0.00    -0.456 OA
ATOM      9  C   UNL     1      -4.041  18.159  69.644  0.00  0.00    +0.317 C 
ATOM     10  O   UNL     1      -2.919  17.977  70.206  0.00  0.00    -0.250 OA
ATOM     11  C   UNL     1      -4.975  19.312  69.841  0.00  0.00    +0.113 C 
ATOM     12  C   UNL     1      -6.330  18.677  69.550  0.00  0.00    +0.052 C 
ATOM     13  C   UNL     1      -5.993  18.335  67.078  0.00  0.00    +0.040 C 
ATOM     14  C   UNL     1      -7.103  17.635  66.299  0.00  0.00    +0.004 C 
ATOM     15  C   UNL     1      -6.179  15.677  67.281  0.00  0.00    +0.003 C 
ATOM     16  C   UNL     1     -10.102  14.133  67.639  0.00  0.00    +0.016 C 
ATOM     17  C   UNL     1     -10.310  14.227  66.156  0.00  0.00    -0.041 C 
ATOM     18  C   UNL     1     -10.831  13.107  65.650  0.00  0.00    +0.029 C 
ATOM     19  C   UNL     1     -10.898  11.972  66.582  0.00  0.00    +0.173 C 
ATOM     20  C   UNL     1     -11.421  12.176  67.971  0.00  0.00    +0.069 C 
ATOM     21  O   UNL     1     -10.755  10.777  66.182  0.00  0.00    -0.291 OA
ATOM     22  C   UNL     1      -8.997  13.221  67.909  0.00  0.00    +0.004 C 
ATOM     23  C   UNL     1     -11.348  13.661  68.307  0.00  0.00    +0.012 C 
ATOM     24  C   UNL     1      -8.078  17.319  67.551  0.00  0.00    +0.004 C 
ATOM     25  C   UNL     1     -10.805  15.564  65.792  0.00  0.00    +0.033 C 
ENDROOT
BRANCH   1  26
ATOM     26  S   UNL     1     -10.455  17.903  66.967  0.00  0.00    -0.078 S 
BRANCH  26  28
ATOM     27  C   UNL     1     -10.454  19.699  65.871  0.00  0.00    +0.085 C 
ATOM     28  C   UNL     1     -10.391  19.530  66.283  0.00  0.00    +0.199 C 
ATOM     29  O   UNL     1      -9.973  20.448  66.985  0.00  0.00    -0.285 OA
ENDBRANCH  26  28
ENDBRANCH   1  26
TORSDOF 2
ENDMDL
