MODEL 1
REMARK VINA RESULT:      -6.3      0.000      0.000
REMARK  Name = 
REMARK  4 active torsions:
REMARK  status: ('A' for Active; 'I' for Inactive)
REMARK    1  A    between atoms: C_2  and  CA_3
REMARK    2  A    between atoms: CA_3  and  C_4
REMARK    3  A    between atoms: CA_3  and  N_6
REMARK    4  A    between atoms: C_7  and  C_9
REMARK                            x       y       z     vdW  Elec       q    Type
REMARK                         _______ _______ _______ _____ _____    ______ ____
ROOT
ATOM      1  C   UNL     1      -9.840  10.916  68.643  0.00  0.00    +0.116 C 
ATOM      2  C   UNL     1      -9.189  12.351  68.252  0.00  0.00    +0.086 C 
ATOM      3  N   UNL     1      -9.887  13.230  67.569  0.00  0.00    -0.268 NA
ATOM      4  C   UNL     1      -9.461  13.850  66.371  0.00  0.00    +0.090 C 
ATOM      5  C   UNL     1     -11.381  12.834  67.294  0.00  0.00    +0.084 C 
ATOM      6  C   UNL     1     -11.648  12.656  68.872  0.00  0.00    -0.011 C 
ATOM      7  C   UNL     1     -12.120  13.712  69.680  0.00  0.00    -0.002 A 
ATOM      8  C   UNL     1     -11.721  14.986  69.400  0.00  0.00    +0.015 A 
ATOM      9  C   UNL     1     -11.601  16.036  70.240  0.00  0.00    +0.081 A 
ATOM     10  N   UNL     1     -11.087  16.995  69.472  0.00  0.00    -0.244 NA
ATOM     11  C   UNL     1     -10.960  16.575  68.184  0.00  0.00    +0.095 A 
ATOM     12  C   UNL     1     -11.798  15.735  71.582  0.00  0.00    +0.019 A 
ATOM     13  C   UNL     1     -12.465  14.548  71.881  0.00  0.00    +0.002 A 
ATOM     14  C   UNL     1     -11.185  15.201  68.155  0.00  0.00    +0.000 A 
ATOM     15  C   UNL     1     -12.447  13.463  71.003  0.00  0.00    -0.000 A 
ATOM     16  C   UNL     1     -11.882  14.391  67.131  0.00  0.00    +0.048 C 
ATOM     17  C   UNL     1     -11.180  11.536  69.273  0.00  0.00    -0.019 C 
ENDROOT
BRANCH   1  19
ATOM     18  N   UNL     1      -9.365  10.295  66.370  0.00  0.00    -0.204 NA
ATOM     19  C   UNL     1     -10.494  10.624  67.188  0.00  0.00    +0.246 C 
ATOM     20  O   UNL     1     -11.180   9.555  67.328  0.00  0.00    -0.273 OA
BRANCH  18  21
ATOM     21  CA  UNL     1      -9.596   9.595  64.989  0.00  0.00    +0.128 C 
BRANCH  21  23
ATOM     22  C   UNL     1     -10.227  10.988  63.403  0.00  0.00    +0.002 C 
ATOM     23  C   UNL     1     -10.282  10.951  64.362  0.00  0.00    +0.024 C 
ENDBRANCH  21  23
BRANCH  21  24
ATOM     24  C   UNL     1      -8.138  10.002  64.356  0.00  0.00    +0.204 C 
ATOM     25  O   UNL     1      -7.401  10.474  65.423  0.00  0.00    -0.219 OA
ENDBRANCH  21  24
ENDBRANCH  18  21
ENDBRANCH   1  19
TORSDOF 4
ENDMDL
MODEL 2
REMARK VINA RESULT:      -6.3      4.206      6.342
REMARK  Name = 
REMARK  4 active torsions:
REMARK  status: ('A' for Active; 'I' for Inactive)
REMARK    1  A    between atoms: C_2  and  CA_3
REMARK    2  A    between atoms: CA_3  and  C_4
REMARK    3  A    between atoms: CA_3  and  N_6
REMARK    4  A    between atoms: C_7  and  C_9
REMARK                            x       y       z     vdW  Elec       q    Type
REMARK                         _______ _______ _______ _____ _____    ______ ____
ROOT
ATOM      1  C   UNL     1     -10.369  17.431  66.970  0.00  0.00    +0.116 C 
ATOM      2  C   UNL     1      -9.789  17.036  68.435  0.00  0.00    +0.086 C 
ATOM      3  N   UNL     1      -8.623  16.441  68.546  0.00  0.00    -0.268 NA
ATOM      4  C   UNL     1      -8.392  15.234  69.246  0.00  0.00    +0.090 C 
ATOM      5  C   UNL     1      -7.822  16.276  67.206  0.00  0.00    +0.084 C 
ATOM      6  C   UNL     1      -7.887  17.864  66.946  0.00  0.00    -0.011 C 
ATOM      7  C   UNL     1      -6.877  18.742  67.392  0.00  0.00    -0.002 A 
ATOM      8  C   UNL     1      -6.241  18.473  68.569  0.00  0.00    +0.015 A 
ATOM      9  C   UNL     1      -5.656  19.334  69.428  0.00  0.00    +0.081 A 
ATOM     10  N   UNL     1      -5.285  18.559  70.445  0.00  0.00    -0.244 NA
ATOM     11  C   UNL     1      -5.565  17.252  70.192  0.00  0.00    +0.095 A 
ATOM     12  C   UNL     1      -5.837  20.677  69.121  0.00  0.00    +0.019 A 
ATOM     13  C   UNL     1      -6.224  20.990  67.818  0.00  0.00    +0.002 A 
ATOM     14  C   UNL     1      -6.368  17.196  69.056  0.00  0.00    +0.000 A 
ATOM     15  C   UNL     1      -6.927  20.078  67.029  0.00  0.00    -0.000 A 
ATOM     16  C   UNL     1      -6.361  16.205  67.956  0.00  0.00    +0.048 C 
ATOM     17  C   UNL     1      -9.036  18.188  66.491  0.00  0.00    -0.019 C 
ENDROOT
BRANCH   1  19
ATOM     18  N   UNL     1     -10.975  15.114  66.763  0.00  0.00    -0.204 NA
ATOM     19  C   UNL     1      -9.993  16.026  66.254  0.00  0.00    +0.246 C 
ATOM     20  O   UNL     1     -10.246  16.194  65.013  0.00  0.00    -0.273 OA
BRANCH  18  21
ATOM     21  CA  UNL     1     -11.191  13.740  66.046  0.00  0.00    +0.128 C 
BRANCH  21  23
ATOM     22  C   UNL     1     -11.801  13.655  68.162  0.00  0.00    +0.002 C 
ATOM     23  C   UNL     1     -11.649  13.023  67.453  0.00  0.00    +0.024 C 
ENDBRANCH  21  23
BRANCH  21  24
ATOM     24  C   UNL     1     -12.757  14.014  65.641  0.00  0.00    +0.204 C 
ATOM     25  O   UNL     1     -13.147  12.898  64.929  0.00  0.00    -0.219 OA
ENDBRANCH  21  24
ENDBRANCH  18  21
ENDBRANCH   1  19
TORSDOF 4
ENDMDL
MODEL 3
REMARK VINA RESULT:      -6.3      4.116      7.016
REMARK  Name = 
REMARK  4 active torsions:
REMARK  status: ('A' for Active; 'I' for Inactive)
REMARK    1  A    between atoms: C_2  and  CA_3
REMARK    2  A    between atoms: CA_3  and  C_4
REMARK    3  A    between atoms: CA_3  and  N_6
REMARK    4  A    between atoms: C_7  and  C_9
REMARK                            x       y       z     vdW  Elec       q    Type
REMARK                         _______ _______ _______ _____ _____    ______ ____
ROOT
ATOM      1  C   UNL     1      -8.183  16.725  66.162  0.00  0.00    +0.116 C 
ATOM      2  C   UNL     1      -8.189  15.515  67.244  0.00  0.00    +0.086 C 
ATOM      3  N   UNL     1      -9.188  15.385  68.087  0.00  0.00    -0.268 NA
ATOM      4  C   UNL     1      -9.058  15.290  69.492  0.00  0.00    +0.090 C 
ATOM      5  C   UNL     1     -10.382  16.382  67.871  0.00  0.00    +0.084 C 
ATOM      6  C   UNL     1     -10.551  15.886  66.349  0.00  0.00    -0.011 C 
ATOM      7  C   UNL     1     -11.421  14.834  65.991  0.00  0.00    -0.002 A 
ATOM      8  C   UNL     1     -11.589  13.794  66.859  0.00  0.00    +0.015 A 
ATOM      9  C   UNL     1     -11.918  12.513  66.587  0.00  0.00    +0.081 A 
ATOM     10  N   UNL     1     -11.848  11.912  67.773  0.00  0.00    -0.244 NA
ATOM     11  C   UNL     1     -11.558  12.805  68.757  0.00  0.00    +0.095 A 
ATOM     12  C   UNL     1     -11.972  12.200  65.234  0.00  0.00    +0.019 A 
ATOM     13  C   UNL     1     -12.085  13.260  64.335  0.00  0.00    +0.002 A 
ATOM     14  C   UNL     1     -11.190  14.005  68.155  0.00  0.00    +0.000 A 
ATOM     15  C   UNL     1     -11.616  14.536  64.653  0.00  0.00    -0.000 A 
ATOM     16  C   UNL     1     -11.486  15.392  68.581  0.00  0.00    +0.048 C 
ATOM     17  C   UNL     1      -9.660  16.426  65.609  0.00  0.00    -0.019 C 
ENDROOT
BRANCH   1  19
ATOM     18  N   UNL     1      -7.435  18.290  67.827  0.00  0.00    -0.204 NA
ATOM     19  C   UNL     1      -8.655  17.881  67.197  0.00  0.00    +0.246 C 
ATOM     20  O   UNL     1      -9.046  18.855  66.469  0.00  0.00    -0.273 OA
BRANCH  18  21
ATOM     21  CA  UNL     1      -7.397  19.634  68.627  0.00  0.00    +0.128 C 
BRANCH  21  23
ATOM     22  C   UNL     1      -5.888  19.716  70.230  0.00  0.00    +0.002 C 
ATOM     23  C   UNL     1      -6.274  19.038  69.670  0.00  0.00    +0.024 C 
ENDBRANCH  21  23
BRANCH  21  24
ATOM     24  C   UNL     1      -6.224  20.331  67.714  0.00  0.00    +0.204 C 
ATOM     25  O   UNL     1      -6.770  21.519  67.271  0.00  0.00    -0.219 OA
ENDBRANCH  21  24
ENDBRANCH  18  21
ENDBRANCH   1  19
TORSDOF 4
ENDMDL
MODEL 4
REMARK VINA RESULT:      -6.3      3.031      6.266
REMARK  Name = 
REMARK  4 active torsions:
REMARK  status: ('A' for Active; 'I' for Inactive)
REMARK    1  A    between atoms: C_2  and  CA_3
REMARK    2  A    between atoms: CA_3  and  C_4
REMARK    3  A    between atoms: CA_3  and  N_6
REMARK    4  A    between atoms: C_7  and  C_9
REMARK                            x       y       z     vdW  Elec       q    Type
REMARK                         _______ _______ _______ _____ _____    ______ ____
ROOT
ATOM      1  C   UNL     1      -8.931  15.501  66.109  0.00  0.00    +0.116 C 
ATOM      2  C   UNL     1      -8.957  15.020  67.660  0.00  0.00    +0.086 C 
ATOM      3  N   UNL     1     -10.102  14.824  68.273  0.00  0.00    -0.268 NA
ATOM      4  C   UNL     1     -10.475  15.412  69.504  0.00  0.00    +0.090 C 
ATOM      5  C   UNL     1     -11.379  14.962  67.370  0.00  0.00    +0.084 C 
ATOM      6  C   UNL     1     -10.813  13.844  66.359  0.00  0.00    -0.011 C 
ATOM      7  C   UNL     1     -11.116  12.474  66.504  0.00  0.00    -0.002 A 
ATOM      8  C   UNL     1     -11.257  11.959  67.760  0.00  0.00    +0.015 A 
ATOM      9  C   UNL     1     -11.046  10.695  68.182  0.00  0.00    +0.081 A 
ATOM     10  N   UNL     1     -11.234  10.767  69.498  0.00  0.00    -0.244 NA
ATOM     11  C   UNL     1     -11.620  12.019  69.868  0.00  0.00    +0.095 A 
ATOM     12  C   UNL     1     -10.499   9.846  67.228  0.00  0.00    +0.019 A 
ATOM     13  C   UNL     1     -10.598  10.234  65.892  0.00  0.00    +0.002 A 
ATOM     14  C   UNL     1     -11.451  12.863  68.775  0.00  0.00    +0.000 A 
ATOM     15  C   UNL     1     -10.701  11.578  65.532  0.00  0.00    -0.000 A 
ATOM     16  C   UNL     1     -12.299  13.991  68.326  0.00  0.00    +0.048 C 
ATOM     17  C   UNL     1      -9.929  14.355  65.590  0.00  0.00    -0.019 C 
ENDROOT
BRANCH   1  19
ATOM     18  N   UNL     1      -9.386  17.758  66.801  0.00  0.00    -0.204 NA
ATOM     19  C   UNL     1     -10.085  16.629  66.262  0.00  0.00    +0.246 C 
ATOM     20  O   UNL     1     -10.427  16.935  65.069  0.00  0.00    -0.273 OA
BRANCH  18  21
ATOM     21  CA  UNL     1     -10.059  19.170  66.758  0.00  0.00    +0.128 C 
BRANCH  21  23
ATOM     22  C   UNL     1      -9.132  19.137  68.757  0.00  0.00    +0.002 C 
ATOM     23  C   UNL     1     -10.009  19.297  68.396  0.00  0.00    +0.024 C 
ENDBRANCH  21  23
BRANCH  21  24
ATOM     24  C   UNL     1      -8.656  20.012  66.619  0.00  0.00    +0.204 C 
ATOM     25  O   UNL     1      -7.941  19.361  65.635  0.00  0.00    -0.219 OA
ENDBRANCH  21  24
ENDBRANCH  18  21
ENDBRANCH   1  19
TORSDOF 4
ENDMDL
MODEL 5
REMARK VINA RESULT:      -6.2      3.854      5.673
REMARK  Name = 
REMARK  4 active torsions:
REMARK  status: ('A' for Active; 'I' for Inactive)
REMARK    1  A    between atoms: C_2  and  CA_3
REMARK    2  A    between atoms: CA_3  and  C_4
REMARK    3  A    between atoms: CA_3  and  N_6
REMARK    4  A    between atoms: C_7  and  C_9
REMARK                            x       y       z     vdW  Elec       q    Type
REMARK                         _______ _______ _______ _____ _____    ______ ____
ROOT
ATOM      1  C   UNL     1      -8.330  14.993  67.014  0.00  0.00    +0.116 C 
ATOM      2  C   UNL     1      -8.583  16.352  66.162  0.00  0.00    +0.086 C 
ATOM      3  N   UNL     1      -9.190  17.377  66.715  0.00  0.00    -0.268 NA
ATOM      4  C   UNL     1     -10.322  18.035  66.181  0.00  0.00    +0.090 C 
ATOM      5  C   UNL     1      -9.513  17.220  68.243  0.00  0.00    +0.084 C 
ATOM      6  C   UNL     1      -7.961  16.942  68.567  0.00  0.00    -0.011 C 
ATOM      7  C   UNL     1      -7.064  17.977  68.907  0.00  0.00    -0.002 A 
ATOM      8  C   UNL     1      -7.224  19.204  68.328  0.00  0.00    +0.015 A 
ATOM      9  C   UNL     1      -6.291  20.148  68.083  0.00  0.00    +0.081 A 
ATOM     10  N   UNL     1      -6.963  21.089  67.424  0.00  0.00    -0.244 NA
ATOM     11  C   UNL     1      -8.283  20.771  67.328  0.00  0.00    +0.095 A 
ATOM     12  C   UNL     1      -4.984  19.759  68.349  0.00  0.00    +0.019 A 
ATOM     13  C   UNL     1      -4.800  18.655  69.181  0.00  0.00    +0.002 A 
ATOM     14  C   UNL     1      -8.439  19.451  67.740  0.00  0.00    +0.000 A 
ATOM     15  C   UNL     1      -5.773  17.660  69.294  0.00  0.00    -0.000 A 
ATOM     16  C   UNL     1      -9.539  18.841  68.520  0.00  0.00    +0.048 C 
ATOM     17  C   UNL     1      -7.659  15.737  68.268  0.00  0.00    -0.019 C 
ENDROOT
BRANCH   1  19
ATOM     18  N   UNL     1     -10.613  14.341  66.635  0.00  0.00    -0.204 NA
ATOM     19  C   UNL     1      -9.811  14.926  67.669  0.00  0.00    +0.246 C 
ATOM     20  O   UNL     1      -9.731  14.068  68.612  0.00  0.00    -0.273 OA
BRANCH  18  21
ATOM     21  CA  UNL     1     -12.025  13.768  66.991  0.00  0.00    +0.128 C 
BRANCH  21  23
ATOM     22  C   UNL     1     -11.950  13.844  64.790  0.00  0.00    +0.002 C 
ATOM     23  C   UNL     1     -12.583  14.075  65.475  0.00  0.00    +0.024 C 
ENDBRANCH  21  23
BRANCH  21  24
ATOM     24  C   UNL     1     -11.677  12.217  66.582  0.00  0.00    +0.204 C 
ATOM     25  O   UNL     1     -12.031  11.466  67.684  0.00  0.00    -0.219 OA
ENDBRANCH  21  24
ENDBRANCH  18  21
ENDBRANCH   1  19
TORSDOF 4
ENDMDL
MODEL 6
REMARK VINA RESULT:      -6.0      2.694      4.596
REMARK  Name = 
REMARK  4 active torsions:
REMARK  status: ('A' for Active; 'I' for Inactive)
REMARK    1  A    between atoms: C_2  and  CA_3
REMARK    2  A    between atoms: CA_3  and  C_4
REMARK    3  A    between atoms: CA_3  and  N_6
REMARK    4  A    between atoms: C_7  and  C_9
REMARK                            x       y       z     vdW  Elec       q    Type
REMARK                         _______ _______ _______ _____ _____    ______ ____
ROOT
ATOM      1  C   UNL     1     -11.355  14.539  66.865  0.00  0.00    +0.116 C 
ATOM      2  C   UNL     1     -10.436  14.875  68.160  0.00  0.00    +0.086 C 
ATOM      3  N   UNL     1      -9.159  15.148  68.013  0.00  0.00    -0.268 NA
ATOM      4  C   UNL     1      -8.106  14.497  68.696  0.00  0.00    +0.090 C 
ATOM      5  C   UNL     1      -8.661  15.245  66.528  0.00  0.00    +0.084 C 
ATOM      6  C   UNL     1      -9.761  16.376  66.208  0.00  0.00    -0.011 C 
ATOM      7  C   UNL     1      -9.488  17.754  66.345  0.00  0.00    -0.002 A 
ATOM      8  C   UNL     1      -8.651  18.164  67.343  0.00  0.00    +0.015 A 
ATOM      9  C   UNL     1      -8.623  19.350  67.985  0.00  0.00    +0.081 A 
ATOM     10  N   UNL     1      -7.689  19.179  68.919  0.00  0.00    -0.244 NA
ATOM     11  C   UNL     1      -7.108  17.954  68.811  0.00  0.00    +0.095 A 
ATOM     12  C   UNL     1      -9.663  20.213  67.663  0.00  0.00    +0.019 A 
ATOM     13  C   UNL     1     -10.359  19.964  66.480  0.00  0.00    +0.002 A 
ATOM     14  C   UNL     1      -7.857  17.200  67.912  0.00  0.00    +0.000 A 
ATOM     15  C   UNL     1     -10.434  18.680  65.938  0.00  0.00    -0.000 A 
ATOM     16  C   UNL     1      -7.394  16.226  66.897  0.00  0.00    +0.048 C 
ATOM     17  C   UNL     1     -10.907  15.838  66.034  0.00  0.00    -0.019 C 
ENDROOT
BRANCH   1  19
ATOM     18  N   UNL     1     -10.462  12.307  66.853  0.00  0.00    -0.204 NA
ATOM     19  C   UNL     1     -10.290  13.546  66.153  0.00  0.00    +0.246 C 
ATOM     20  O   UNL     1     -10.725  13.369  64.965  0.00  0.00    -0.273 OA
BRANCH  18  21
ATOM     21  CA  UNL     1      -9.884  10.990  66.236  0.00  0.00    +0.128 C 
BRANCH  21  23
ATOM     22  C   UNL     1      -7.750  10.882  66.774  0.00  0.00    +0.002 C 
ATOM     23  C   UNL     1      -8.579  11.039  67.235  0.00  0.00    +0.024 C 
ENDBRANCH  21  23
BRANCH  21  24
ATOM     24  C   UNL     1     -10.668   9.975  67.259  0.00  0.00    +0.204 C 
ATOM     25  O   UNL     1     -11.746  10.698  67.728  0.00  0.00    -0.219 OA
ENDBRANCH  21  24
ENDBRANCH  18  21
ENDBRANCH   1  19
TORSDOF 4
ENDMDL
MODEL 7
REMARK VINA RESULT:      -5.7      4.140      7.101
REMARK  Name = 
REMARK  4 active torsions:
REMARK  status: ('A' for Active; 'I' for Inactive)
REMARK    1  A    between atoms: C_2  and  CA_3
REMARK    2  A    between atoms: CA_3  and  C_4
REMARK    3  A    between atoms: CA_3  and  N_6
REMARK    4  A    between atoms: C_7  and  C_9
REMARK                            x       y       z     vdW  Elec       q    Type
REMARK                         _______ _______ _______ _____ _____    ______ ____
ROOT
ATOM      1  C   UNL     1      -9.381  17.837  66.490  0.00  0.00    +0.116 C 
ATOM      2  C   UNL     1      -8.283  16.685  66.166  0.00  0.00    +0.086 C 
ATOM      3  N   UNL     1      -8.053  15.728  67.035  0.00  0.00    -0.268 NA
ATOM      4  C   UNL     1      -6.779  15.380  67.540  0.00  0.00    +0.090 C 
ATOM      5  C   UNL     1      -8.988  15.726  68.295  0.00  0.00    +0.084 C 
ATOM      6  C   UNL     1     -10.294  15.654  67.356  0.00  0.00    -0.011 C 
ATOM      7  C   UNL     1     -10.880  14.430  66.972  0.00  0.00    -0.002 A 
ATOM      8  C   UNL     1     -10.072  13.351  66.758  0.00  0.00    +0.015 A 
ATOM      9  C   UNL     1     -10.279  12.290  65.949  0.00  0.00    +0.081 A 
ATOM     10  N   UNL     1      -9.147  11.597  66.045  0.00  0.00    -0.244 NA
ATOM     11  C   UNL     1      -8.296  12.171  66.939  0.00  0.00    +0.095 A 
ATOM     12  C   UNL     1     -11.410  12.381  65.147  0.00  0.00    +0.019 A 
ATOM     13  C   UNL     1     -12.389  13.301  65.520  0.00  0.00    +0.002 A 
ATOM     14  C   UNL     1      -8.801  13.425  67.270  0.00  0.00    +0.000 A 
ATOM     15  C   UNL     1     -12.072  14.437  66.267  0.00  0.00    -0.000 A 
ATOM     16  C   UNL     1      -8.795  14.118  68.578  0.00  0.00    +0.048 C 
ATOM     17  C   UNL     1     -10.553  16.810  66.875  0.00  0.00    -0.019 C 
ENDROOT
BRANCH   1  19
ATOM     18  N   UNL     1      -7.743  18.910  67.884  0.00  0.00    -0.204 NA
ATOM     19  C   UNL     1      -8.912  18.093  68.020  0.00  0.00    +0.246 C 
ATOM     20  O   UNL     1      -9.822  18.823  68.541  0.00  0.00    -0.273 OA
BRANCH  18  21
ATOM     21  CA  UNL     1      -7.195  19.680  69.132  0.00  0.00    +0.128 C 
BRANCH  21  23
ATOM     22  C   UNL     1      -5.460  18.751  70.123  0.00  0.00    +0.002 C 
ATOM     23  C   UNL     1      -5.979  18.592  69.329  0.00  0.00    +0.024 C 
ENDBRANCH  21  23
BRANCH  21  24
ATOM     24  C   UNL     1      -6.206  20.678  68.284  0.00  0.00    +0.204 C 
ATOM     25  O   UNL     1      -6.983  21.164  67.252  0.00  0.00    -0.219 OA
ENDBRANCH  21  24
ENDBRANCH  18  21
ENDBRANCH   1  19
TORSDOF 4
ENDMDL
MODEL 8
REMARK VINA RESULT:      -5.7      2.179      6.858
REMARK  Name = 
REMARK  4 active torsions:
REMARK  status: ('A' for Active; 'I' for Inactive)
REMARK    1  A    between atoms: C_2  and  CA_3
REMARK    2  A    between atoms: CA_3  and  C_4
REMARK    3  A    between atoms: CA_3  and  N_6
REMARK    4  A    between atoms: C_7  and  C_9
REMARK                            x       y       z     vdW  Elec       q    Type
REMARK                         _______ _______ _______ _____ _____    ______ ____
ROOT
ATOM      1  C   UNL     1     -10.190  14.171  65.813  0.00  0.00    +0.116 C 
ATOM      2  C   UNL     1      -9.109  13.230  66.577  0.00  0.00    +0.086 C 
ATOM      3  N   UNL     1      -9.479  12.077  67.086  0.00  0.00    -0.268 NA
ATOM      4  C   UNL     1      -9.262  11.675  68.425  0.00  0.00    +0.090 C 
ATOM      5  C   UNL     1     -10.961  11.656  66.786  0.00  0.00    +0.084 C 
ATOM      6  C   UNL     1     -10.701  11.781  65.203  0.00  0.00    -0.011 C 
ATOM      7  C   UNL     1     -10.276  10.687  64.420  0.00  0.00    -0.002 A 
ATOM      8  C   UNL     1      -9.435   9.766  64.975  0.00  0.00    +0.015 A 
ATOM      9  C   UNL     1      -8.530   8.974  64.363  0.00  0.00    +0.081 A 
ATOM     10  N   UNL     1      -7.924   8.352  65.372  0.00  0.00    -0.244 NA
ATOM     11  C   UNL     1      -8.485   8.692  66.564  0.00  0.00    +0.095 A 
ATOM     12  C   UNL     1      -8.357   9.225  63.008  0.00  0.00    +0.019 A 
ATOM     13  C   UNL     1      -9.362   9.938  62.354  0.00  0.00    +0.002 A 
ATOM     14  C   UNL     1      -9.345   9.765  66.344  0.00  0.00    +0.000 A 
ATOM     15  C   UNL     1     -10.189  10.826  63.044  0.00  0.00    -0.000 A 
ATOM     16  C   UNL     1     -10.660  10.049  66.963  0.00  0.00    +0.048 C 
ATOM     17  C   UNL     1     -10.732  13.008  64.848  0.00  0.00    -0.019 C 
ENDROOT
BRANCH   1  19
ATOM     18  N   UNL     1     -11.016  14.938  67.936  0.00  0.00    -0.204 NA
ATOM     19  C   UNL     1     -11.370  14.001  66.911  0.00  0.00    +0.246 C 
ATOM     20  O   UNL     1     -12.429  14.442  66.349  0.00  0.00    -0.273 OA
BRANCH  18  21
ATOM     21  CA  UNL     1     -12.085  15.349  69.003  0.00  0.00    +0.128 C 
BRANCH  21  23
ATOM     22  C   UNL     1     -12.407  13.892  70.625  0.00  0.00    +0.002 C 
ATOM     23  C   UNL     1     -11.836  13.965  69.855  0.00  0.00    +0.024 C 
ENDBRANCH  21  23
BRANCH  21  24
ATOM     24  C   UNL     1     -11.042  16.168  69.969  0.00  0.00    +0.204 C 
ATOM     25  O   UNL     1     -10.034  16.597  69.130  0.00  0.00    -0.219 OA
ENDBRANCH  21  24
ENDBRANCH  18  21
ENDBRANCH   1  19
TORSDOF 4
ENDMDL
MODEL 9
REMARK VINA RESULT:      -5.7      2.867      6.107
REMARK  Name = 
REMARK  4 active torsions:
REMARK  status: ('A' for Active; 'I' for Inactive)
REMARK    1  A    between atoms: C_2  and  CA_3
REMARK    2  A    between atoms: CA_3  and  C_4
REMARK    3  A    between atoms: CA_3  and  N_6
REMARK    4  A    between atoms: C_7  and  C_9
REMARK                            x       y       z     vdW  Elec       q    Type
REMARK                         _______ _______ _______ _____ _____    ______ ____
ROOT
ATOM      1  C   UNL     1      -9.328  11.234  64.793  0.00  0.00    +0.116 C 
ATOM      2  C   UNL     1      -8.769  11.574  66.279  0.00  0.00    +0.086 C 
ATOM      3  N   UNL     1      -9.528  11.376  67.332  0.00  0.00    -0.268 NA
ATOM      4  C   UNL     1      -9.816  12.348  68.319  0.00  0.00    +0.090 C 
ATOM      5  C   UNL     1     -10.910  10.689  67.045  0.00  0.00    +0.084 C 
ATOM      6  C   UNL     1     -10.171   9.440  66.348  0.00  0.00    -0.011 C 
ATOM      7  C   UNL     1      -9.797   8.288  67.070  0.00  0.00    -0.002 A 
ATOM      8  C   UNL     1      -9.394   8.424  68.367  0.00  0.00    +0.015 A 
ATOM      9  C   UNL     1      -8.555   7.640  69.077  0.00  0.00    +0.081 A 
ATOM     10  N   UNL     1      -8.436   8.278  70.239  0.00  0.00    -0.244 NA
ATOM     11  C   UNL     1      -9.230   9.382  70.274  0.00  0.00    +0.095 A 
ATOM     12  C   UNL     1      -7.936   6.635  68.343  0.00  0.00    +0.019 A 
ATOM     13  C   UNL     1      -8.510   6.287  67.121  0.00  0.00    +0.002 A 
ATOM     14  C   UNL     1      -9.716   9.605  68.989  0.00  0.00    +0.000 A 
ATOM     15  C   UNL     1      -9.276   7.198  66.392  0.00  0.00    -0.000 A 
ATOM     16  C   UNL     1     -11.052  10.079  68.565  0.00  0.00    +0.048 C 
ATOM     17  C   UNL     1      -9.812   9.748  65.161  0.00  0.00    -0.019 C 
ENDROOT
BRANCH   1  19
ATOM     18  N   UNL     1     -10.533  13.314  64.858  0.00  0.00    -0.204 NA
ATOM     19  C   UNL     1     -10.786  11.910  65.001  0.00  0.00    +0.246 C 
ATOM     20  O   UNL     1     -11.480  11.550  63.990  0.00  0.00    -0.273 OA
BRANCH  18  21
ATOM     21  CA  UNL     1     -11.732  14.291  64.627  0.00  0.00    +0.128 C 
BRANCH  21  23
ATOM     22  C   UNL     1     -11.893  14.714  66.784  0.00  0.00    +0.002 C 
ATOM     23  C   UNL     1     -12.266  14.077  66.168  0.00  0.00    +0.024 C 
ENDBRANCH  21  23
BRANCH  21  24
ATOM     24  C   UNL     1     -10.920  15.649  65.064  0.00  0.00    +0.204 C 
ATOM     25  O   UNL     1     -11.328  16.617  64.169  0.00  0.00    -0.219 OA
ENDBRANCH  21  24
ENDBRANCH  18  21
ENDBRANCH   1  19
TORSDOF 4
ENDMDL
