MODEL 1
REMARK VINA RESULT:      -6.3      0.000      0.000
REMARK  Name = 
REMARK  6 active torsions:
REMARK  status: ('A' for Active; 'I' for Inactive)
REMARK    1  A    between atoms: C_2  and  N_5
REMARK    2  A    between atoms: N_5  and  C_6
REMARK    3  A    between atoms: C_6  and  C_7
REMARK    4  A    between atoms: C_7  and  C_9
REMARK    5  A    between atoms: C_9  and  O_10
REMARK    6  A    between atoms: O_10  and  C_11
REMARK                            x       y       z     vdW  Elec       q    Type
REMARK                         _______ _______ _______ _____ _____    ______ ____
ROOT
ATOM      1  C   UNL     1     -10.987  12.874  68.486  0.00  0.00    +0.266 A 
ATOM      2  C   UNL     1     -11.180  12.216  67.277  0.00  0.00    +0.195 A 
ATOM      3  N   UNL     1     -11.252  12.856  65.995  0.00  0.00    -0.284 N 
ATOM      4  C   UNL     1     -12.549  13.162  65.395  0.00  0.00    +0.124 C 
ATOM      5  C   UNL     1     -12.648  12.250  64.178  0.00  0.00    +0.164 C 
ATOM      6  O   UNL     1     -11.691  12.682  63.252  0.00  0.00    -0.350 OA
ATOM      7  C   UNL     1     -10.452  12.299  63.733  0.00  0.00    +0.164 C 
ATOM      8  C   UNL     1     -10.126  12.856  65.088  0.00  0.00    +0.124 C 
ATOM      9  N   UNL     1     -11.038  10.875  67.448  0.00  0.00    -0.172 NA
ATOM     10  S   UNL     1     -11.688  10.669  69.003  0.00  0.00    +0.121 S 
ATOM     11  N   UNL     1     -11.823  12.315  69.397  0.00  0.00    -0.153 NA
ENDROOT
BRANCH   1  12
ATOM     12  O   UNL     1     -10.109  13.942  68.599  0.00  0.00    -0.455 OA
BRANCH  12  13
ATOM     13  C   UNL     1     -10.155  15.054  69.334  0.00  0.00    +0.241 C 
BRANCH  13  14
ATOM     14  C   UNL     1     -11.568  15.882  69.167  0.00  0.00    +0.213 C 
ATOM     15  O   UNL     1     -10.927  17.261  69.236  0.00  0.00    -0.218 OA
BRANCH  14  16
ATOM     16  C   UNL     1     -11.820  15.865  70.799  0.00  0.00    +0.125 C 
BRANCH  16  17
ATOM     17  N   UNL     1     -13.223  15.835  70.999  0.00  0.00    -0.218 NA
BRANCH  17  19
ATOM     18  C   UNL     1     -13.921  15.516  72.329  0.00  0.00    +0.017 C 
ATOM     19  C   UNL     1     -13.554  15.353  72.331  0.00  0.00    +0.060 C 
ATOM     20  C   UNL     1     -12.594  15.914  73.383  0.00  0.00    +0.017 C 
ATOM     21  C   UNL     1     -13.509  13.836  72.437  0.00  0.00    +0.017 C 
ENDBRANCH  17  19
ENDBRANCH  16  17
ENDBRANCH  14  16
ENDBRANCH  13  14
ENDBRANCH  12  13
ENDBRANCH   1  12
TORSDOF 6
ENDMDL
MODEL 2
REMARK VINA RESULT:      -6.2      4.440      6.101
REMARK  Name = 
REMARK  6 active torsions:
REMARK  status: ('A' for Active; 'I' for Inactive)
REMARK    1  A    between atoms: C_2  and  N_5
REMARK    2  A    between atoms: N_5  and  C_6
REMARK    3  A    between atoms: C_6  and  C_7
REMARK    4  A    between atoms: C_7  and  C_9
REMARK    5  A    between atoms: C_9  and  O_10
REMARK    6  A    between atoms: O_10  and  C_11
REMARK                            x       y       z     vdW  Elec       q    Type
REMARK                         _______ _______ _______ _____ _____    ______ ____
ROOT
ATOM      1  C   UNL     1      -9.957  17.922  67.752  0.00  0.00    +0.266 A 
ATOM      2  C   UNL     1      -8.740  18.495  67.401  0.00  0.00    +0.195 A 
ATOM      3  N   UNL     1      -7.515  18.331  68.129  0.00  0.00    -0.284 N 
ATOM      4  C   UNL     1      -7.082  19.349  69.085  0.00  0.00    +0.124 C 
ATOM      5  C   UNL     1      -5.832  19.966  68.469  0.00  0.00    +0.164 C 
ATOM      6  O   UNL     1      -4.832  18.986  68.481  0.00  0.00    -0.350 OA
ATOM      7  C   UNL     1      -5.148  18.065  67.499  0.00  0.00    +0.164 C 
ATOM      8  C   UNL     1      -6.489  17.415  67.682  0.00  0.00    +0.124 C 
ATOM      9  N   UNL     1      -8.814  19.019  66.150  0.00  0.00    -0.172 NA
ATOM     10  S   UNL     1     -10.418  19.578  66.119  0.00  0.00    +0.121 S 
ATOM     11  N   UNL     1     -10.921  18.860  67.573  0.00  0.00    -0.153 NA
ENDROOT
BRANCH   1  12
ATOM     12  O   UNL     1     -10.035  16.628  68.244  0.00  0.00    -0.455 OA
BRANCH  12  13
ATOM     13  C   UNL     1     -10.072  16.153  69.490  0.00  0.00    +0.241 C 
BRANCH  13  14
ATOM     14  C   UNL     1     -11.296  15.080  69.737  0.00  0.00    +0.213 C 
ATOM     15  O   UNL     1     -12.392  16.005  69.227  0.00  0.00    -0.218 OA
BRANCH  14  16
ATOM     16  C   UNL     1     -11.504  15.611  71.287  0.00  0.00    +0.125 C 
BRANCH  16  17
ATOM     17  N   UNL     1     -12.872  15.955  71.425  0.00  0.00    -0.218 NA
BRANCH  17  19
ATOM     18  C   UNL     1     -13.767  15.566  72.611  0.00  0.00    +0.017 C 
ATOM     19  C   UNL     1     -13.464  15.304  72.584  0.00  0.00    +0.060 C 
ATOM     20  C   UNL     1     -12.499  15.294  73.773  0.00  0.00    +0.017 C 
ATOM     21  C   UNL     1     -13.863  13.862  72.311  0.00  0.00    +0.017 C 
ENDBRANCH  17  19
ENDBRANCH  16  17
ENDBRANCH  14  16
ENDBRANCH  13  14
ENDBRANCH  12  13
ENDBRANCH   1  12
TORSDOF 6
ENDMDL
MODEL 3
REMARK VINA RESULT:      -6.1      2.264      3.343
REMARK  Name = 
REMARK  6 active torsions:
REMARK  status: ('A' for Active; 'I' for Inactive)
REMARK    1  A    between atoms: C_2  and  N_5
REMARK    2  A    between atoms: N_5  and  C_6
REMARK    3  A    between atoms: C_6  and  C_7
REMARK    4  A    between atoms: C_7  and  C_9
REMARK    5  A    between atoms: C_9  and  O_10
REMARK    6  A    between atoms: O_10  and  C_11
REMARK                            x       y       z     vdW  Elec       q    Type
REMARK                         _______ _______ _______ _____ _____    ______ ____
ROOT
ATOM      1  C   UNL     1     -10.883  14.389  66.506  0.00  0.00    +0.266 A 
ATOM      2  C   UNL     1     -11.238  13.077  66.795  0.00  0.00    +0.195 A 
ATOM      3  N   UNL     1     -10.810  12.347  67.954  0.00  0.00    -0.284 N 
ATOM      4  C   UNL     1      -9.674  11.432  67.873  0.00  0.00    +0.124 C 
ATOM      5  C   UNL     1     -10.270  10.042  68.065  0.00  0.00    +0.164 C 
ATOM      6  O   UNL     1     -10.727   9.962  69.386  0.00  0.00    -0.350 OA
ATOM      7  C   UNL     1     -11.877  10.724  69.470  0.00  0.00    +0.164 C 
ATOM      8  C   UNL     1     -11.682  12.165  69.094  0.00  0.00    +0.124 C 
ATOM      9  N   UNL     1     -12.237  12.670  65.969  0.00  0.00    -0.172 NA
ATOM     10  S   UNL     1     -11.827  13.476  64.531  0.00  0.00    +0.121 S 
ATOM     11  N   UNL     1     -10.601  14.457  65.180  0.00  0.00    -0.153 NA
ENDROOT
BRANCH   1  12
ATOM     12  O   UNL     1     -10.806  15.357  67.496  0.00  0.00    -0.455 OA
BRANCH  12  13
ATOM     13  C   UNL     1     -11.701  15.786  68.388  0.00  0.00    +0.241 C 
BRANCH  13  14
ATOM     14  C   UNL     1     -11.012  16.379  69.760  0.00  0.00    +0.213 C 
ATOM     15  O   UNL     1     -10.013  15.240  69.914  0.00  0.00    -0.218 OA
BRANCH  14  16
ATOM     16  C   UNL     1     -12.120  15.598  70.703  0.00  0.00    +0.125 C 
BRANCH  16  17
ATOM     17  N   UNL     1     -11.999  16.132  72.011  0.00  0.00    -0.218 NA
BRANCH  17  19
ATOM     18  C   UNL     1     -13.272  15.831  72.813  0.00  0.00    +0.017 C 
ATOM     19  C   UNL     1     -12.991  15.561  72.907  0.00  0.00    +0.060 C 
ATOM     20  C   UNL     1     -12.513  15.590  74.362  0.00  0.00    +0.017 C 
ATOM     21  C   UNL     1     -13.329  14.116  72.569  0.00  0.00    +0.017 C 
ENDBRANCH  17  19
ENDBRANCH  16  17
ENDBRANCH  14  16
ENDBRANCH  13  14
ENDBRANCH  12  13
ENDBRANCH   1  12
TORSDOF 6
ENDMDL
MODEL 4
REMARK VINA RESULT:      -6.0      3.130      4.977
REMARK  Name = 
REMARK  6 active torsions:
REMARK  status: ('A' for Active; 'I' for Inactive)
REMARK    1  A    between atoms: C_2  and  N_5
REMARK    2  A    between atoms: N_5  and  C_6
REMARK    3  A    between atoms: C_6  and  C_7
REMARK    4  A    between atoms: C_7  and  C_9
REMARK    5  A    between atoms: C_9  and  O_10
REMARK    6  A    between atoms: O_10  and  C_11
REMARK                            x       y       z     vdW  Elec       q    Type
REMARK                         _______ _______ _______ _____ _____    ______ ____
ROOT
ATOM      1  C   UNL     1     -10.556  13.670  65.603  0.00  0.00    +0.266 A 
ATOM      2  C   UNL     1     -11.171  12.591  66.227  0.00  0.00    +0.195 A 
ATOM      3  N   UNL     1     -10.770  12.033  67.487  0.00  0.00    -0.284 N 
ATOM      4  C   UNL     1      -9.911  10.851  67.530  0.00  0.00    +0.124 C 
ATOM      5  C   UNL     1     -10.789   9.744  68.099  0.00  0.00    +0.164 C 
ATOM      6  O   UNL     1     -11.057  10.066  69.435  0.00  0.00    -0.350 OA
ATOM      7  C   UNL     1     -11.966  11.108  69.431  0.00  0.00    +0.164 C 
ATOM      8  C   UNL     1     -11.487  12.332  68.706  0.00  0.00    +0.124 C 
ATOM      9  N   UNL     1     -12.347  12.302  65.610  0.00  0.00    -0.172 NA
ATOM     10  S   UNL     1     -11.965  12.650  63.992  0.00  0.00    +0.121 S 
ATOM     11  N   UNL     1     -10.460  13.381  64.281  0.00  0.00    -0.153 NA
ENDROOT
BRANCH   1  12
ATOM     12  O   UNL     1     -10.108  14.767  66.324  0.00  0.00    -0.455 OA
BRANCH  12  13
ATOM     13  C   UNL     1     -10.764  15.755  66.935  0.00  0.00    +0.241 C 
BRANCH  13  14
ATOM     14  C   UNL     1     -10.478  15.815  68.555  0.00  0.00    +0.213 C 
ATOM     15  O   UNL     1     -11.810  16.465  68.904  0.00  0.00    -0.218 OA
BRANCH  14  16
ATOM     16  C   UNL     1      -9.743  17.287  68.413  0.00  0.00    +0.125 C 
BRANCH  16  17
ATOM     17  N   UNL     1     -10.738  18.206  67.994  0.00  0.00    -0.218 NA
BRANCH  17  19
ATOM     18  C   UNL     1     -10.341  19.670  67.753  0.00  0.00    +0.017 C 
ATOM     19  C   UNL     1     -10.142  19.435  67.496  0.00  0.00    +0.060 C 
ATOM     20  C   UNL     1     -10.472  19.657  66.017  0.00  0.00    +0.017 C 
ATOM     21  C   UNL     1      -8.626  19.454  67.630  0.00  0.00    +0.017 C 
ENDBRANCH  17  19
ENDBRANCH  16  17
ENDBRANCH  14  16
ENDBRANCH  13  14
ENDBRANCH  12  13
ENDBRANCH   1  12
TORSDOF 6
ENDMDL
MODEL 5
REMARK VINA RESULT:      -6.0      4.073      5.617
REMARK  Name = 
REMARK  6 active torsions:
REMARK  status: ('A' for Active; 'I' for Inactive)
REMARK    1  A    between atoms: C_2  and  N_5
REMARK    2  A    between atoms: N_5  and  C_6
REMARK    3  A    between atoms: C_6  and  C_7
REMARK    4  A    between atoms: C_7  and  C_9
REMARK    5  A    between atoms: C_9  and  O_10
REMARK    6  A    between atoms: O_10  and  C_11
REMARK                            x       y       z     vdW  Elec       q    Type
REMARK                         _______ _______ _______ _____ _____    ______ ____
ROOT
ATOM      1  C   UNL     1     -11.246  15.962  68.074  0.00  0.00    +0.266 A 
ATOM      2  C   UNL     1     -11.294  14.704  67.484  0.00  0.00    +0.195 A 
ATOM      3  N   UNL     1     -11.371  14.462  66.072  0.00  0.00    -0.284 N 
ATOM      4  C   UNL     1     -12.661  14.193  65.438  0.00  0.00    +0.124 C 
ATOM      5  C   UNL     1     -12.586  12.739  64.988  0.00  0.00    +0.164 C 
ATOM      6  O   UNL     1     -11.637  12.668  63.960  0.00  0.00    -0.350 OA
ATOM      7  C   UNL     1     -10.390  12.798  64.543  0.00  0.00    +0.164 C 
ATOM      8  C   UNL     1     -10.205  14.076  65.308  0.00  0.00    +0.124 C 
ATOM      9  N   UNL     1     -11.006  13.745  68.402  0.00  0.00    -0.172 NA
ATOM     10  S   UNL     1     -11.710  14.404  69.801  0.00  0.00    +0.121 S 
ATOM     11  N   UNL     1     -12.058  15.938  69.161  0.00  0.00    -0.153 NA
ENDROOT
BRANCH   1  12
ATOM     12  O   UNL     1     -10.507  16.996  67.520  0.00  0.00    -0.455 OA
BRANCH  12  13
ATOM     13  C   UNL     1     -10.204  18.213  67.974  0.00  0.00    +0.241 C 
BRANCH  13  14
ATOM     14  C   UNL     1     -10.727  19.421  66.985  0.00  0.00    +0.213 C 
ATOM     15  O   UNL     1     -10.467  18.661  65.693  0.00  0.00    -0.218 OA
BRANCH  14  16
ATOM     16  C   UNL     1      -9.221  20.097  66.946  0.00  0.00    +0.125 C 
BRANCH  16  17
ATOM     17  N   UNL     1      -8.477  19.390  65.968  0.00  0.00    -0.218 NA
BRANCH  17  19
ATOM     18  C   UNL     1      -6.958  19.320  66.182  0.00  0.00    +0.017 C 
ATOM     19  C   UNL     1      -7.057  19.691  66.066  0.00  0.00    +0.060 C 
ATOM     20  C   UNL     1      -6.790  20.793  67.096  0.00  0.00    +0.017 C 
ATOM     21  C   UNL     1      -6.459  20.150  64.745  0.00  0.00    +0.017 C 
ENDBRANCH  17  19
ENDBRANCH  16  17
ENDBRANCH  14  16
ENDBRANCH  13  14
ENDBRANCH  12  13
ENDBRANCH   1  12
TORSDOF 6
ENDMDL
MODEL 6
REMARK VINA RESULT:      -5.9      3.019      6.710
REMARK  Name = 
REMARK  6 active torsions:
REMARK  status: ('A' for Active; 'I' for Inactive)
REMARK    1  A    between atoms: C_2  and  N_5
REMARK    2  A    between atoms: N_5  and  C_6
REMARK    3  A    between atoms: C_6  and  C_7
REMARK    4  A    between atoms: C_7  and  C_9
REMARK    5  A    between atoms: C_9  and  O_10
REMARK    6  A    between atoms: O_10  and  C_11
REMARK                            x       y       z     vdW  Elec       q    Type
REMARK                         _______ _______ _______ _____ _____    ______ ____
ROOT
ATOM      1  C   UNL     1     -11.442  14.344  68.158  0.00  0.00    +0.266 A 
ATOM      2  C   UNL     1     -10.985  15.642  68.355  0.00  0.00    +0.195 A 
ATOM      3  N   UNL     1      -9.940  16.269  67.599  0.00  0.00    -0.284 N 
ATOM      4  C   UNL     1      -8.574  16.307  68.118  0.00  0.00    +0.124 C 
ATOM      5  C   UNL     1      -8.302  17.777  68.413  0.00  0.00    +0.164 C 
ATOM      6  O   UNL     1      -8.259  18.449  67.186  0.00  0.00    -0.350 OA
ATOM      7  C   UNL     1      -9.558  18.539  66.722  0.00  0.00    +0.164 C 
ATOM      8  C   UNL     1     -10.235  17.211  66.542  0.00  0.00    +0.124 C 
ATOM      9  N   UNL     1     -11.828  16.313  69.184  0.00  0.00    -0.172 NA
ATOM     10  S   UNL     1     -12.308  15.073  70.241  0.00  0.00    +0.121 S 
ATOM     11  N   UNL     1     -11.622  13.781  69.379  0.00  0.00    -0.153 NA
ENDROOT
BRANCH   1  12
ATOM     12  O   UNL     1     -11.588  13.812  66.886  0.00  0.00    -0.455 OA
BRANCH  12  13
ATOM     13  C   UNL     1     -12.459  14.072  65.909  0.00  0.00    +0.241 C 
BRANCH  13  14
ATOM     14  C   UNL     1     -11.753  14.720  64.571  0.00  0.00    +0.213 C 
ATOM     15  O   UNL     1     -12.644  13.986  63.578  0.00  0.00    -0.218 OA
BRANCH  14  16
ATOM     16  C   UNL     1     -10.628  13.512  64.528  0.00  0.00    +0.125 C 
BRANCH  16  17
ATOM     17  N   UNL     1     -11.151  12.491  63.695  0.00  0.00    -0.218 NA
BRANCH  17  19
ATOM     18  C   UNL     1     -10.699  11.026  63.774  0.00  0.00    +0.017 C 
ATOM     19  C   UNL     1     -10.379  11.265  63.817  0.00  0.00    +0.060 C 
ATOM     20  C   UNL     1      -9.676  11.180  65.175  0.00  0.00    +0.017 C 
ATOM     21  C   UNL     1      -9.309  11.132  62.742  0.00  0.00    +0.017 C 
ENDBRANCH  17  19
ENDBRANCH  16  17
ENDBRANCH  14  16
ENDBRANCH  13  14
ENDBRANCH  12  13
ENDBRANCH   1  12
TORSDOF 6
ENDMDL
MODEL 7
REMARK VINA RESULT:      -5.9      3.160      6.141
REMARK  Name = 
REMARK  6 active torsions:
REMARK  status: ('A' for Active; 'I' for Inactive)
REMARK    1  A    between atoms: C_2  and  N_5
REMARK    2  A    between atoms: N_5  and  C_6
REMARK    3  A    between atoms: C_6  and  C_7
REMARK    4  A    between atoms: C_7  and  C_9
REMARK    5  A    between atoms: C_9  and  O_10
REMARK    6  A    between atoms: O_10  and  C_11
REMARK                            x       y       z     vdW  Elec       q    Type
REMARK                         _______ _______ _______ _____ _____    ______ ____
ROOT
ATOM      1  C   UNL     1     -10.793  15.322  67.840  0.00  0.00    +0.266 A 
ATOM      2  C   UNL     1     -10.453  16.630  68.167  0.00  0.00    +0.195 A 
ATOM      3  N   UNL     1      -9.753  17.537  67.303  0.00  0.00    -0.284 N 
ATOM      4  C   UNL     1      -8.309  17.720  67.440  0.00  0.00    +0.124 C 
ATOM      5  C   UNL     1      -8.137  19.148  67.942  0.00  0.00    +0.164 C 
ATOM      6  O   UNL     1      -8.531  20.006  66.908  0.00  0.00    -0.350 OA
ATOM      7  C   UNL     1      -9.910  19.949  66.832  0.00  0.00    +0.164 C 
ATOM      8  C   UNL     1     -10.450  18.573  66.573  0.00  0.00    +0.124 C 
ATOM      9  N   UNL     1     -11.091  17.007  69.305  0.00  0.00    -0.172 NA
ATOM     10  S   UNL     1     -11.096  15.551  70.180  0.00  0.00    +0.121 S 
ATOM     11  N   UNL     1     -10.544  14.548  68.926  0.00  0.00    -0.153 NA
ENDROOT
BRANCH   1  12
ATOM     12  O   UNL     1     -11.239  14.983  66.571  0.00  0.00    -0.455 OA
BRANCH  12  13
ATOM     13  C   UNL     1     -12.221  14.178  66.161  0.00  0.00    +0.241 C 
BRANCH  13  14
ATOM     14  C   UNL     1     -11.848  13.351  64.788  0.00  0.00    +0.213 C 
ATOM     15  O   UNL     1     -13.105  12.493  64.799  0.00  0.00    -0.218 OA
BRANCH  14  16
ATOM     16  C   UNL     1     -11.009  12.218  65.648  0.00  0.00    +0.125 C 
BRANCH  16  17
ATOM     17  N   UNL     1     -11.873  11.756  66.673  0.00  0.00    -0.218 NA
BRANCH  17  19
ATOM     18  C   UNL     1     -11.239  10.605  67.467  0.00  0.00    +0.017 C 
ATOM     19  C   UNL     1     -11.152  10.953  67.647  0.00  0.00    +0.060 C 
ATOM     20  C   UNL     1     -11.734  11.124  69.054  0.00  0.00    +0.017 C 
ATOM     21  C   UNL     1      -9.673  11.303  67.722  0.00  0.00    +0.017 C 
ENDBRANCH  17  19
ENDBRANCH  16  17
ENDBRANCH  14  16
ENDBRANCH  13  14
ENDBRANCH  12  13
ENDBRANCH   1  12
TORSDOF 6
ENDMDL
MODEL 8
REMARK VINA RESULT:      -5.8      2.512      3.143
REMARK  Name = 
REMARK  6 active torsions:
REMARK  status: ('A' for Active; 'I' for Inactive)
REMARK    1  A    between atoms: C_2  and  N_5
REMARK    2  A    between atoms: N_5  and  C_6
REMARK    3  A    between atoms: C_6  and  C_7
REMARK    4  A    between atoms: C_7  and  C_9
REMARK    5  A    between atoms: C_9  and  O_10
REMARK    6  A    between atoms: O_10  and  C_11
REMARK                            x       y       z     vdW  Elec       q    Type
REMARK                         _______ _______ _______ _____ _____    ______ ____
ROOT
ATOM      1  C   UNL     1     -11.181  10.823  67.414  0.00  0.00    +0.266 A 
ATOM      2  C   UNL     1     -10.922  11.667  66.340  0.00  0.00    +0.195 A 
ATOM      3  N   UNL     1     -11.893  12.513  65.708  0.00  0.00    -0.284 N 
ATOM      4  C   UNL     1     -12.565  12.080  64.484  0.00  0.00    +0.124 C 
ATOM      5  C   UNL     1     -12.052  13.017  63.397  0.00  0.00    +0.164 C 
ATOM      6  O   UNL     1     -12.555  14.294  63.674  0.00  0.00    -0.350 OA
ATOM      7  C   UNL     1     -11.853  14.786  64.759  0.00  0.00    +0.164 C 
ATOM      8  C   UNL     1     -11.953  13.931  65.989  0.00  0.00    +0.124 C 
ATOM      9  N   UNL     1      -9.582  11.767  66.137  0.00  0.00    -0.172 NA
ATOM     10  S   UNL     1      -9.068  10.198  66.536  0.00  0.00    +0.121 S 
ATOM     11  N   UNL     1     -10.541   9.650  67.178  0.00  0.00    -0.153 NA
ENDROOT
BRANCH   1  12
ATOM     12  O   UNL     1     -12.013  11.206  68.455  0.00  0.00    -0.455 OA
BRANCH  12  13
ATOM     13  C   UNL     1     -12.525  10.523  69.480  0.00  0.00    +0.241 C 
BRANCH  13  14
ATOM     14  C   UNL     1     -11.928  11.002  70.937  0.00  0.00    +0.213 C 
ATOM     15  O   UNL     1     -13.199  10.691  71.714  0.00  0.00    -0.218 OA
BRANCH  14  16
ATOM     16  C   UNL     1     -12.414  12.557  70.672  0.00  0.00    +0.125 C 
BRANCH  16  17
ATOM     17  N   UNL     1     -13.211  12.935  71.782  0.00  0.00    -0.218 NA
BRANCH  17  19
ATOM     18  C   UNL     1     -13.069  14.450  71.579  0.00  0.00    +0.017 C 
ATOM     19  C   UNL     1     -13.326  14.382  71.880  0.00  0.00    +0.060 C 
ATOM     20  C   UNL     1     -12.875  14.886  73.254  0.00  0.00    +0.017 C 
ATOM     21  C   UNL     1     -14.747  14.878  71.657  0.00  0.00    +0.017 C 
ENDBRANCH  17  19
ENDBRANCH  16  17
ENDBRANCH  14  16
ENDBRANCH  13  14
ENDBRANCH  12  13
ENDBRANCH   1  12
TORSDOF 6
ENDMDL
MODEL 9
REMARK VINA RESULT:      -5.8      2.173      2.812
REMARK  Name = 
REMARK  6 active torsions:
REMARK  status: ('A' for Active; 'I' for Inactive)
REMARK    1  A    between atoms: C_2  and  N_5
REMARK    2  A    between atoms: N_5  and  C_6
REMARK    3  A    between atoms: C_6  and  C_7
REMARK    4  A    between atoms: C_7  and  C_9
REMARK    5  A    between atoms: C_9  and  O_10
REMARK    6  A    between atoms: O_10  and  C_11
REMARK                            x       y       z     vdW  Elec       q    Type
REMARK                         _______ _______ _______ _____ _____    ______ ____
ROOT
ATOM      1  C   UNL     1      -9.128  14.656  67.590  0.00  0.00    +0.266 A 
ATOM      2  C   UNL     1      -9.770  14.480  66.370  0.00  0.00    +0.195 A 
ATOM      3  N   UNL     1     -10.494  13.303  65.985  0.00  0.00    -0.284 N 
ATOM      4  C   UNL     1      -9.854  12.279  65.161  0.00  0.00    +0.124 C 
ATOM      5  C   UNL     1     -10.585  12.331  63.825  0.00  0.00    +0.164 C 
ATOM      6  O   UNL     1     -11.891  11.878  64.044  0.00  0.00    -0.350 OA
ATOM      7  C   UNL     1     -12.565  12.879  64.719  0.00  0.00    +0.164 C 
ATOM      8  C   UNL     1     -11.939  13.257  66.030  0.00  0.00    +0.124 C 
ATOM      9  N   UNL     1      -9.831  15.660  65.700  0.00  0.00    -0.172 NA
ATOM     10  S   UNL     1      -8.356  16.373  66.148  0.00  0.00    +0.121 S 
ATOM     11  N   UNL     1      -7.931  15.245  67.344  0.00  0.00    -0.153 NA
ENDROOT
BRANCH   1  12
ATOM     12  O   UNL     1      -9.690  14.209  68.777  0.00  0.00    -0.455 OA
BRANCH  12  13
ATOM     13  C   UNL     1     -10.438  14.827  69.692  0.00  0.00    +0.241 C 
BRANCH  13  14
ATOM     14  C   UNL     1     -11.838  15.438  69.078  0.00  0.00    +0.213 C 
ATOM     15  O   UNL     1     -11.321  16.864  68.953  0.00  0.00    -0.218 OA
BRANCH  14  16
ATOM     16  C   UNL     1     -12.423  15.732  70.594  0.00  0.00    +0.125 C 
BRANCH  16  17
ATOM     17  N   UNL     1     -12.328  14.516  71.316  0.00  0.00    -0.218 NA
BRANCH  17  19
ATOM     18  C   UNL     1     -13.274  14.068  72.440  0.00  0.00    +0.017 C 
ATOM     19  C   UNL     1     -13.305  14.466  72.393  0.00  0.00    +0.060 C 
ATOM     20  C   UNL     1     -14.674  14.969  71.930  0.00  0.00    +0.017 C 
ATOM     21  C   UNL     1     -12.897  15.301  73.598  0.00  0.00    +0.017 C 
ENDBRANCH  17  19
ENDBRANCH  16  17
ENDBRANCH  14  16
ENDBRANCH  13  14
ENDBRANCH  12  13
ENDBRANCH   1  12
TORSDOF 6
ENDMDL
