MODEL 1
REMARK VINA RESULT:      -6.2      0.000      0.000
REMARK  Name = 
REMARK  6 active torsions:
REMARK  status: ('A' for Active; 'I' for Inactive)
REMARK    1  A    between atoms: N_2  and  C_4
REMARK    2  A    between atoms: C_4  and  C_5
REMARK    3  A    between atoms: C_5  and  O_6
REMARK    4  A    between atoms: O_6  and  C_7
REMARK    5  A    between atoms: C_7  and  C_8
REMARK    6  A    between atoms: C_7  and  C_15
REMARK                            x       y       z     vdW  Elec       q    Type
REMARK                         _______ _______ _______ _____ _____    ______ ____
ROOT
ATOM      1  C   UNL     1     -11.055  14.436  69.145  0.00  0.00    +0.177 C 
ENDROOT
BRANCH   1   2
ATOM      2  C   UNL     1     -11.703  13.619  67.861  0.00  0.00    +0.010 A 
ATOM      3  C   UNL     1     -11.163  12.374  67.693  0.00  0.00    -0.001 A 
ATOM      4  C   UNL     1     -11.257  11.742  66.456  0.00  0.00    +0.011 A 
ATOM      5  C   UNL     1     -11.489  12.578  65.376  0.00  0.00    +0.058 A 
ATOM      6 CL   UNL     1     -10.672  12.402  63.828  0.00  0.00    -0.082 Cl
ATOM      7  C   UNL     1     -12.355  13.634  65.637  0.00  0.00    +0.011 A 
ATOM      8  C   UNL     1     -12.288  14.274  66.874  0.00  0.00    -0.001 A 
ENDBRANCH   1   2
BRANCH   1   9
ATOM      9  C   UNL     1     -12.411  14.305  70.103  0.00  0.00    +0.090 A 
ATOM     10  N   UNL     1     -12.302  13.244  70.944  0.00  0.00    -0.245 NA
ATOM     11  C   UNL     1     -13.370  13.076  71.764  0.00  0.00    +0.099 A 
ATOM     12  C   UNL     1     -13.954  14.245  72.237  0.00  0.00    +0.021 A 
ATOM     13  C   UNL     1     -13.571  15.495  71.763  0.00  0.00    +0.003 A 
ATOM     14  C   UNL     1     -12.668  15.518  70.738  0.00  0.00    +0.018 A 
ENDBRANCH   1   9
BRANCH   1  15
ATOM     15  O   UNL     1     -11.548  15.809  68.596  0.00  0.00    -0.344 OA
BRANCH  15  16
ATOM     16  C   UNL     1     -10.373  16.583  68.577  0.00  0.00    +0.160 C 
BRANCH  16  17
ATOM     17  C   UNL     1     -10.504  17.458  67.336  0.00  0.00    +0.105 C 
BRANCH  17  19
ATOM     18  C   UNL     1     -10.523  19.625  66.481  0.00  0.00    +0.090 C 
ATOM     19  N   UNL     1     -10.723  18.843  67.659  0.00  0.00    -0.268 NA
ATOM     20  C   UNL     1      -9.774  19.324  68.627  0.00  0.00    +0.090 C 
ENDBRANCH  17  19
ENDBRANCH  16  17
ENDBRANCH  15  16
ENDBRANCH   1  15
TORSDOF 6
ENDMDL
MODEL 2
REMARK VINA RESULT:      -5.9      2.520      4.118
REMARK  Name = 
REMARK  6 active torsions:
REMARK  status: ('A' for Active; 'I' for Inactive)
REMARK    1  A    between atoms: N_2  and  C_4
REMARK    2  A    between atoms: C_4  and  C_5
REMARK    3  A    between atoms: C_5  and  O_6
REMARK    4  A    between atoms: O_6  and  C_7
REMARK    5  A    between atoms: C_7  and  C_8
REMARK    6  A    between atoms: C_7  and  C_15
REMARK                            x       y       z     vdW  Elec       q    Type
REMARK                         _______ _______ _______ _____ _____    ______ ____
ROOT
ATOM      1  C   UNL     1     -10.732  14.074  68.752  0.00  0.00    +0.177 C 
ENDROOT
BRANCH   1   2
ATOM      2  C   UNL     1     -11.065  14.358  67.156  0.00  0.00    +0.010 A 
ATOM      3  C   UNL     1     -12.261  13.829  66.758  0.00  0.00    -0.001 A 
ATOM      4  C   UNL     1     -12.493  13.589  65.406  0.00  0.00    +0.011 A 
ATOM      5  C   UNL     1     -11.361  13.484  64.616  0.00  0.00    +0.058 A 
ATOM      6 CL   UNL     1     -11.172  12.270  63.357  0.00  0.00    -0.082 Cl
ATOM      7  C   UNL     1     -10.334  14.357  64.957  0.00  0.00    +0.011 A 
ATOM      8  C   UNL     1     -10.091  14.622  66.304  0.00  0.00    -0.001 A 
ENDBRANCH   1   2
BRANCH   1   9
ATOM      9  C   UNL     1     -11.043  12.439  68.679  0.00  0.00    +0.090 A 
ATOM     10  N   UNL     1      -9.896  11.742  68.474  0.00  0.00    -0.245 NA
ATOM     11  C   UNL     1     -10.069  10.398  68.409  0.00  0.00    +0.099 A 
ATOM     12  C   UNL     1     -11.023   9.873  69.273  0.00  0.00    +0.021 A 
ATOM     13  C   UNL     1     -11.857  10.694  70.024  0.00  0.00    +0.003 A 
ATOM     14  C   UNL     1     -11.767  12.039  69.800  0.00  0.00    +0.018 A 
ENDBRANCH   1   9
BRANCH   1  15
ATOM     15  O   UNL     1     -12.206  14.359  69.171  0.00  0.00    -0.344 OA
BRANCH  15  16
ATOM     16  C   UNL     1     -12.118  15.612  69.803  0.00  0.00    +0.160 C 
BRANCH  16  17
ATOM     17  C   UNL     1     -12.242  15.306  71.291  0.00  0.00    +0.105 C 
BRANCH  17  19
ATOM     18  C   UNL     1     -13.287  15.933  73.277  0.00  0.00    +0.090 C 
ATOM     19  N   UNL     1     -13.454  15.830  71.863  0.00  0.00    -0.268 NA
ATOM     20  C   UNL     1     -14.570  14.947  71.654  0.00  0.00    +0.090 C 
ENDBRANCH  17  19
ENDBRANCH  16  17
ENDBRANCH  15  16
ENDBRANCH   1  15
TORSDOF 6
ENDMDL
MODEL 3
REMARK VINA RESULT:      -5.9      1.432      4.597
REMARK  Name = 
REMARK  6 active torsions:
REMARK  status: ('A' for Active; 'I' for Inactive)
REMARK    1  A    between atoms: N_2  and  C_4
REMARK    2  A    between atoms: C_4  and  C_5
REMARK    3  A    between atoms: C_5  and  O_6
REMARK    4  A    between atoms: O_6  and  C_7
REMARK    5  A    between atoms: C_7  and  C_8
REMARK    6  A    between atoms: C_7  and  C_15
REMARK                            x       y       z     vdW  Elec       q    Type
REMARK                         _______ _______ _______ _____ _____    ______ ____
ROOT
ATOM      1  C   UNL     1     -11.733  15.335  68.253  0.00  0.00    +0.177 C 
ENDROOT
BRANCH   1   2
ATOM      2  C   UNL     1     -11.209  14.165  67.207  0.00  0.00    +0.010 A 
ATOM      3  C   UNL     1     -10.791  14.670  66.007  0.00  0.00    -0.001 A 
ATOM      4  C   UNL     1     -10.740  13.841  64.890  0.00  0.00    +0.011 A 
ATOM      5  C   UNL     1     -11.523  12.700  64.957  0.00  0.00    +0.058 A 
ATOM      6 CL   UNL     1     -12.484  12.109  63.608  0.00  0.00    -0.082 Cl
ATOM      7  C   UNL     1     -11.568  12.103  66.212  0.00  0.00    +0.011 A 
ATOM      8  C   UNL     1     -11.607  12.913  67.346  0.00  0.00    -0.001 A 
ENDBRANCH   1   2
BRANCH   1   9
ATOM      9  C   UNL     1     -10.453  16.364  67.975  0.00  0.00    +0.090 A 
ATOM     10  N   UNL     1     -10.803  17.648  68.248  0.00  0.00    -0.245 NA
ATOM     11  C   UNL     1      -9.807  18.548  68.050  0.00  0.00    +0.099 A 
ATOM     12  C   UNL     1      -8.532  18.117  68.397  0.00  0.00    +0.021 A 
ATOM     13  C   UNL     1      -8.281  16.797  68.758  0.00  0.00    +0.003 A 
ATOM     14  C   UNL     1      -9.323  15.919  68.658  0.00  0.00    +0.018 A 
ENDBRANCH   1   9
BRANCH   1  15
ATOM     15  O   UNL     1     -10.978  14.684  69.451  0.00  0.00    -0.344 OA
BRANCH  15  16
ATOM     16  C   UNL     1     -12.000  14.483  70.397  0.00  0.00    +0.160 C 
BRANCH  16  17
ATOM     17  C   UNL     1     -12.110  15.811  71.138  0.00  0.00    +0.105 C 
BRANCH  17  19
ATOM     18  C   UNL     1     -12.947  15.486  73.288  0.00  0.00    +0.090 C 
ATOM     19  N   UNL     1     -13.287  15.888  71.960  0.00  0.00    -0.268 NA
ATOM     20  C   UNL     1     -14.311  14.980  71.517  0.00  0.00    +0.090 C 
ENDBRANCH  17  19
ENDBRANCH  16  17
ENDBRANCH  15  16
ENDBRANCH   1  15
TORSDOF 6
ENDMDL
MODEL 4
REMARK VINA RESULT:      -5.8      2.477      4.280
REMARK  Name = 
REMARK  6 active torsions:
REMARK  status: ('A' for Active; 'I' for Inactive)
REMARK    1  A    between atoms: N_2  and  C_4
REMARK    2  A    between atoms: C_4  and  C_5
REMARK    3  A    between atoms: C_5  and  O_6
REMARK    4  A    between atoms: O_6  and  C_7
REMARK    5  A    between atoms: C_7  and  C_8
REMARK    6  A    between atoms: C_7  and  C_15
REMARK                            x       y       z     vdW  Elec       q    Type
REMARK                         _______ _______ _______ _____ _____    ______ ____
ROOT
ATOM      1  C   UNL     1     -11.898  15.744  69.191  0.00  0.00    +0.177 C 
ENDROOT
BRANCH   1   2
ATOM      2  C   UNL     1     -10.336  16.286  69.273  0.00  0.00    +0.010 A 
ATOM      3  C   UNL     1     -10.165  17.512  68.693  0.00  0.00    -0.001 A 
ATOM      4  C   UNL     1      -8.895  17.911  68.286  0.00  0.00    +0.011 A 
ATOM      5  C   UNL     1      -7.982  16.888  68.089  0.00  0.00    +0.058 A 
ATOM      6 CL   UNL     1      -6.869  16.839  66.729  0.00  0.00    -0.082 Cl
ATOM      7  C   UNL     1      -8.077  15.844  69.002  0.00  0.00    +0.011 A 
ATOM      8  C   UNL     1      -9.338  15.435  69.434  0.00  0.00    -0.001 A 
ENDBRANCH   1   2
BRANCH   1   9
ATOM      9  C   UNL     1     -11.950  15.207  70.766  0.00  0.00    +0.090 A 
ATOM     10  N   UNL     1     -12.019  16.255  71.628  0.00  0.00    -0.245 NA
ATOM     11  C   UNL     1     -12.071  15.896  72.935  0.00  0.00    +0.099 A 
ATOM     12  C   UNL     1     -12.814  14.754  73.214  0.00  0.00    +0.021 A 
ATOM     13  C   UNL     1     -13.320  13.948  72.200  0.00  0.00    +0.003 A 
ATOM     14  C   UNL     1     -12.970  14.270  70.919  0.00  0.00    +0.018 A 
ENDBRANCH   1   9
BRANCH   1  15
ATOM     15  O   UNL     1     -11.446  14.335  68.702  0.00  0.00    -0.344 OA
BRANCH  15  16
ATOM     16  C   UNL     1     -11.999  14.257  67.410  0.00  0.00    +0.160 C 
BRANCH  16  17
ATOM     17  C   UNL     1     -10.898  13.642  66.554  0.00  0.00    +0.105 C 
BRANCH  17  19
ATOM     18  C   UNL     1     -10.339  15.618  65.455  0.00  0.00    +0.090 C 
ATOM     19  N   UNL     1     -10.783  14.274  65.267  0.00  0.00    -0.268 NA
ATOM     20  C   UNL     1     -12.052  14.360  64.597  0.00  0.00    +0.090 C 
ENDBRANCH  17  19
ENDBRANCH  16  17
ENDBRANCH  15  16
ENDBRANCH   1  15
TORSDOF 6
ENDMDL
MODEL 5
REMARK VINA RESULT:      -5.8      2.885      5.272
REMARK  Name = 
REMARK  6 active torsions:
REMARK  status: ('A' for Active; 'I' for Inactive)
REMARK    1  A    between atoms: N_2  and  C_4
REMARK    2  A    between atoms: C_4  and  C_5
REMARK    3  A    between atoms: C_5  and  O_6
REMARK    4  A    between atoms: O_6  and  C_7
REMARK    5  A    between atoms: C_7  and  C_8
REMARK    6  A    between atoms: C_7  and  C_15
REMARK                            x       y       z     vdW  Elec       q    Type
REMARK                         _______ _______ _______ _____ _____    ______ ____
ROOT
ATOM      1  C   UNL     1     -10.950  16.223  67.391  0.00  0.00    +0.177 C 
ENDROOT
BRANCH   1   2
ATOM      2  C   UNL     1     -10.147  17.543  67.985  0.00  0.00    +0.010 A 
ATOM      3  C   UNL     1     -10.590  18.721  67.452  0.00  0.00    -0.001 A 
ATOM      4  C   UNL     1      -9.771  19.847  67.492  0.00  0.00    +0.011 A 
ATOM      5  C   UNL     1      -8.419  19.596  67.661  0.00  0.00    +0.058 A 
ATOM      6 CL   UNL     1      -7.162  20.445  66.770  0.00  0.00    -0.082 Cl
ATOM      7  C   UNL     1      -8.129  18.547  68.526  0.00  0.00    +0.011 A 
ATOM      8  C   UNL     1      -8.942  17.415  68.512  0.00  0.00    -0.001 A 
ENDBRANCH   1   2
BRANCH   1   9
ATOM      9  C   UNL     1     -11.171  15.505  68.877  0.00  0.00    +0.090 A 
ATOM     10  N   UNL     1     -12.117  16.166  69.594  0.00  0.00    -0.245 NA
ATOM     11  C   UNL     1     -12.358  15.634  70.818  0.00  0.00    +0.099 A 
ATOM     12  C   UNL     1     -12.319  14.246  70.887  0.00  0.00    +0.021 A 
ATOM     13  C   UNL     1     -11.892  13.474  69.812  0.00  0.00    +0.003 A 
ATOM     14  C   UNL     1     -11.417  14.143  68.719  0.00  0.00    +0.018 A 
ENDBRANCH   1   9
BRANCH   1  15
ATOM     15  O   UNL     1      -9.622  15.435  67.183  0.00  0.00    -0.344 OA
BRANCH  15  16
ATOM     16  C   UNL     1      -9.556  15.292  65.785  0.00  0.00    +0.160 C 
BRANCH  16  17
ATOM     17  C   UNL     1     -11.005  15.353  65.319  0.00  0.00    +0.105 C 
BRANCH  17  19
ATOM     18  C   UNL     1     -12.562  13.621  65.244  0.00  0.00    +0.090 C 
ATOM     19  N   UNL     1     -11.407  14.169  64.608  0.00  0.00    -0.268 NA
ATOM     20  C   UNL     1     -10.397  13.146  64.658  0.00  0.00    +0.090 C 
ENDBRANCH  17  19
ENDBRANCH  16  17
ENDBRANCH  15  16
ENDBRANCH   1  15
TORSDOF 6
ENDMDL
MODEL 6
REMARK VINA RESULT:      -5.8      2.597      5.784
REMARK  Name = 
REMARK  6 active torsions:
REMARK  status: ('A' for Active; 'I' for Inactive)
REMARK    1  A    between atoms: N_2  and  C_4
REMARK    2  A    between atoms: C_4  and  C_5
REMARK    3  A    between atoms: C_5  and  O_6
REMARK    4  A    between atoms: O_6  and  C_7
REMARK    5  A    between atoms: C_7  and  C_8
REMARK    6  A    between atoms: C_7  and  C_15
REMARK                            x       y       z     vdW  Elec       q    Type
REMARK                         _______ _______ _______ _____ _____    ______ ____
ROOT
ATOM      1  C   UNL     1     -10.013  15.457  68.231  0.00  0.00    +0.177 C 
ENDROOT
BRANCH   1   2
ATOM      2  C   UNL     1     -10.780  15.163  69.667  0.00  0.00    +0.010 A 
ATOM      3  C   UNL     1     -11.446  13.969  69.682  0.00  0.00    -0.001 A 
ATOM      4  C   UNL     1     -12.473  13.764  70.599  0.00  0.00    +0.011 A 
ATOM      5  C   UNL     1     -13.041  14.912  71.126  0.00  0.00    +0.058 A 
ATOM      6 CL   UNL     1     -14.774  15.112  71.356  0.00  0.00    -0.082 Cl
ATOM      7  C   UNL     1     -12.141  15.942  71.373  0.00  0.00    +0.011 A 
ATOM      8  C   UNL     1     -11.097  16.159  70.475  0.00  0.00    -0.001 A 
ENDBRANCH   1   2
BRANCH   1   9
ATOM      9  C   UNL     1     -10.058  17.115  68.376  0.00  0.00    +0.090 A 
ATOM     10  N   UNL     1      -8.806  17.617  68.533  0.00  0.00    -0.245 NA
ATOM     11  C   UNL     1      -8.761  18.968  68.652  0.00  0.00    +0.099 A 
ATOM     12  C   UNL     1      -9.667  19.670  67.865  0.00  0.00    +0.021 A 
ATOM     13  C   UNL     1     -10.660  19.020  67.140  0.00  0.00    +0.003 A 
ATOM     14  C   UNL     1     -10.770  17.670  67.315  0.00  0.00    +0.018 A 
ENDBRANCH   1   9
BRANCH   1  15
ATOM     15  O   UNL     1     -11.359  15.466  67.446  0.00  0.00    -0.344 OA
BRANCH  15  16
ATOM     16  C   UNL     1     -11.104  14.593  66.372  0.00  0.00    +0.160 C 
BRANCH  16  17
ATOM     17  C   UNL     1     -12.473  14.052  65.978  0.00  0.00    +0.105 C 
BRANCH  17  19
ATOM     18  C   UNL     1     -11.345  12.044  66.335  0.00  0.00    +0.090 C 
ATOM     19  N   UNL     1     -12.437  12.653  65.644  0.00  0.00    -0.268 NA
ATOM     20  C   UNL     1     -12.192  12.444  64.243  0.00  0.00    +0.090 C 
ENDBRANCH  17  19
ENDBRANCH  16  17
ENDBRANCH  15  16
ENDBRANCH   1  15
TORSDOF 6
ENDMDL
MODEL 7
REMARK VINA RESULT:      -5.7      2.466      5.865
REMARK  Name = 
REMARK  6 active torsions:
REMARK  status: ('A' for Active; 'I' for Inactive)
REMARK    1  A    between atoms: N_2  and  C_4
REMARK    2  A    between atoms: C_4  and  C_5
REMARK    3  A    between atoms: C_5  and  O_6
REMARK    4  A    between atoms: O_6  and  C_7
REMARK    5  A    between atoms: C_7  and  C_8
REMARK    6  A    between atoms: C_7  and  C_15
REMARK                            x       y       z     vdW  Elec       q    Type
REMARK                         _______ _______ _______ _____ _____    ______ ____
ROOT
ATOM      1  C   UNL     1     -10.357  14.828  68.842  0.00  0.00    +0.177 C 
ENDROOT
BRANCH   1   2
ATOM      2  C   UNL     1      -9.720  16.354  68.876  0.00  0.00    +0.010 A 
ATOM      3  C   UNL     1     -10.594  17.307  68.433  0.00  0.00    -0.001 A 
ATOM      4  C   UNL     1     -10.109  18.534  67.986  0.00  0.00    +0.011 A 
ATOM      5  C   UNL     1      -8.777  18.546  67.606  0.00  0.00    +0.058 A 
ATOM      6 CL   UNL     1      -8.191  19.382  66.174  0.00  0.00    -0.082 Cl
ATOM      7  C   UNL     1      -7.943  17.763  68.395  0.00  0.00    +0.011 A 
ATOM      8  C   UNL     1      -8.411  16.536  68.865  0.00  0.00    -0.001 A 
ENDBRANCH   1   2
BRANCH   1   9
ATOM      9  C   UNL     1     -10.921  14.938  67.279  0.00  0.00    +0.090 A 
ATOM     10  N   UNL     1      -9.930  14.663  66.392  0.00  0.00    -0.245 NA
ATOM     11  C   UNL     1     -10.316  14.726  65.093  0.00  0.00    +0.099 A 
ATOM     12  C   UNL     1     -11.598  14.262  64.825  0.00  0.00    +0.021 A 
ATOM     13  C   UNL     1     -12.478  13.919  65.846  0.00  0.00    +0.003 A 
ATOM     14  C   UNL     1     -12.063  14.155  67.126  0.00  0.00    +0.018 A 
ENDBRANCH   1   9
BRANCH   1  15
ATOM     15  O   UNL     1     -11.727  15.323  69.395  0.00  0.00    -0.344 OA
BRANCH  15  16
ATOM     16  C   UNL     1     -11.769  14.762  70.685  0.00  0.00    +0.160 C 
BRANCH  16  17
ATOM     17  C   UNL     1     -12.463  15.812  71.543  0.00  0.00    +0.105 C 
BRANCH  17  19
ATOM     18  C   UNL     1     -12.443  15.250  73.804  0.00  0.00    +0.090 C 
ATOM     19  N   UNL     1     -13.230  15.231  72.613  0.00  0.00    -0.268 NA
ATOM     20  C   UNL     1     -13.543  13.851  72.360  0.00  0.00    +0.090 C 
ENDBRANCH  17  19
ENDBRANCH  16  17
ENDBRANCH  15  16
ENDBRANCH   1  15
TORSDOF 6
ENDMDL
MODEL 8
REMARK VINA RESULT:      -5.6      2.789      5.696
REMARK  Name = 
REMARK  6 active torsions:
REMARK  status: ('A' for Active; 'I' for Inactive)
REMARK    1  A    between atoms: N_2  and  C_4
REMARK    2  A    between atoms: C_4  and  C_5
REMARK    3  A    between atoms: C_5  and  O_6
REMARK    4  A    between atoms: O_6  and  C_7
REMARK    5  A    between atoms: C_7  and  C_8
REMARK    6  A    between atoms: C_7  and  C_15
REMARK                            x       y       z     vdW  Elec       q    Type
REMARK                         _______ _______ _______ _____ _____    ______ ____
ROOT
ATOM      1  C   UNL     1     -10.403  13.943  67.240  0.00  0.00    +0.177 C 
ENDROOT
BRANCH   1   2
ATOM      2  C   UNL     1      -9.780  15.429  66.862  0.00  0.00    +0.010 A 
ATOM      3  C   UNL     1      -8.865  15.872  67.776  0.00  0.00    -0.001 A 
ATOM      4  C   UNL     1      -8.579  17.232  67.862  0.00  0.00    +0.011 A 
ATOM      5  C   UNL     1      -9.542  18.079  67.338  0.00  0.00    +0.058 A 
ATOM      6 CL   UNL     1     -10.047  19.569  68.125  0.00  0.00    -0.082 Cl
ATOM      7  C   UNL     1     -10.156  17.612  66.181  0.00  0.00    +0.011 A 
ATOM      8  C   UNL     1     -10.441  16.252  66.068  0.00  0.00    -0.001 A 
ENDBRANCH   1   2
BRANCH   1   9
ATOM      9  C   UNL     1     -10.938  13.612  65.698  0.00  0.00    +0.090 A 
ATOM     10  N   UNL     1     -10.082  12.768  65.065  0.00  0.00    -0.245 NA
ATOM     11  C   UNL     1     -10.455  12.445  63.801  0.00  0.00    +0.099 A 
ATOM     12  C   UNL     1     -11.821  12.281  63.603  0.00  0.00    +0.021 A 
ATOM     13  C   UNL     1     -12.745  12.595  64.594  0.00  0.00    +0.003 A 
ATOM     14  C   UNL     1     -12.259  13.169  65.734  0.00  0.00    +0.018 A 
ENDBRANCH   1   9
BRANCH   1  15
ATOM     15  O   UNL     1     -11.788  14.554  67.613  0.00  0.00    -0.344 OA
BRANCH  15  16
ATOM     16  C   UNL     1     -11.897  14.274  68.988  0.00  0.00    +0.160 C 
BRANCH  16  17
ATOM     17  C   UNL     1     -12.014  15.639  69.654  0.00  0.00    +0.105 C 
BRANCH  17  19
ATOM     18  C   UNL     1     -11.954  16.103  71.936  0.00  0.00    +0.090 C 
ATOM     19  N   UNL     1     -12.767  15.592  70.879  0.00  0.00    -0.268 NA
ATOM     20  C   UNL     1     -13.105  14.244  71.248  0.00  0.00    +0.090 C 
ENDBRANCH  17  19
ENDBRANCH  16  17
ENDBRANCH  15  16
ENDBRANCH   1  15
TORSDOF 6
ENDMDL
MODEL 9
REMARK VINA RESULT:      -5.6      1.546      4.925
REMARK  Name = 
REMARK  6 active torsions:
REMARK  status: ('A' for Active; 'I' for Inactive)
REMARK    1  A    between atoms: N_2  and  C_4
REMARK    2  A    between atoms: C_4  and  C_5
REMARK    3  A    between atoms: C_5  and  O_6
REMARK    4  A    between atoms: O_6  and  C_7
REMARK    5  A    between atoms: C_7  and  C_8
REMARK    6  A    between atoms: C_7  and  C_15
REMARK                            x       y       z     vdW  Elec       q    Type
REMARK                         _______ _______ _______ _____ _____    ______ ____
ROOT
ATOM      1  C   UNL     1     -11.111  16.556  68.415  0.00  0.00    +0.177 C 
ENDROOT
BRANCH   1   2
ATOM      2  C   UNL     1     -11.055  15.557  67.097  0.00  0.00    +0.010 A 
ATOM      3  C   UNL     1     -11.929  14.509  67.185  0.00  0.00    -0.001 A 
ATOM      4  C   UNL     1     -11.717  13.368  66.415  0.00  0.00    +0.011 A 
ATOM      5  C   UNL     1     -10.423  13.190  65.955  0.00  0.00    +0.058 A 
ATOM      6 CL   UNL     1      -9.606  11.632  65.955  0.00  0.00    -0.082 Cl
ATOM      7  C   UNL     1      -9.777  14.361  65.578  0.00  0.00    +0.011 A 
ATOM      8  C   UNL     1      -9.983  15.519  66.327  0.00  0.00    -0.001 A 
ENDBRANCH   1   2
BRANCH   1   9
ATOM      9  C   UNL     1     -10.204  17.767  67.719  0.00  0.00    +0.090 A 
ATOM     10  N   UNL     1     -10.988  18.832  67.405  0.00  0.00    -0.245 NA
ATOM     11  C   UNL     1     -10.317  19.865  66.838  0.00  0.00    +0.099 A 
ATOM     12  C   UNL     1      -9.042  20.101  67.340  0.00  0.00    +0.021 A 
ATOM     13  C   UNL     1      -8.440  19.228  68.240  0.00  0.00    +0.003 A 
ATOM     14  C   UNL     1      -9.114  18.076  68.530  0.00  0.00    +0.018 A 
ENDBRANCH   1   9
BRANCH   1  15
ATOM     15  O   UNL     1      -9.828  15.917  69.027  0.00  0.00    -0.344 OA
BRANCH  15  16
ATOM     16  C   UNL     1     -10.326  15.203  70.132  0.00  0.00    +0.160 C 
BRANCH  16  17
ATOM     17  C   UNL     1     -11.506  16.030  70.628  0.00  0.00    +0.105 C 
BRANCH  17  19
ATOM     18  C   UNL     1     -13.602  15.293  71.331  0.00  0.00    +0.090 C 
ATOM     19  N   UNL     1     -12.224  15.384  71.694  0.00  0.00    -0.268 NA
ATOM     20  C   UNL     1     -12.179  16.148  72.911  0.00  0.00    +0.090 C 
ENDBRANCH  17  19
ENDBRANCH  16  17
ENDBRANCH  15  16
ENDBRANCH   1  15
TORSDOF 6
ENDMDL
