MODEL 1
REMARK VINA RESULT:      -5.3      0.000      0.000
REMARK  Name = 
REMARK  4 active torsions:
REMARK  status: ('A' for Active; 'I' for Inactive)
REMARK    1  A    between atoms: C_2  and  C_3
REMARK    2  A    between atoms: C_3  and  C_4
REMARK    3  A    between atoms: C_3  and  C_8
REMARK    4  A    between atoms: C_4  and  C_5
REMARK                            x       y       z     vdW  Elec       q    Type
REMARK                         _______ _______ _______ _____ _____    ______ ____
ROOT
ATOM      1  C   UNL     1     -11.846  14.338  65.195  0.00  0.00    +0.053 C 
ENDROOT
BRANCH   1   2
ATOM      2  C   UNL     1     -11.357  14.068  66.702  0.00  0.00    -0.020 A 
ATOM      3  C   UNL     1     -11.454  15.039  67.627  0.00  0.00    -0.003 A 
ATOM      4  C   UNL     1     -11.277  14.689  68.960  0.00  0.00    +0.011 A 
ATOM      5  C   UNL     1     -11.845  13.483  69.359  0.00  0.00    +0.058 A 
ATOM      6 CL   UNL     1     -12.503  13.354  70.962  0.00  0.00    -0.082 Cl
ATOM      7  C   UNL     1     -11.736  12.435  68.470  0.00  0.00    +0.011 A 
ATOM      8  C   UNL     1     -11.696  12.785  67.124  0.00  0.00    -0.003 A 
ENDBRANCH   1   2
BRANCH   1  10
ATOM      9  N   UNL     1     -11.557  16.458  64.037  0.00  0.00    -0.131 NA
ATOM     10  C   UNL     1     -10.886  15.659  65.013  0.00  0.00    +0.114 C 
ENDBRANCH   1  10
BRANCH   1  11
ATOM     11  C   UNL     1     -10.725  13.362  64.493  0.00  0.00    +0.120 C 
BRANCH  11  12
ATOM     12  C   UNL     1     -11.494  12.533  63.513  0.00  0.00    +0.365 C 
ATOM     13  O   UNL     1     -11.074  11.201  63.437  0.00  0.00    -0.246 OA
ATOM     14  O   UNL     1     -12.731  12.752  63.456  0.00  0.00    -0.246 OA
ENDBRANCH  11  12
ENDBRANCH   1  11
TORSDOF 4
ENDMDL
MODEL 2
REMARK VINA RESULT:      -5.2      2.438      3.044
REMARK  Name = 
REMARK  4 active torsions:
REMARK  status: ('A' for Active; 'I' for Inactive)
REMARK    1  A    between atoms: C_2  and  C_3
REMARK    2  A    between atoms: C_3  and  C_4
REMARK    3  A    between atoms: C_3  and  C_8
REMARK    4  A    between atoms: C_4  and  C_5
REMARK                            x       y       z     vdW  Elec       q    Type
REMARK                         _______ _______ _______ _____ _____    ______ ____
ROOT
ATOM      1  C   UNL     1     -10.994  13.298  65.154  0.00  0.00    +0.053 C 
ENDROOT
BRANCH   1   2
ATOM      2  C   UNL     1     -10.794  12.697  66.632  0.00  0.00    -0.020 A 
ATOM      3  C   UNL     1     -11.292  13.349  67.698  0.00  0.00    -0.003 A 
ATOM      4  C   UNL     1     -11.335  12.673  68.911  0.00  0.00    +0.011 A 
ATOM      5  C   UNL     1     -11.705  11.333  68.856  0.00  0.00    +0.058 A 
ATOM      6 CL   UNL     1     -12.649  10.668  70.155  0.00  0.00    -0.082 Cl
ATOM      7  C   UNL     1     -11.187  10.601  67.809  0.00  0.00    +0.011 A 
ATOM      8  C   UNL     1     -10.935  11.312  66.640  0.00  0.00    -0.003 A 
ENDBRANCH   1   2
BRANCH   1  10
ATOM      9  N   UNL     1     -12.706  12.571  63.585  0.00  0.00    -0.131 NA
ATOM     10  C   UNL     1     -12.507  12.674  64.996  0.00  0.00    +0.114 C 
ENDBRANCH   1  10
BRANCH   1  11
ATOM     11  C   UNL     1     -11.588  14.746  65.657  0.00  0.00    +0.120 C 
BRANCH  11  12
ATOM     12  C   UNL     1     -10.831  15.768  64.869  0.00  0.00    +0.365 C 
ATOM     13  O   UNL     1     -11.620  16.504  63.978  0.00  0.00    -0.246 OA
ATOM     14  O   UNL     1      -9.930  16.389  65.489  0.00  0.00    -0.246 OA
ENDBRANCH  11  12
ENDBRANCH   1  11
TORSDOF 4
ENDMDL
MODEL 3
REMARK VINA RESULT:      -5.1      2.931      3.772
REMARK  Name = 
REMARK  4 active torsions:
REMARK  status: ('A' for Active; 'I' for Inactive)
REMARK    1  A    between atoms: C_2  and  C_3
REMARK    2  A    between atoms: C_3  and  C_4
REMARK    3  A    between atoms: C_3  and  C_8
REMARK    4  A    between atoms: C_4  and  C_5
REMARK                            x       y       z     vdW  Elec       q    Type
REMARK                         _______ _______ _______ _____ _____    ______ ____
ROOT
ATOM      1  C   UNL     1     -10.811  13.352  66.585  0.00  0.00    +0.053 C 
ENDROOT
BRANCH   1   2
ATOM      2  C   UNL     1     -10.206  14.755  67.086  0.00  0.00    -0.020 A 
ATOM      3  C   UNL     1      -9.655  15.605  66.202  0.00  0.00    -0.003 A 
ATOM      4  C   UNL     1      -9.393  16.903  66.625  0.00  0.00    +0.011 A 
ATOM      5  C   UNL     1     -10.358  17.491  67.435  0.00  0.00    +0.058 A 
ATOM      6 CL   UNL     1     -10.661  19.196  67.278  0.00  0.00    -0.082 Cl
ATOM      7  C   UNL     1     -10.928  16.680  68.392  0.00  0.00    +0.011 A 
ATOM      8  C   UNL     1     -11.006  15.328  68.071  0.00  0.00    -0.003 A 
ENDBRANCH   1   2
BRANCH   1  10
ATOM      9  N   UNL     1     -11.947  11.650  67.901  0.00  0.00    -0.131 NA
ATOM     10  C   UNL     1     -11.381  12.950  68.073  0.00  0.00    +0.114 C 
ENDBRANCH   1  10
BRANCH   1  11
ATOM     11  C   UNL     1     -12.268  13.965  66.134  0.00  0.00    +0.120 C 
BRANCH  11  12
ATOM     12  C   UNL     1     -12.434  13.554  64.705  0.00  0.00    +0.365 C 
ATOM     13  O   UNL     1     -13.191  12.391  64.528  0.00  0.00    -0.246 OA
ATOM     14  O   UNL     1     -12.607  14.486  63.879  0.00  0.00    -0.246 OA
ENDBRANCH  11  12
ENDBRANCH   1  11
TORSDOF 4
ENDMDL
MODEL 4
REMARK VINA RESULT:      -5.1      3.545      4.740
REMARK  Name = 
REMARK  4 active torsions:
REMARK  status: ('A' for Active; 'I' for Inactive)
REMARK    1  A    between atoms: C_2  and  C_3
REMARK    2  A    between atoms: C_3  and  C_4
REMARK    3  A    between atoms: C_3  and  C_8
REMARK    4  A    between atoms: C_4  and  C_5
REMARK                            x       y       z     vdW  Elec       q    Type
REMARK                         _______ _______ _______ _____ _____    ______ ____
ROOT
ATOM      1  C   UNL     1     -12.066  14.415  66.085  0.00  0.00    +0.053 C 
ENDROOT
BRANCH   1   2
ATOM      2  C   UNL     1     -11.981  12.989  65.346  0.00  0.00    -0.020 A 
ATOM      3  C   UNL     1     -12.086  12.916  64.008  0.00  0.00    -0.003 A 
ATOM      4  C   UNL     1     -11.742  11.718  63.393  0.00  0.00    +0.011 A 
ATOM      5  C   UNL     1     -10.621  11.068  63.898  0.00  0.00    +0.058 A 
ATOM      6 CL   UNL     1      -9.585  10.204  62.802  0.00  0.00    -0.082 Cl
ATOM      7  C   UNL     1     -10.482  11.070  65.270  0.00  0.00    +0.011 A 
ATOM      8  C   UNL     1     -11.016  12.172  65.931  0.00  0.00    -0.003 A 
ENDBRANCH   1   2
BRANCH   1  10
ATOM      9  N   UNL     1     -11.721  14.856  68.453  0.00  0.00    -0.131 NA
ATOM     10  C   UNL     1     -11.442  13.837  67.492  0.00  0.00    +0.114 C 
ENDBRANCH   1  10
BRANCH   1  11
ATOM     11  C   UNL     1     -10.590  14.935  65.583  0.00  0.00    +0.120 C 
BRANCH  11  12
ATOM     12  C   UNL     1     -10.780  16.384  65.264  0.00  0.00    +0.365 C 
ATOM     13  O   UNL     1      -9.700  17.197  65.625  0.00  0.00    -0.246 OA
ATOM     14  O   UNL     1     -11.354  16.639  64.174  0.00  0.00    -0.246 OA
ENDBRANCH  11  12
ENDBRANCH   1  11
TORSDOF 4
ENDMDL
MODEL 5
REMARK VINA RESULT:      -5.0      5.525      7.184
REMARK  Name = 
REMARK  4 active torsions:
REMARK  status: ('A' for Active; 'I' for Inactive)
REMARK    1  A    between atoms: C_2  and  C_3
REMARK    2  A    between atoms: C_3  and  C_4
REMARK    3  A    between atoms: C_3  and  C_8
REMARK    4  A    between atoms: C_4  and  C_5
REMARK                            x       y       z     vdW  Elec       q    Type
REMARK                         _______ _______ _______ _____ _____    ______ ____
ROOT
ATOM      1  C   UNL     1     -13.019  14.961  71.375  0.00  0.00    +0.053 C 
ENDROOT
BRANCH   1   2
ATOM      2  C   UNL     1     -11.970  14.775  70.170  0.00  0.00    -0.020 A 
ATOM      3  C   UNL     1     -12.052  13.703  69.364  0.00  0.00    -0.003 A 
ATOM      4  C   UNL     1     -11.311  13.715  68.188  0.00  0.00    +0.011 A 
ATOM      5  C   UNL     1     -11.266  14.924  67.502  0.00  0.00    +0.058 A 
ATOM      6 CL   UNL     1     -11.234  14.903  65.765  0.00  0.00    -0.082 Cl
ATOM      7  C   UNL     1     -11.136  16.058  68.275  0.00  0.00    +0.011 A 
ATOM      8  C   UNL     1     -11.692  15.990  69.548  0.00  0.00    -0.003 A 
ENDBRANCH   1   2
BRANCH   1  10
ATOM      9  N   UNL     1     -14.238  13.162  72.470  0.00  0.00    -0.131 NA
ATOM     10  C   UNL     1     -13.015  13.363  71.758  0.00  0.00    +0.114 C 
ENDBRANCH   1  10
BRANCH   1  11
ATOM     11  C   UNL     1     -11.884  15.291  72.517  0.00  0.00    +0.120 C 
BRANCH  11  12
ATOM     12  C   UNL     1     -12.618  16.037  73.586  0.00  0.00    +0.365 C 
ATOM     13  O   UNL     1     -13.924  16.398  73.239  0.00  0.00    -0.246 OA
ATOM     14  O   UNL     1     -12.422  15.647  74.766  0.00  0.00    -0.246 OA
ENDBRANCH  11  12
ENDBRANCH   1  11
TORSDOF 4
ENDMDL
MODEL 6
REMARK VINA RESULT:      -4.9      1.827      2.303
REMARK  Name = 
REMARK  4 active torsions:
REMARK  status: ('A' for Active; 'I' for Inactive)
REMARK    1  A    between atoms: C_2  and  C_3
REMARK    2  A    between atoms: C_3  and  C_4
REMARK    3  A    between atoms: C_3  and  C_8
REMARK    4  A    between atoms: C_4  and  C_5
REMARK                            x       y       z     vdW  Elec       q    Type
REMARK                         _______ _______ _______ _____ _____    ______ ____
ROOT
ATOM      1  C   UNL     1     -11.227  14.852  66.799  0.00  0.00    +0.053 C 
ENDROOT
BRANCH   1   2
ATOM      2  C   UNL     1     -11.309  14.798  68.404  0.00  0.00    -0.020 A 
ATOM      3  C   UNL     1     -11.864  15.815  69.086  0.00  0.00    -0.003 A 
ATOM      4  C   UNL     1     -12.157  15.615  70.429  0.00  0.00    +0.011 A 
ATOM      5  C   UNL     1     -12.680  14.370  70.765  0.00  0.00    +0.058 A 
ATOM      6 CL   UNL     1     -13.870  14.272  72.028  0.00  0.00    -0.082 Cl
ATOM      7  C   UNL     1     -12.118  13.283  70.131  0.00  0.00    +0.011 A 
ATOM      8  C   UNL     1     -11.621  13.517  68.853  0.00  0.00    -0.003 A 
ENDBRANCH   1   2
BRANCH   1  10
ATOM      9  N   UNL     1      -8.798  14.951  66.691  0.00  0.00    -0.131 NA
ATOM     10  C   UNL     1      -9.839  13.974  66.740  0.00  0.00    +0.114 C 
ENDBRANCH   1  10
BRANCH   1  11
ATOM     11  C   UNL     1     -12.147  13.512  66.554  0.00  0.00    +0.120 C 
BRANCH  11  12
ATOM     12  C   UNL     1     -12.421  13.496  65.083  0.00  0.00    +0.365 C 
ATOM     13  O   UNL     1     -13.178  12.402  64.653  0.00  0.00    -0.246 OA
ATOM     14  O   UNL     1     -12.667  14.611  64.555  0.00  0.00    -0.246 OA
ENDBRANCH  11  12
ENDBRANCH   1  11
TORSDOF 4
ENDMDL
MODEL 7
REMARK VINA RESULT:      -4.8      3.114      4.406
REMARK  Name = 
REMARK  4 active torsions:
REMARK  status: ('A' for Active; 'I' for Inactive)
REMARK    1  A    between atoms: C_2  and  C_3
REMARK    2  A    between atoms: C_3  and  C_4
REMARK    3  A    between atoms: C_3  and  C_8
REMARK    4  A    between atoms: C_4  and  C_5
REMARK                            x       y       z     vdW  Elec       q    Type
REMARK                         _______ _______ _______ _____ _____    ______ ____
ROOT
ATOM      1  C   UNL     1     -11.076  13.592  68.993  0.00  0.00    +0.053 C 
ENDROOT
BRANCH   1   2
ATOM      2  C   UNL     1     -12.006  14.263  70.120  0.00  0.00    -0.020 A 
ATOM      3  C   UNL     1     -12.593  13.494  71.055  0.00  0.00    -0.003 A 
ATOM      4  C   UNL     1     -13.159  14.126  72.155  0.00  0.00    +0.011 A 
ATOM      5  C   UNL     1     -12.444  15.196  72.684  0.00  0.00    +0.058 A 
ATOM      6 CL   UNL     1     -12.466  15.453  74.403  0.00  0.00    -0.082 Cl
ATOM      7  C   UNL     1     -11.858  16.047  71.772  0.00  0.00    +0.011 A 
ATOM      8  C   UNL     1     -11.473  15.469  70.566  0.00  0.00    -0.003 A 
ENDBRANCH   1   2
BRANCH   1  10
ATOM      9  N   UNL     1     -11.920  11.582  67.911  0.00  0.00    -0.131 NA
ATOM     10  C   UNL     1     -11.700  12.090  69.229  0.00  0.00    +0.114 C 
ENDBRANCH   1  10
BRANCH   1  11
ATOM     11  C   UNL     1     -12.111  13.883  67.749  0.00  0.00    +0.120 C 
BRANCH  11  12
ATOM     12  C   UNL     1     -11.315  14.678  66.762  0.00  0.00    +0.365 C 
ATOM     13  O   UNL     1     -11.809  14.629  65.455  0.00  0.00    -0.246 OA
ATOM     14  O   UNL     1     -10.873  15.782  67.171  0.00  0.00    -0.246 OA
ENDBRANCH  11  12
ENDBRANCH   1  11
TORSDOF 4
ENDMDL
MODEL 8
REMARK VINA RESULT:      -4.8      9.504     10.683
REMARK  Name = 
REMARK  4 active torsions:
REMARK  status: ('A' for Active; 'I' for Inactive)
REMARK    1  A    between atoms: C_2  and  C_3
REMARK    2  A    between atoms: C_3  and  C_4
REMARK    3  A    between atoms: C_3  and  C_8
REMARK    4  A    between atoms: C_4  and  C_5
REMARK                            x       y       z     vdW  Elec       q    Type
REMARK                         _______ _______ _______ _____ _____    ______ ____
ROOT
ATOM      1  C   UNL     1      -5.660  19.818  70.838  0.00  0.00    +0.053 C 
ENDROOT
BRANCH   1   2
ATOM      2  C   UNL     1      -6.289  20.355  69.459  0.00  0.00    -0.020 A 
ATOM      3  C   UNL     1      -5.500  20.944  68.543  0.00  0.00    -0.003 A 
ATOM      4  C   UNL     1      -6.022  21.148  67.271  0.00  0.00    +0.011 A 
ATOM      5  C   UNL     1      -6.800  20.117  66.754  0.00  0.00    +0.058 A 
ATOM      6 CL   UNL     1      -6.732  19.787  65.050  0.00  0.00    -0.082 Cl
ATOM      7  C   UNL     1      -7.663  19.505  67.637  0.00  0.00    +0.011 A 
ATOM      8  C   UNL     1      -7.253  19.479  68.966  0.00  0.00    -0.003 A 
ENDBRANCH   1   2
BRANCH   1  10
ATOM      9  N   UNL     1      -5.020  17.533  71.379  0.00  0.00    -0.131 NA
ATOM     10  C   UNL     1      -5.362  18.318  70.235  0.00  0.00    +0.114 C 
ENDBRANCH   1  10
BRANCH   1  11
ATOM     11  C   UNL     1      -4.127  20.312  70.510  0.00  0.00    +0.120 C 
BRANCH  11  12
ATOM     12  C   UNL     1      -3.654  20.966  71.769  0.00  0.00    +0.365 C 
ATOM     13  O   UNL     1      -4.442  22.044  72.185  0.00  0.00    -0.246 OA
ATOM     14  O   UNL     1      -3.215  20.195  72.661  0.00  0.00    -0.246 OA
ENDBRANCH  11  12
ENDBRANCH   1  11
TORSDOF 4
ENDMDL
MODEL 9
REMARK VINA RESULT:      -4.8      4.770      5.972
REMARK  Name = 
REMARK  4 active torsions:
REMARK  status: ('A' for Active; 'I' for Inactive)
REMARK    1  A    between atoms: C_2  and  C_3
REMARK    2  A    between atoms: C_3  and  C_4
REMARK    3  A    between atoms: C_3  and  C_8
REMARK    4  A    between atoms: C_4  and  C_5
REMARK                            x       y       z     vdW  Elec       q    Type
REMARK                         _______ _______ _______ _____ _____    ______ ____
ROOT
ATOM      1  C   UNL     1     -11.814  14.663  70.486  0.00  0.00    +0.053 C 
ENDROOT
BRANCH   1   2
ATOM      2  C   UNL     1     -12.124  13.414  69.522  0.00  0.00    -0.020 A 
ATOM      3  C   UNL     1     -11.660  13.405  68.260  0.00  0.00    -0.003 A 
ATOM      4  C   UNL     1     -11.715  12.209  67.555  0.00  0.00    +0.011 A 
ATOM      5  C   UNL     1     -11.399  11.059  68.271  0.00  0.00    +0.058 A 
ATOM      6 CL   UNL     1     -10.559   9.770  67.462  0.00  0.00    -0.082 Cl
ATOM      7  C   UNL     1     -11.887  10.990  69.558  0.00  0.00    +0.011 A 
ATOM      8  C   UNL     1     -12.042  12.208  70.213  0.00  0.00    -0.003 A 
ENDBRANCH   1   2
BRANCH   1  10
ATOM      9  N   UNL     1     -10.943  16.795  69.701  0.00  0.00    -0.131 NA
ATOM     10  C   UNL     1     -11.800  15.744  69.248  0.00  0.00    +0.114 C 
ENDBRANCH   1  10
BRANCH   1  11
ATOM     11  C   UNL     1     -13.390  14.990  70.822  0.00  0.00    +0.120 C 
BRANCH  11  12
ATOM     12  C   UNL     1     -13.473  14.997  72.316  0.00  0.00    +0.365 C 
ATOM     13  O   UNL     1     -14.126  16.113  72.849  0.00  0.00    -0.246 OA
ATOM     14  O   UNL     1     -13.692  13.885  72.862  0.00  0.00    -0.246 OA
ENDBRANCH  11  12
ENDBRANCH   1  11
TORSDOF 4
ENDMDL
