MODEL 1
REMARK VINA RESULT:      -6.9      0.000      0.000
REMARK  Name = 
REMARK  7 active torsions:
REMARK  status: ('A' for Active; 'I' for Inactive)
REMARK    1  A    between atoms: O_2  and  C_3
REMARK    2  A    between atoms: C_3  and  C_4
REMARK    3  A    between atoms: C_3  and  C_10
REMARK    4  A    between atoms: C_3  and  C_16
REMARK    5  A    between atoms: C_16  and  O_17
REMARK    6  A    between atoms: C_16  and  C_26
REMARK    7  A    between atoms: O_17  and  C_18
REMARK                            x       y       z     vdW  Elec       q    Type
REMARK                         _______ _______ _______ _____ _____    ______ ____
ROOT
ATOM      1  C   UNL     1     -10.526  13.720  68.302  0.00  0.00    +0.178 C 
ENDROOT
BRANCH   1   2
ATOM      2  C   UNL     1     -10.041  15.019  68.594  0.00  0.00    +0.010 A 
ATOM      3  C   UNL     1     -10.890  16.108  68.403  0.00  0.00    -0.002 A 
ATOM      4  C   UNL     1     -10.469  17.408  68.424  0.00  0.00    -0.000 A 
ATOM      5  C   UNL     1      -9.113  17.650  68.309  0.00  0.00    -0.000 A 
ATOM      6  C   UNL     1      -8.280  16.633  68.758  0.00  0.00    -0.000 A 
ATOM      7  C   UNL     1      -8.795  15.387  69.087  0.00  0.00    -0.002 A 
ENDBRANCH   1   2
BRANCH   1   8
ATOM      8  C   UNL     1     -11.007  13.655  66.883  0.00  0.00    +0.010 A 
ATOM      9  C   UNL     1     -12.331  13.768  66.553  0.00  0.00    -0.002 A 
ATOM     10  C   UNL     1     -12.675  13.612  65.230  0.00  0.00    -0.000 A 
ATOM     11  C   UNL     1     -11.682  13.329  64.307  0.00  0.00    -0.000 A 
ATOM     12  C   UNL     1     -10.430  13.838  64.561  0.00  0.00    -0.000 A 
ATOM     13  C   UNL     1     -10.073  13.962  65.900  0.00  0.00    -0.002 A 
ENDBRANCH   1   8
BRANCH   1  15
ATOM     14  C   UNL     1      -8.981  12.330  68.089  0.00  0.00    +0.175 C 
ATOM     15  O   UNL     1      -9.727  12.637  68.447  0.00  0.00    -0.344 OA
ENDBRANCH   1  15
BRANCH   1  16
ATOM     16  C   UNL     1     -11.933  13.411  69.134  0.00  0.00    +0.303 C 
BRANCH  16  17
ATOM     17  C   UNL     1     -11.653  11.800  69.273  0.00  0.00    +0.407 C 
ATOM     18  O   UNL     1     -11.925  11.508  70.622  0.00  0.00    -0.242 OA
ATOM     19  O   UNL     1     -12.375  11.094  68.533  0.00  0.00    -0.242 OA
ENDBRANCH  16  17
BRANCH  16  20
ATOM     20  O   UNL     1     -11.300  13.685  70.540  0.00  0.00    -0.435 OA
BRANCH  20  21
ATOM     21  C   UNL     1     -12.188  14.317  71.415  0.00  0.00    +0.320 A 
ATOM     22  N   UNL     1     -11.822  15.311  72.261  0.00  0.00    -0.199 NA
ATOM     23  C   UNL     1     -12.729  15.546  73.245  0.00  0.00    +0.065 A 
ATOM     24  C   UNL     1     -12.333  16.234  74.513  0.00  0.00    +0.052 C 
ATOM     25  C   UNL     1     -14.026  15.760  72.816  0.00  0.00    +0.030 A 
ATOM     26  C   UNL     1     -14.429  15.022  71.734  0.00  0.00    +0.065 A 
ATOM     27  C   UNL     1     -15.781  15.194  71.131  0.00  0.00    +0.052 C 
ATOM     28  N   UNL     1     -13.454  14.490  70.957  0.00  0.00    -0.199 NA
ENDBRANCH  20  21
ENDBRANCH  16  20
ENDBRANCH   1  16
TORSDOF 7
ENDMDL
MODEL 2
REMARK VINA RESULT:      -6.4      0.927      2.102
REMARK  Name = 
REMARK  7 active torsions:
REMARK  status: ('A' for Active; 'I' for Inactive)
REMARK    1  A    between atoms: O_2  and  C_3
REMARK    2  A    between atoms: C_3  and  C_4
REMARK    3  A    between atoms: C_3  and  C_10
REMARK    4  A    between atoms: C_3  and  C_16
REMARK    5  A    between atoms: C_16  and  O_17
REMARK    6  A    between atoms: C_16  and  C_26
REMARK    7  A    between atoms: O_17  and  C_18
REMARK                            x       y       z     vdW  Elec       q    Type
REMARK                         _______ _______ _______ _____ _____    ______ ____
ROOT
ATOM      1  C   UNL     1     -10.658  14.237  67.705  0.00  0.00    +0.178 C 
ENDROOT
BRANCH   1   2
ATOM      2  C   UNL     1     -10.602  15.652  67.645  0.00  0.00    +0.010 A 
ATOM      3  C   UNL     1     -10.363  16.260  66.414  0.00  0.00    -0.002 A 
ATOM      4  C   UNL     1     -10.058  17.585  66.272  0.00  0.00    -0.000 A 
ATOM      5  C   UNL     1      -9.655  18.279  67.396  0.00  0.00    -0.000 A 
ATOM      6  C   UNL     1     -10.132  17.793  68.607  0.00  0.00    -0.000 A 
ATOM      7  C   UNL     1     -10.781  16.569  68.674  0.00  0.00    -0.002 A 
ENDBRANCH   1   2
BRANCH   1   8
ATOM      8  C   UNL     1     -10.952  13.674  66.346  0.00  0.00    +0.010 A 
ATOM      9  C   UNL     1     -10.098  12.815  65.709  0.00  0.00    -0.002 A 
ATOM     10  C   UNL     1     -10.423  12.422  64.431  0.00  0.00    -0.000 A 
ATOM     11  C   UNL     1     -11.572  12.925  63.846  0.00  0.00    -0.000 A 
ATOM     12  C   UNL     1     -12.622  13.219  64.684  0.00  0.00    -0.000 A 
ATOM     13  C   UNL     1     -12.289  13.649  65.964  0.00  0.00    -0.002 A 
ENDBRANCH   1   8
BRANCH   1  15
ATOM     14  C   UNL     1      -8.743  13.666  68.316  0.00  0.00    +0.175 C 
ATOM     15  O   UNL     1      -9.598  13.524  68.153  0.00  0.00    -0.344 OA
ENDBRANCH   1  15
BRANCH   1  16
ATOM     16  C   UNL     1     -11.992  13.731  68.560  0.00  0.00    +0.303 C 
BRANCH  16  17
ATOM     17  C   UNL     1     -11.454  12.192  68.744  0.00  0.00    +0.407 C 
ATOM     18  O   UNL     1     -11.544  11.949  70.127  0.00  0.00    -0.242 OA
ATOM     19  O   UNL     1     -12.127  11.340  68.121  0.00  0.00    -0.242 OA
ENDBRANCH  16  17
BRANCH  16  20
ATOM     20  O   UNL     1     -11.405  14.148  69.950  0.00  0.00    -0.435 OA
BRANCH  20  21
ATOM     21  C   UNL     1     -12.364  14.727  70.786  0.00  0.00    +0.320 A 
ATOM     22  N   UNL     1     -13.649  14.303  70.854  0.00  0.00    -0.199 NA
ATOM     23  C   UNL     1     -14.483  15.194  71.452  0.00  0.00    +0.065 A 
ATOM     24  C   UNL     1     -15.959  15.150  71.217  0.00  0.00    +0.052 C 
ATOM     25  C   UNL     1     -14.078  15.640  72.697  0.00  0.00    +0.030 A 
ATOM     26  C   UNL     1     -12.728  15.812  72.863  0.00  0.00    +0.065 A 
ATOM     27  C   UNL     1     -12.149  16.231  74.170  0.00  0.00    +0.052 C 
ATOM     28  N   UNL     1     -11.917  15.166  71.991  0.00  0.00    -0.199 NA
ENDBRANCH  20  21
ENDBRANCH  16  20
ENDBRANCH   1  16
TORSDOF 7
ENDMDL
MODEL 3
REMARK VINA RESULT:      -6.1      3.651      6.306
REMARK  Name = 
REMARK  7 active torsions:
REMARK  status: ('A' for Active; 'I' for Inactive)
REMARK    1  A    between atoms: O_2  and  C_3
REMARK    2  A    between atoms: C_3  and  C_4
REMARK    3  A    between atoms: C_3  and  C_10
REMARK    4  A    between atoms: C_3  and  C_16
REMARK    5  A    between atoms: C_16  and  O_17
REMARK    6  A    between atoms: C_16  and  C_26
REMARK    7  A    between atoms: O_17  and  C_18
REMARK                            x       y       z     vdW  Elec       q    Type
REMARK                         _______ _______ _______ _____ _____    ______ ____
ROOT
ATOM      1  C   UNL     1     -10.241  14.703  66.567  0.00  0.00    +0.178 C 
ENDROOT
BRANCH   1   2
ATOM      2  C   UNL     1      -9.251  13.971  67.270  0.00  0.00    +0.010 A 
ATOM      3  C   UNL     1      -7.915  14.339  67.120  0.00  0.00    -0.002 A 
ATOM      4  C   UNL     1      -6.867  13.575  67.554  0.00  0.00    -0.000 A 
ATOM      5  C   UNL     1      -7.117  12.251  67.860  0.00  0.00    -0.000 A 
ATOM      6  C   UNL     1      -8.414  11.961  68.264  0.00  0.00    -0.000 A 
ATOM      7  C   UNL     1      -9.422  12.906  68.146  0.00  0.00    -0.002 A 
ENDBRANCH   1   2
BRANCH   1   8
ATOM      8  C   UNL     1     -10.864  13.842  65.509  0.00  0.00    +0.010 A 
ATOM      9  C   UNL     1     -10.116  13.133  64.608  0.00  0.00    -0.002 A 
ATOM     10  C   UNL     1     -10.788  12.440  63.626  0.00  0.00    -0.000 A 
ATOM     11  C   UNL     1     -12.170  12.509  63.581  0.00  0.00    -0.000 A 
ATOM     12  C   UNL     1     -12.826  12.669  64.779  0.00  0.00    -0.000 A 
ATOM     13  C   UNL     1     -12.159  13.400  65.757  0.00  0.00    -0.002 A 
ENDBRANCH   1   8
BRANCH   1  15
ATOM     14  C   UNL     1     -11.585  15.291  68.053  0.00  0.00    +0.175 C 
ATOM     15  O   UNL     1     -11.286  15.256  67.224  0.00  0.00    -0.344 OA
ENDBRANCH   1  15
BRANCH   1  16
ATOM     16  C   UNL     1      -9.548  15.900  65.642  0.00  0.00    +0.303 C 
BRANCH  16  17
ATOM     17  C   UNL     1     -10.980  16.571  65.203  0.00  0.00    +0.407 C 
ATOM     18  O   UNL     1     -10.824  17.944  65.471  0.00  0.00    -0.242 OA
ATOM     19  O   UNL     1     -11.268  16.406  63.996  0.00  0.00    -0.242 OA
ENDBRANCH  16  17
BRANCH  16  20
ATOM     20  O   UNL     1      -9.398  16.899  66.838  0.00  0.00    -0.435 OA
BRANCH  20  21
ATOM     21  C   UNL     1      -8.157  17.543  66.848  0.00  0.00    +0.320 A 
ATOM     22  N   UNL     1      -7.586  18.081  65.742  0.00  0.00    -0.199 NA
ATOM     23  C   UNL     1      -6.262  18.346  65.891  0.00  0.00    +0.065 A 
ATOM     24  C   UNL     1      -5.363  18.485  64.703  0.00  0.00    +0.052 C 
ATOM     25  C   UNL     1      -5.932  19.107  66.997  0.00  0.00    +0.030 A 
ATOM     26  C   UNL     1      -6.670  18.875  68.128  0.00  0.00    +0.065 A 
ATOM     27  C   UNL     1      -6.461  19.664  69.374  0.00  0.00    +0.052 C 
ATOM     28  N   UNL     1      -7.869  18.264  67.961  0.00  0.00    -0.199 NA
ENDBRANCH  20  21
ENDBRANCH  16  20
ENDBRANCH   1  16
TORSDOF 7
ENDMDL
MODEL 4
REMARK VINA RESULT:      -6.0      2.753      4.471
REMARK  Name = 
REMARK  7 active torsions:
REMARK  status: ('A' for Active; 'I' for Inactive)
REMARK    1  A    between atoms: O_2  and  C_3
REMARK    2  A    between atoms: C_3  and  C_4
REMARK    3  A    between atoms: C_3  and  C_10
REMARK    4  A    between atoms: C_3  and  C_16
REMARK    5  A    between atoms: C_16  and  O_17
REMARK    6  A    between atoms: C_16  and  C_26
REMARK    7  A    between atoms: O_17  and  C_18
REMARK                            x       y       z     vdW  Elec       q    Type
REMARK                         _______ _______ _______ _____ _____    ______ ____
ROOT
ATOM      1  C   UNL     1     -10.454  13.176  68.186  0.00  0.00    +0.178 C 
ENDROOT
BRANCH   1   2
ATOM      2  C   UNL     1     -10.988  13.905  69.278  0.00  0.00    +0.010 A 
ATOM      3  C   UNL     1     -12.018  13.333  70.024  0.00  0.00    -0.002 A 
ATOM      4  C   UNL     1     -12.763  14.025  70.938  0.00  0.00    -0.000 A 
ATOM      5  C   UNL     1     -12.718  15.405  70.896  0.00  0.00    -0.000 A 
ATOM      6  C   UNL     1     -11.551  15.955  70.380  0.00  0.00    -0.000 A 
ATOM      7  C   UNL     1     -10.608  15.154  69.753  0.00  0.00    -0.002 A 
ENDBRANCH   1   2
BRANCH   1   8
ATOM      8  C   UNL     1     -10.995  13.710  66.894  0.00  0.00    +0.010 A 
ATOM      9  C   UNL     1     -12.336  13.735  66.617  0.00  0.00    -0.002 A 
ATOM     10  C   UNL     1     -12.722  14.169  65.370  0.00  0.00    -0.000 A 
ATOM     11  C   UNL     1     -11.749  14.534  64.455  0.00  0.00    -0.000 A 
ATOM     12  C   UNL     1     -10.587  15.070  64.960  0.00  0.00    -0.000 A 
ATOM     13  C   UNL     1     -10.182  14.603  66.205  0.00  0.00    -0.002 A 
ENDBRANCH   1   8
BRANCH   1  15
ATOM     14  C   UNL     1      -8.392  13.480  68.329  0.00  0.00    +0.175 C 
ATOM     15  O   UNL     1      -9.116  13.101  67.996  0.00  0.00    -0.344 OA
ENDBRANCH   1  15
BRANCH   1  16
ATOM     16  C   UNL     1     -11.044  11.620  68.166  0.00  0.00    +0.303 C 
BRANCH  16  17
ATOM     17  C   UNL     1     -10.247  11.195  66.796  0.00  0.00    +0.407 C 
ATOM     18  O   UNL     1      -9.347  10.195  67.207  0.00  0.00    -0.242 OA
ATOM     19  O   UNL     1     -10.991  10.750  65.893  0.00  0.00    -0.242 OA
ENDBRANCH  16  17
BRANCH  16  20
ATOM     20  O   UNL     1      -9.896  11.048  69.063  0.00  0.00    -0.435 OA
BRANCH  20  21
ATOM     21  C   UNL     1     -10.379  10.296  70.138  0.00  0.00    +0.320 A 
ATOM     22  N   UNL     1     -11.666   9.886  70.245  0.00  0.00    -0.199 NA
ATOM     23  C   UNL     1     -12.003   9.476  71.496  0.00  0.00    +0.065 A 
ATOM     24  C   UNL     1     -13.431   9.440  71.939  0.00  0.00    +0.052 C 
ATOM     25  C   UNL     1     -11.168   8.524  72.051  0.00  0.00    +0.030 A 
ATOM     26  C   UNL     1      -9.836   8.646  71.752  0.00  0.00    +0.065 A 
ATOM     27  C   UNL     1      -8.833   7.655  72.235  0.00  0.00    +0.052 C 
ATOM     28  N   UNL     1      -9.519   9.386  70.662  0.00  0.00    -0.199 NA
ENDBRANCH  20  21
ENDBRANCH  16  20
ENDBRANCH   1  16
TORSDOF 7
ENDMDL
MODEL 5
REMARK VINA RESULT:      -5.9      3.118      5.735
REMARK  Name = 
REMARK  7 active torsions:
REMARK  status: ('A' for Active; 'I' for Inactive)
REMARK    1  A    between atoms: O_2  and  C_3
REMARK    2  A    between atoms: C_3  and  C_4
REMARK    3  A    between atoms: C_3  and  C_10
REMARK    4  A    between atoms: C_3  and  C_16
REMARK    5  A    between atoms: C_16  and  O_17
REMARK    6  A    between atoms: C_16  and  C_26
REMARK    7  A    between atoms: O_17  and  C_18
REMARK                            x       y       z     vdW  Elec       q    Type
REMARK                         _______ _______ _______ _____ _____    ______ ____
ROOT
ATOM      1  C   UNL     1      -8.412  17.353  67.527  0.00  0.00    +0.178 C 
ENDROOT
BRANCH   1   2
ATOM      2  C   UNL     1      -7.587  16.294  67.982  0.00  0.00    +0.010 A 
ATOM      3  C   UNL     1      -7.785  15.797  69.270  0.00  0.00    -0.002 A 
ATOM      4  C   UNL     1      -6.913  14.952  69.896  0.00  0.00    -0.000 A 
ATOM      5  C   UNL     1      -5.638  14.836  69.375  0.00  0.00    -0.000 A 
ATOM      6  C   UNL     1      -5.519  15.087  68.014  0.00  0.00    -0.000 A 
ATOM      7  C   UNL     1      -6.576  15.629  67.298  0.00  0.00    -0.002 A 
ENDBRANCH   1   2
BRANCH   1   8
ATOM      8  C   UNL     1      -7.635  18.635  67.493  0.00  0.00    +0.010 A 
ATOM      9  C   UNL     1      -6.879  19.060  68.551  0.00  0.00    -0.002 A 
ATOM     10  C   UNL     1      -6.271  20.291  68.448  0.00  0.00    -0.000 A 
ATOM     11  C   UNL     1      -6.468  21.043  67.303  0.00  0.00    -0.000 A 
ATOM     12  C   UNL     1      -6.663  20.353  66.129  0.00  0.00    -0.000 A 
ATOM     13  C   UNL     1      -7.308  19.126  66.234  0.00  0.00    -0.002 A 
ENDBRANCH   1   8
BRANCH   1  15
ATOM     14  C   UNL     1      -9.196  16.663  65.718  0.00  0.00    +0.175 C 
ATOM     15  O   UNL     1      -9.019  17.283  66.320  0.00  0.00    -0.344 OA
ENDBRANCH   1  15
BRANCH   1  16
ATOM     16  C   UNL     1      -9.585  17.716  68.650  0.00  0.00    +0.303 C 
BRANCH  16  17
ATOM     17  C   UNL     1      -9.982  19.153  67.965  0.00  0.00    +0.407 C 
ATOM     18  O   UNL     1     -11.237  18.927  67.372  0.00  0.00    -0.242 OA
ATOM     19  O   UNL     1     -10.064  20.099  68.782  0.00  0.00    -0.242 OA
ENDBRANCH  16  17
BRANCH  16  20
ATOM     20  O   UNL     1     -10.725  16.980  67.870  0.00  0.00    -0.435 OA
BRANCH  20  21
ATOM     21  C   UNL     1     -11.300  15.943  68.610  0.00  0.00    +0.320 A 
ATOM     22  N   UNL     1     -10.916  14.648  68.505  0.00  0.00    -0.199 NA
ATOM     23  C   UNL     1     -11.809  13.772  69.037  0.00  0.00    +0.065 A 
ATOM     24  C   UNL     1     -11.822  12.335  68.625  0.00  0.00    +0.052 C 
ATOM     25  C   UNL     1     -12.190  14.036  70.340  0.00  0.00    +0.030 A 
ATOM     26  C   UNL     1     -12.311  15.359  70.674  0.00  0.00    +0.065 A 
ATOM     27  C   UNL     1     -12.658  15.788  72.059  0.00  0.00    +0.052 C 
ATOM     28  N   UNL     1     -11.675  16.253  69.878  0.00  0.00    -0.199 NA
ENDBRANCH  20  21
ENDBRANCH  16  20
ENDBRANCH   1  16
TORSDOF 7
ENDMDL
MODEL 6
REMARK VINA RESULT:      -5.9      3.460      6.220
REMARK  Name = 
REMARK  7 active torsions:
REMARK  status: ('A' for Active; 'I' for Inactive)
REMARK    1  A    between atoms: O_2  and  C_3
REMARK    2  A    between atoms: C_3  and  C_4
REMARK    3  A    between atoms: C_3  and  C_10
REMARK    4  A    between atoms: C_3  and  C_16
REMARK    5  A    between atoms: C_16  and  O_17
REMARK    6  A    between atoms: C_16  and  C_26
REMARK    7  A    between atoms: O_17  and  C_18
REMARK                            x       y       z     vdW  Elec       q    Type
REMARK                         _______ _______ _______ _____ _____    ______ ____
ROOT
ATOM      1  C   UNL     1      -9.466  16.212  67.658  0.00  0.00    +0.178 C 
ENDROOT
BRANCH   1   2
ATOM      2  C   UNL     1      -9.883  17.564  67.573  0.00  0.00    +0.010 A 
ATOM      3  C   UNL     1     -10.134  18.109  66.315  0.00  0.00    -0.002 A 
ATOM      4  C   UNL     1     -10.310  19.445  66.091  0.00  0.00    -0.000 A 
ATOM      5  C   UNL     1      -9.910  20.324  67.079  0.00  0.00    -0.000 A 
ATOM      6  C   UNL     1      -9.921  19.820  68.374  0.00  0.00    -0.000 A 
ATOM      7  C   UNL     1     -10.111  18.466  68.606  0.00  0.00    -0.002 A 
ENDBRANCH   1   2
BRANCH   1   8
ATOM      8  C   UNL     1     -10.447  15.420  68.472  0.00  0.00    +0.010 A 
ATOM      9  C   UNL     1     -11.061  14.297  67.987  0.00  0.00    -0.002 A 
ATOM     10  C   UNL     1     -12.006  13.692  68.784  0.00  0.00    -0.000 A 
ATOM     11  C   UNL     1     -12.305  14.252  70.014  0.00  0.00    -0.000 A 
ATOM     12  C   UNL     1     -11.288  14.916  70.661  0.00  0.00    -0.000 A 
ATOM     13  C   UNL     1     -10.355  15.555  69.852  0.00  0.00    -0.002 A 
ENDBRANCH   1   8
BRANCH   1  15
ATOM     14  C   UNL     1      -9.611  15.438  65.723  0.00  0.00    +0.175 C 
ATOM     15  O   UNL     1      -9.274  15.478  66.538  0.00  0.00    -0.344 OA
ENDBRANCH   1  15
BRANCH   1  16
ATOM     16  C   UNL     1      -8.091  16.071  68.584  0.00  0.00    +0.303 C 
BRANCH  16  17
ATOM     17  C   UNL     1      -7.566  14.710  67.832  0.00  0.00    +0.407 C 
ATOM     18  O   UNL     1      -6.293  15.048  67.337  0.00  0.00    -0.242 OA
ATOM     19  O   UNL     1      -7.475  13.716  68.588  0.00  0.00    -0.242 OA
ENDBRANCH  16  17
BRANCH  16  20
ATOM     20  O   UNL     1      -7.225  16.976  67.644  0.00  0.00    -0.435 OA
BRANCH  20  21
ATOM     21  C   UNL     1      -6.722  18.104  68.297  0.00  0.00    +0.320 A 
ATOM     22  N   UNL     1      -5.883  18.039  69.360  0.00  0.00    -0.199 NA
ATOM     23  C   UNL     1      -5.788  19.207  70.048  0.00  0.00    +0.065 A 
ATOM     24  C   UNL     1      -5.319  19.232  71.468  0.00  0.00    +0.052 C 
ATOM     25  C   UNL     1      -5.483  20.320  69.286  0.00  0.00    +0.030 A 
ATOM     26  C   UNL     1      -6.032  20.357  68.031  0.00  0.00    +0.065 A 
ATOM     27  C   UNL     1      -5.740  21.468  67.082  0.00  0.00    +0.052 C 
ATOM     28  N   UNL     1      -6.453  19.178  67.512  0.00  0.00    -0.199 NA
ENDBRANCH  20  21
ENDBRANCH  16  20
ENDBRANCH   1  16
TORSDOF 7
ENDMDL
MODEL 7
REMARK VINA RESULT:      -5.9      2.825      5.202
REMARK  Name = 
REMARK  7 active torsions:
REMARK  status: ('A' for Active; 'I' for Inactive)
REMARK    1  A    between atoms: O_2  and  C_3
REMARK    2  A    between atoms: C_3  and  C_4
REMARK    3  A    between atoms: C_3  and  C_10
REMARK    4  A    between atoms: C_3  and  C_16
REMARK    5  A    between atoms: C_16  and  O_17
REMARK    6  A    between atoms: C_16  and  C_26
REMARK    7  A    between atoms: O_17  and  C_18
REMARK                            x       y       z     vdW  Elec       q    Type
REMARK                         _______ _______ _______ _____ _____    ______ ____
ROOT
ATOM      1  C   UNL     1     -10.751  13.695  66.700  0.00  0.00    +0.178 C 
ENDROOT
BRANCH   1   2
ATOM      2  C   UNL     1     -10.224  12.712  65.824  0.00  0.00    +0.010 A 
ATOM      3  C   UNL     1     -10.439  12.853  64.454  0.00  0.00    -0.002 A 
ATOM      4  C   UNL     1     -10.187  11.865  63.544  0.00  0.00    -0.000 A 
ATOM      5  C   UNL     1     -10.021  10.577  64.018  0.00  0.00    -0.000 A 
ATOM      6  C   UNL     1      -9.548  10.471  65.320  0.00  0.00    -0.000 A 
ATOM      7  C   UNL     1      -9.469  11.588  66.139  0.00  0.00    -0.002 A 
ENDBRANCH   1   2
BRANCH   1   8
ATOM      8  C   UNL     1      -9.977  14.973  66.566  0.00  0.00    +0.010 A 
ATOM      9  C   UNL     1      -8.610  15.009  66.619  0.00  0.00    -0.002 A 
ATOM     10  C   UNL     1      -8.001  16.243  66.569  0.00  0.00    -0.000 A 
ATOM     11  C   UNL     1      -8.790  17.378  66.492  0.00  0.00    -0.000 A 
ATOM     12  C   UNL     1      -9.994  17.258  65.836  0.00  0.00    -0.000 A 
ATOM     13  C   UNL     1     -10.622  16.020  65.918  0.00  0.00    -0.002 A 
ENDBRANCH   1   8
BRANCH   1  15
ATOM     14  C   UNL     1     -12.711  13.986  66.039  0.00  0.00    +0.175 C 
ATOM     15  O   UNL     1     -12.049  14.066  66.617  0.00  0.00    -0.344 OA
ENDBRANCH   1  15
BRANCH   1  16
ATOM     16  C   UNL     1     -10.449  13.298  68.287  0.00  0.00    +0.303 C 
BRANCH  16  17
ATOM     17  C   UNL     1     -11.151  14.651  68.896  0.00  0.00    +0.407 C 
ATOM     18  O   UNL     1     -12.299  14.184  69.561  0.00  0.00    -0.242 OA
ATOM     19  O   UNL     1     -10.426  15.283  69.697  0.00  0.00    -0.242 OA
ENDBRANCH  16  17
BRANCH  16  20
ATOM     20  O   UNL     1     -11.774  12.482  68.457  0.00  0.00    -0.435 OA
BRANCH  20  21
ATOM     21  C   UNL     1     -11.573  11.262  69.110  0.00  0.00    +0.320 A 
ATOM     22  N   UNL     1     -10.352  10.700  69.284  0.00  0.00    -0.199 NA
ATOM     23  C   UNL     1     -10.404   9.386  69.626  0.00  0.00    +0.065 A 
ATOM     24  C   UNL     1      -9.232   8.483  69.407  0.00  0.00    +0.052 C 
ATOM     25  C   UNL     1     -11.208   9.088  70.711  0.00  0.00    +0.030 A 
ATOM     26  C   UNL     1     -12.356   9.828  70.829  0.00  0.00    +0.065 A 
ATOM     27  C   UNL     1     -13.284   9.653  71.981  0.00  0.00    +0.052 C 
ATOM     28  N   UNL     1     -12.397  11.005  70.158  0.00  0.00    -0.199 NA
ENDBRANCH  20  21
ENDBRANCH  16  20
ENDBRANCH   1  16
TORSDOF 7
ENDMDL
MODEL 8
REMARK VINA RESULT:      -5.8      3.601      6.788
REMARK  Name = 
REMARK  7 active torsions:
REMARK  status: ('A' for Active; 'I' for Inactive)
REMARK    1  A    between atoms: O_2  and  C_3
REMARK    2  A    between atoms: C_3  and  C_4
REMARK    3  A    between atoms: C_3  and  C_10
REMARK    4  A    between atoms: C_3  and  C_16
REMARK    5  A    between atoms: C_16  and  O_17
REMARK    6  A    between atoms: C_16  and  C_26
REMARK    7  A    between atoms: O_17  and  C_18
REMARK                            x       y       z     vdW  Elec       q    Type
REMARK                         _______ _______ _______ _____ _____    ______ ____
ROOT
ATOM      1  C   UNL     1     -10.485  14.617  66.688  0.00  0.00    +0.178 C 
ENDROOT
BRANCH   1   2
ATOM      2  C   UNL     1      -9.108  14.358  66.901  0.00  0.00    +0.010 A 
ATOM      3  C   UNL     1      -8.730  13.109  67.392  0.00  0.00    -0.002 A 
ATOM      4  C   UNL     1      -7.475  12.827  67.854  0.00  0.00    -0.000 A 
ATOM      5  C   UNL     1      -6.641  13.888  68.147  0.00  0.00    -0.000 A 
ATOM      6  C   UNL     1      -6.882  15.058  67.439  0.00  0.00    -0.000 A 
ATOM      7  C   UNL     1      -8.024  15.194  66.662  0.00  0.00    -0.002 A 
ENDBRANCH   1   2
BRANCH   1   8
ATOM      8  C   UNL     1     -11.195  14.749  68.003  0.00  0.00    +0.010 A 
ATOM      9  C   UNL     1     -11.744  13.675  68.650  0.00  0.00    -0.002 A 
ATOM     10  C   UNL     1     -12.445  13.918  69.809  0.00  0.00    -0.000 A 
ATOM     11  C   UNL     1     -12.580  15.223  70.252  0.00  0.00    -0.000 A 
ATOM     12  C   UNL     1     -11.552  16.090  69.961  0.00  0.00    -0.000 A 
ATOM     13  C   UNL     1     -10.869  15.862  68.771  0.00  0.00    -0.002 A 
ENDBRANCH   1   8
BRANCH   1  15
ATOM     14  C   UNL     1     -10.528  16.452  65.692  0.00  0.00    +0.175 C 
ATOM     15  O   UNL     1     -10.881  15.693  65.971  0.00  0.00    -0.344 OA
ENDBRANCH   1  15
BRANCH   1  16
ATOM     16  C   UNL     1     -11.246  13.285  66.044  0.00  0.00    +0.303 C 
BRANCH  16  17
ATOM     17  C   UNL     1     -12.390  14.157  65.254  0.00  0.00    +0.407 C 
ATOM     18  O   UNL     1     -12.263  13.770  63.908  0.00  0.00    -0.242 OA
ATOM     19  O   UNL     1     -13.558  13.938  65.649  0.00  0.00    -0.242 OA
ENDBRANCH  16  17
BRANCH  16  20
ATOM     20  O   UNL     1     -10.340  13.239  64.768  0.00  0.00    -0.435 OA
BRANCH  20  21
ATOM     21  C   UNL     1      -9.861  11.954  64.495  0.00  0.00    +0.320 A 
ATOM     22  N   UNL     1     -10.296  10.843  65.139  0.00  0.00    -0.199 NA
ATOM     23  C   UNL     1      -9.480   9.768  64.976  0.00  0.00    +0.065 A 
ATOM     24  C   UNL     1      -9.504   8.626  65.941  0.00  0.00    +0.052 C 
ATOM     25  C   UNL     1      -9.174   9.452  63.665  0.00  0.00    +0.030 A 
ATOM     26  C   UNL     1      -9.015  10.514  62.813  0.00  0.00    +0.065 A 
ATOM     27  C   UNL     1      -8.741  10.317  61.361  0.00  0.00    +0.052 C 
ATOM     28  N   UNL     1      -9.557  11.695  63.198  0.00  0.00    -0.199 NA
ENDBRANCH  20  21
ENDBRANCH  16  20
ENDBRANCH   1  16
TORSDOF 7
ENDMDL
MODEL 9
REMARK VINA RESULT:      -5.8      2.750      4.391
REMARK  Name = 
REMARK  7 active torsions:
REMARK  status: ('A' for Active; 'I' for Inactive)
REMARK    1  A    between atoms: O_2  and  C_3
REMARK    2  A    between atoms: C_3  and  C_4
REMARK    3  A    between atoms: C_3  and  C_10
REMARK    4  A    between atoms: C_3  and  C_16
REMARK    5  A    between atoms: C_16  and  O_17
REMARK    6  A    between atoms: C_16  and  C_26
REMARK    7  A    between atoms: O_17  and  C_18
REMARK                            x       y       z     vdW  Elec       q    Type
REMARK                         _______ _______ _______ _____ _____    ______ ____
ROOT
ATOM      1  C   UNL     1     -10.406  13.205  68.212  0.00  0.00    +0.178 C 
ENDROOT
BRANCH   1   2
ATOM      2  C   UNL     1     -10.966  13.925  69.297  0.00  0.00    +0.010 A 
ATOM      3  C   UNL     1     -11.995  13.337  70.031  0.00  0.00    -0.002 A 
ATOM      4  C   UNL     1     -12.762  14.016  70.936  0.00  0.00    -0.000 A 
ATOM      5  C   UNL     1     -12.739  15.397  70.894  0.00  0.00    -0.000 A 
ATOM      6  C   UNL     1     -11.575  15.965  70.392  0.00  0.00    -0.000 A 
ATOM      7  C   UNL     1     -10.611  15.180  69.777  0.00  0.00    -0.002 A 
ENDBRANCH   1   2
BRANCH   1   8
ATOM      8  C   UNL     1     -10.958  13.716  66.914  0.00  0.00    +0.010 A 
ATOM      9  C   UNL     1     -12.300  13.727  66.644  0.00  0.00    -0.002 A 
ATOM     10  C   UNL     1     -12.695  14.140  65.392  0.00  0.00    -0.000 A 
ATOM     11  C   UNL     1     -11.729  14.497  64.467  0.00  0.00    -0.000 A 
ATOM     12  C   UNL     1     -10.568  15.049  64.958  0.00  0.00    -0.000 A 
ATOM     13  C   UNL     1     -10.154  14.603  66.209  0.00  0.00    -0.002 A 
ENDBRANCH   1   8
BRANCH   1  15
ATOM     14  C   UNL     1      -8.355  13.572  68.357  0.00  0.00    +0.175 C 
ATOM     15  O   UNL     1      -9.067  13.167  68.028  0.00  0.00    -0.344 OA
ENDBRANCH   1  15
BRANCH   1  16
ATOM     16  C   UNL     1     -10.952  11.634  68.199  0.00  0.00    +0.303 C 
BRANCH  16  17
ATOM     17  C   UNL     1     -10.095  11.208  66.866  0.00  0.00    +0.407 C 
ATOM     18  O   UNL     1      -9.169  10.257  67.330  0.00  0.00    -0.242 OA
ATOM     19  O   UNL     1     -10.792  10.709  65.953  0.00  0.00    -0.242 OA
ENDBRANCH  16  17
BRANCH  16  20
ATOM     20  O   UNL     1      -9.821  11.109  69.146  0.00  0.00    -0.435 OA
BRANCH  20  21
ATOM     21  C   UNL     1     -10.256  10.076  69.982  0.00  0.00    +0.320 A 
ATOM     22  N   UNL     1      -9.419   9.325  70.739  0.00  0.00    -0.199 NA
ATOM     23  C   UNL     1      -9.986   8.180  71.200  0.00  0.00    +0.065 A 
ATOM     24  C   UNL     1      -9.145   7.021  71.632  0.00  0.00    +0.052 C 
ATOM     25  C   UNL     1     -11.188   8.341  71.864  0.00  0.00    +0.030 A 
ATOM     26  C   UNL     1     -12.018   9.316  71.375  0.00  0.00    +0.065 A 
ATOM     27  C   UNL     1     -13.318   9.637  72.029  0.00  0.00    +0.052 C 
ATOM     28  N   UNL     1     -11.450  10.271  70.598  0.00  0.00    -0.199 NA
ENDBRANCH  20  21
ENDBRANCH  16  20
ENDBRANCH   1  16
TORSDOF 7
ENDMDL
