MODEL 1
REMARK VINA RESULT:      -7.4      0.000      0.000
REMARK  Name = 
REMARK  13 active torsions:
REMARK  status: ('A' for Active; 'I' for Inactive)
REMARK    1  A    between atoms: O_2  and  C_3
REMARK    2  A    between atoms: N_5  and  C_6
REMARK    3  A    between atoms: C_6  and  C_7
REMARK    4  A    between atoms: C_6  and  C_52
REMARK    5  A    between atoms: C_13  and  C_14
REMARK    6  A    between atoms: C_17  and  C_18
REMARK    7  A    between atoms: C_21  and  C_22
REMARK    8  A    between atoms: C_25  and  C_26
REMARK    9  A    between atoms: C_29  and  C_30
REMARK   10  A    between atoms: C_35  and  C_37
REMARK   11  A    between atoms: C_37  and  N_38
REMARK   12  A    between atoms: C_37  and  C_43
REMARK   13  A    between atoms: C_39  and  O_41
REMARK                            x       y       z     vdW  Elec       q    Type
REMARK                         _______ _______ _______ _____ _____    ______ ____
ROOT
ATOM      1  C   UNL     1      -9.649   7.362  68.135  0.00  0.00    +0.019 A 
ATOM      2  C   UNL     1     -10.562   7.670  67.125  0.00  0.00    +0.002 A 
ATOM      3  C   UNL     1     -10.551   8.914  66.496  0.00  0.00    +0.000 A 
ATOM      4  C   UNL     1      -9.544   9.838  66.771  0.00  0.00    +0.000 A 
ATOM      5  C   UNL     1      -8.377   9.220  67.220  0.00  0.00    +0.000 A 
ATOM      6  C   UNL     1      -8.430   7.996  67.901  0.00  0.00    +0.002 A 
ENDROOT
BRANCH   4   7
ATOM      7  C   UNL     1      -9.879  11.229  67.122  0.00  0.00    +0.000 A 
ATOM      8  C   UNL     1      -8.886  12.104  67.555  0.00  0.00    +0.000 A 
ATOM      9  C   UNL     1      -9.170  13.148  68.428  0.00  0.00    +0.002 A 
ATOM     10  C   UNL     1     -10.464  13.659  68.429  0.00  0.00    +0.019 A 
ATOM     11  C   UNL     1     -11.435  12.704  68.146  0.00  0.00    +0.002 A 
ATOM     12  C   UNL     1     -11.095  11.406  67.777  0.00  0.00    +0.000 A 
BRANCH  10  13
ATOM     13  C   UNL     1     -10.751  15.075  68.141  0.00  0.00    +0.102 A 
ATOM     14  N   UNL     1      -9.881  16.010  67.682  0.00  0.00    -0.227 NA
ATOM     15  C   UNL     1     -10.208  17.224  68.193  0.00  0.00    +0.157 A 
ATOM     16  N   UNL     1     -11.173  17.067  69.085  0.00  0.00    -0.226 NA
ATOM     17  C   UNL     1     -11.677  15.831  68.852  0.00  0.00    +0.119 A 
BRANCH  15  18
ATOM     18  C   UNL     1      -8.983  18.262  68.424  0.00  0.00    +0.134 C 
ATOM     19  N   UNL     1      -8.614  18.257  66.888  0.00  0.00    -0.273 N 
ATOM     20  C   UNL     1      -7.246  18.198  66.486  0.00  0.00    +0.246 C 
ATOM     21  O   UNL     1      -7.010  17.797  65.352  0.00  0.00    -0.273 OA
ATOM     22  C   UNL     1      -9.834  18.331  66.178  0.00  0.00    +0.094 C 
ATOM     23  C   UNL     1     -10.708  19.222  67.013  0.00  0.00    +0.024 C 
ATOM     24  C   UNL     1      -9.925  19.604  68.224  0.00  0.00    +0.029 C 
BRANCH  20  25
ATOM     25  C   UNL     1      -6.601  19.606  66.961  0.00  0.00    +0.175 C 
BRANCH  25  26
ATOM     26  N   UNL     1      -5.501  18.933  67.882  0.00  0.00    -0.161 NA
ATOM     27  C   UNL     1      -5.703  19.424  69.213  0.00  0.00    +0.422 C 
ATOM     28  O   UNL     1      -5.639  20.680  69.371  0.00  0.00    -0.225 OA
BRANCH  27  29
ATOM     29  O   UNL     1      -5.662  18.593  70.336  0.00  0.00    -0.429 OA
ATOM     30  C   UNL     1      -5.644  17.181  70.148  0.00  0.00    +0.257 C 
ENDBRANCH  27  29
ENDBRANCH  25  26
BRANCH  25  31
ATOM     31  C   UNL     1      -5.636  19.708  65.628  0.00  0.00    +0.029 C 
ATOM     32  C   UNL     1      -6.345  20.772  64.798  0.00  0.00    +0.002 C 
ATOM     33  C   UNL     1      -4.276  20.073  65.997  0.00  0.00    +0.002 C 
ENDBRANCH  25  31
ENDBRANCH  20  25
ENDBRANCH  15  18
ENDBRANCH  10  13
ENDBRANCH   4   7
BRANCH   1  36
ATOM     34  C   UNL     1      -9.759   5.824  71.353  0.00  0.00    +0.157 A 
ATOM     35  N   UNL     1      -9.201   6.702  70.475  0.00  0.00    -0.227 NA
ATOM     36  C   UNL     1     -10.093   6.999  69.495  0.00  0.00    +0.102 A 
ATOM     37  C   UNL     1     -11.167   6.178  69.839  0.00  0.00    +0.119 A 
ATOM     38  N   UNL     1     -10.702   5.221  70.685  0.00  0.00    -0.226 NA
BRANCH  34  41
ATOM     39  C   UNL     1      -9.102   7.085  73.803  0.00  0.00    +0.246 C 
ATOM     40  N   UNL     1      -9.370   5.675  73.625  0.00  0.00    -0.273 N 
ATOM     41  C   UNL     1      -8.650   5.142  72.315  0.00  0.00    +0.134 C 
ATOM     42  C   UNL     1      -9.349   3.649  72.384  0.00  0.00    +0.029 C 
ATOM     43  C   UNL     1     -10.599   3.842  73.075  0.00  0.00    +0.024 C 
ATOM     44  C   UNL     1     -10.734   5.230  73.485  0.00  0.00    +0.094 C 
ATOM     45  O   UNL     1      -9.710   7.806  72.954  0.00  0.00    -0.273 OA
BRANCH  39  46
ATOM     46  C   UNL     1      -7.507   7.368  73.900  0.00  0.00    +0.175 C 
BRANCH  46  48
ATOM     47  C   UNL     1      -6.553   8.687  72.039  0.00  0.00    +0.422 C 
ATOM     48  N   UNL     1      -7.550   8.711  73.060  0.00  0.00    -0.161 NA
ATOM     49  O   UNL     1      -6.146   7.605  71.526  0.00  0.00    -0.225 OA
BRANCH  47  51
ATOM     50  C   UNL     1      -6.359  10.256  70.304  0.00  0.00    +0.257 C 
ATOM     51  O   UNL     1      -6.068   9.849  71.434  0.00  0.00    -0.429 OA
ENDBRANCH  47  51
ENDBRANCH  46  48
BRANCH  46  52
ATOM     52  C   UNL     1      -7.663   8.183  75.328  0.00  0.00    +0.029 C 
ATOM     53  C   UNL     1      -6.335   8.892  75.474  0.00  0.00    +0.002 C 
ATOM     54  C   UNL     1      -7.769   7.142  76.400  0.00  0.00    +0.002 C 
ENDBRANCH  46  52
ENDBRANCH  39  46
ENDBRANCH  34  41
ENDBRANCH   1  36
TORSDOF 13
ENDMDL
MODEL 2
REMARK VINA RESULT:      -7.3      2.647     10.947
REMARK  Name = 
REMARK  13 active torsions:
REMARK  status: ('A' for Active; 'I' for Inactive)
REMARK    1  A    between atoms: O_2  and  C_3
REMARK    2  A    between atoms: N_5  and  C_6
REMARK    3  A    between atoms: C_6  and  C_7
REMARK    4  A    between atoms: C_6  and  C_52
REMARK    5  A    between atoms: C_13  and  C_14
REMARK    6  A    between atoms: C_17  and  C_18
REMARK    7  A    between atoms: C_21  and  C_22
REMARK    8  A    between atoms: C_25  and  C_26
REMARK    9  A    between atoms: C_29  and  C_30
REMARK   10  A    between atoms: C_35  and  C_37
REMARK   11  A    between atoms: C_37  and  N_38
REMARK   12  A    between atoms: C_37  and  C_43
REMARK   13  A    between atoms: C_39  and  O_41
REMARK                            x       y       z     vdW  Elec       q    Type
REMARK                         _______ _______ _______ _____ _____    ______ ____
ROOT
ATOM      1  C   UNL     1      -9.469  18.065  67.347  0.00  0.00    +0.019 A 
ATOM      2  C   UNL     1     -10.140  17.954  66.128  0.00  0.00    +0.002 A 
ATOM      3  C   UNL     1     -10.899  16.825  65.822  0.00  0.00    +0.000 A 
ATOM      4  C   UNL     1     -11.112  15.833  66.779  0.00  0.00    +0.000 A 
ATOM      5  C   UNL     1     -11.006  16.330  68.077  0.00  0.00    +0.000 A 
ATOM      6  C   UNL     1     -10.187  17.432  68.359  0.00  0.00    +0.002 A 
ENDROOT
BRANCH   4   7
ATOM      7  C   UNL     1     -10.861  14.418  66.458  0.00  0.00    +0.000 A 
ATOM      8  C   UNL     1     -10.210  14.069  65.277  0.00  0.00    +0.000 A 
ATOM      9  C   UNL     1     -10.462  12.860  64.639  0.00  0.00    +0.002 A 
ATOM     10  C   UNL     1     -10.904  11.796  65.418  0.00  0.00    +0.019 A 
ATOM     11  C   UNL     1     -11.687  12.190  66.499  0.00  0.00    +0.002 A 
ATOM     12  C   UNL     1     -11.878  13.534  66.809  0.00  0.00    +0.000 A 
BRANCH  10  13
ATOM     13  C   UNL     1     -10.172  10.520  65.497  0.00  0.00    +0.102 A 
ATOM     14  N   UNL     1     -10.210   9.616  66.508  0.00  0.00    -0.227 NA
ATOM     15  C   UNL     1      -9.000   9.012  66.623  0.00  0.00    +0.157 A 
ATOM     16  N   UNL     1      -8.144   9.611  65.810  0.00  0.00    -0.226 NA
ATOM     17  C   UNL     1      -8.909  10.324  64.949  0.00  0.00    +0.119 A 
BRANCH  15  18
ATOM     18  C   UNL     1      -8.576   8.523  68.111  0.00  0.00    +0.134 C 
ATOM     19  N   UNL     1      -9.621   7.339  68.081  0.00  0.00    -0.273 N 
ATOM     20  C   UNL     1     -10.411   7.058  69.236  0.00  0.00    +0.246 C 
ATOM     21  O   UNL     1     -11.454   6.436  69.067  0.00  0.00    -0.273 OA
ATOM     22  C   UNL     1      -9.530   6.750  66.798  0.00  0.00    +0.094 C 
ATOM     23  C   UNL     1      -8.073   6.833  66.444  0.00  0.00    +0.024 C 
ATOM     24  C   UNL     1      -7.380   7.521  67.571  0.00  0.00    +0.029 C 
BRANCH  20  25
ATOM     25  C   UNL     1      -9.361   6.526  70.350  0.00  0.00    +0.175 C 
BRANCH  25  26
ATOM     26  N   UNL     1     -10.269   6.941  71.581  0.00  0.00    -0.161 NA
ATOM     27  C   UNL     1     -10.147   8.360  71.738  0.00  0.00    +0.422 C 
ATOM     28  O   UNL     1      -8.980   8.813  71.935  0.00  0.00    -0.225 OA
BRANCH  27  29
ATOM     29  O   UNL     1     -11.249   9.187  71.980  0.00  0.00    -0.429 OA
ATOM     30  C   UNL     1     -12.536   8.595  72.124  0.00  0.00    +0.257 C 
ENDBRANCH  27  29
ENDBRANCH  25  26
BRANCH  25  31
ATOM     31  C   UNL     1      -9.927   4.980  70.263  0.00  0.00    +0.029 C 
ATOM     32  C   UNL     1      -8.796   4.264  69.535  0.00  0.00    +0.002 C 
ATOM     33  C   UNL     1     -10.188   4.445  71.592  0.00  0.00    +0.002 C 
ENDBRANCH  25  31
ENDBRANCH  20  25
ENDBRANCH  15  18
ENDBRANCH  10  13
ENDBRANCH   4   7
BRANCH   1  36
ATOM     34  C   UNL     1      -6.124  18.072  68.590  0.00  0.00    +0.157 A 
ATOM     35  N   UNL     1      -7.234  17.404  68.171  0.00  0.00    -0.227 NA
ATOM     36  C   UNL     1      -8.003  18.225  67.411  0.00  0.00    +0.102 A 
ATOM     37  C   UNL     1      -7.289  19.421  67.485  0.00  0.00    +0.119 A 
ATOM     38  N   UNL     1      -6.445  19.334  68.546  0.00  0.00    -0.226 NA
BRANCH  34  41
ATOM     39  C   UNL     1      -4.084  16.212  67.951  0.00  0.00    +0.246 C 
ATOM     40  N   UNL     1      -4.006  17.232  68.973  0.00  0.00    -0.273 N 
ATOM     41  C   UNL     1      -5.366  17.294  69.790  0.00  0.00    +0.134 C 
ATOM     42  C   UNL     1      -4.938  18.637  70.648  0.00  0.00    +0.029 C 
ATOM     43  C   UNL     1      -4.006  19.348  69.809  0.00  0.00    +0.024 C 
ATOM     44  C   UNL     1      -3.764  18.599  68.586  0.00  0.00    +0.094 C 
ATOM     45  O   UNL     1      -4.856  16.538  66.997  0.00  0.00    -0.273 OA
BRANCH  39  46
ATOM     46  C   UNL     1      -4.401  14.759  68.600  0.00  0.00    +0.175 C 
BRANCH  46  48
ATOM     47  C   UNL     1      -6.685  13.849  68.334  0.00  0.00    +0.422 C 
ATOM     48  N   UNL     1      -5.593  14.418  67.612  0.00  0.00    -0.161 NA
ATOM     49  O   UNL     1      -6.898  14.120  69.550  0.00  0.00    -0.225 OA
BRANCH  47  51
ATOM     50  C   UNL     1      -8.449  12.301  68.285  0.00  0.00    +0.257 C 
ATOM     51  O   UNL     1      -7.672  13.076  67.717  0.00  0.00    -0.429 OA
ENDBRANCH  47  51
ENDBRANCH  46  48
BRANCH  46  52
ATOM     52  C   UNL     1      -3.299  14.003  67.630  0.00  0.00    +0.029 C 
ATOM     53  C   UNL     1      -3.234  12.602  68.197  0.00  0.00    +0.002 C 
ATOM     54  C   UNL     1      -1.985  14.680  67.874  0.00  0.00    +0.002 C 
ENDBRANCH  46  52
ENDBRANCH  39  46
ENDBRANCH  34  41
ENDBRANCH   1  36
TORSDOF 13
ENDMDL
MODEL 3
REMARK VINA RESULT:      -7.3      2.496     10.720
REMARK  Name = 
REMARK  13 active torsions:
REMARK  status: ('A' for Active; 'I' for Inactive)
REMARK    1  A    between atoms: O_2  and  C_3
REMARK    2  A    between atoms: N_5  and  C_6
REMARK    3  A    between atoms: C_6  and  C_7
REMARK    4  A    between atoms: C_6  and  C_52
REMARK    5  A    between atoms: C_13  and  C_14
REMARK    6  A    between atoms: C_17  and  C_18
REMARK    7  A    between atoms: C_21  and  C_22
REMARK    8  A    between atoms: C_25  and  C_26
REMARK    9  A    between atoms: C_29  and  C_30
REMARK   10  A    between atoms: C_35  and  C_37
REMARK   11  A    between atoms: C_37  and  N_38
REMARK   12  A    between atoms: C_37  and  C_43
REMARK   13  A    between atoms: C_39  and  O_41
REMARK                            x       y       z     vdW  Elec       q    Type
REMARK                         _______ _______ _______ _____ _____    ______ ____
ROOT
ATOM      1  C   UNL     1      -8.754  19.706  67.815  0.00  0.00    +0.019 A 
ATOM      2  C   UNL     1      -9.311  19.685  66.536  0.00  0.00    +0.002 A 
ATOM      3  C   UNL     1     -10.150  18.648  66.131  0.00  0.00    +0.000 A 
ATOM      4  C   UNL     1     -10.557  17.670  67.038  0.00  0.00    +0.000 A 
ATOM      5  C   UNL     1     -10.527  18.133  68.353  0.00  0.00    +0.000 A 
ATOM      6  C   UNL     1      -9.629  19.138  68.739  0.00  0.00    +0.002 A 
ENDROOT
BRANCH   4   7
ATOM      7  C   UNL     1     -10.426  16.241  66.707  0.00  0.00    +0.000 A 
ATOM      8  C   UNL     1      -9.392  15.485  67.253  0.00  0.00    +0.000 A 
ATOM      9  C   UNL     1      -8.856  14.393  66.578  0.00  0.00    +0.002 A 
ATOM     10  C   UNL     1      -9.673  13.727  65.671  0.00  0.00    +0.019 A 
ATOM     11  C   UNL     1     -10.585  14.562  65.033  0.00  0.00    +0.002 A 
ATOM     12  C   UNL     1     -10.722  15.901  65.390  0.00  0.00    +0.000 A 
BRANCH  10  13
ATOM     13  C   UNL     1      -9.989  12.294  65.800  0.00  0.00    +0.102 A 
ATOM     14  N   UNL     1      -9.831  11.518  66.902  0.00  0.00    -0.227 NA
ATOM     15  C   UNL     1      -9.517  10.252  66.524  0.00  0.00    +0.157 A 
ATOM     16  N   UNL     1      -9.322  10.232  65.215  0.00  0.00    -0.226 NA
ATOM     17  C   UNL     1      -9.868  11.384  64.755  0.00  0.00    +0.119 A 
BRANCH  15  18
ATOM     18  C   UNL     1      -8.583   9.406  67.546  0.00  0.00    +0.134 C 
ATOM     19  N   UNL     1      -9.741   9.314  68.617  0.00  0.00    -0.273 N 
ATOM     20  C   UNL     1      -9.448   9.510  70.000  0.00  0.00    +0.246 C 
ATOM     21  O   UNL     1     -10.376   9.830  70.732  0.00  0.00    -0.273 OA
ATOM     22  C   UNL     1     -10.927   9.018  67.907  0.00  0.00    +0.094 C 
ATOM     23  C   UNL     1     -10.490   8.105  66.799  0.00  0.00    +0.024 C 
ATOM     24  C   UNL     1      -9.012   7.942  66.913  0.00  0.00    +0.029 C 
BRANCH  20  25
ATOM     25  C   UNL     1      -8.525   8.247  70.423  0.00  0.00    +0.175 C 
BRANCH  25  26
ATOM     26  N   UNL     1      -7.687   9.060  71.494  0.00  0.00    -0.161 NA
ATOM     27  C   UNL     1      -6.540   9.593  70.821  0.00  0.00    +0.422 C 
ATOM     28  O   UNL     1      -5.768   8.756  70.265  0.00  0.00    -0.225 OA
BRANCH  27  29
ATOM     29  O   UNL     1      -6.099  10.906  71.010  0.00  0.00    -0.429 OA
ATOM     30  C   UNL     1      -4.702  11.178  70.958  0.00  0.00    +0.257 C 
ENDBRANCH  27  29
ENDBRANCH  25  26
BRANCH  25  31
ATOM     31  C   UNL     1      -9.641   7.688  71.499  0.00  0.00    +0.029 C 
ATOM     32  C   UNL     1     -10.115   6.402  70.833  0.00  0.00    +0.002 C 
ATOM     33  C   UNL     1      -9.040   7.473  72.808  0.00  0.00    +0.002 C 
ENDBRANCH  25  31
ENDBRANCH  20  25
ENDBRANCH  15  18
ENDBRANCH  10  13
ENDBRANCH   4   7
BRANCH   1  36
ATOM     34  C   UNL     1      -5.570  19.568  69.423  0.00  0.00    +0.157 A 
ATOM     35  N   UNL     1      -6.714  18.963  69.000  0.00  0.00    -0.227 NA
ATOM     36  C   UNL     1      -7.291  19.708  68.022  0.00  0.00    +0.102 A 
ATOM     37  C   UNL     1      -6.435  20.808  67.968  0.00  0.00    +0.119 A 
ATOM     38  N   UNL     1      -5.715  20.828  69.120  0.00  0.00    -0.226 NA
BRANCH  34  41
ATOM     39  C   UNL     1      -3.894  17.286  69.369  0.00  0.00    +0.246 C 
ATOM     40  N   UNL     1      -3.676  18.473  70.164  0.00  0.00    -0.273 N 
ATOM     41  C   UNL     1      -5.039  18.950  70.821  0.00  0.00    +0.134 C 
ATOM     42  C   UNL     1      -4.408  20.352  71.422  0.00  0.00    +0.029 C 
ATOM     43  C   UNL     1      -3.314  20.687  70.545  0.00  0.00    +0.024 C 
ATOM     44  C   UNL     1      -3.156  19.659  69.530  0.00  0.00    +0.094 C 
ATOM     45  O   UNL     1      -4.537  17.525  68.302  0.00  0.00    -0.273 OA
BRANCH  39  46
ATOM     46  C   UNL     1      -4.517  16.088  70.270  0.00  0.00    +0.175 C 
BRANCH  46  48
ATOM     47  C   UNL     1      -6.021  14.442  69.200  0.00  0.00    +0.422 C 
ATOM     48  N   UNL     1      -4.766  15.107  69.050  0.00  0.00    -0.161 NA
ATOM     49  O   UNL     1      -6.985  14.965  69.830  0.00  0.00    -0.225 OA
BRANCH  47  51
ATOM     50  C   UNL     1      -5.675  12.744  67.618  0.00  0.00    +0.257 C 
ATOM     51  O   UNL     1      -6.321  13.246  68.544  0.00  0.00    -0.429 OA
ENDBRANCH  47  51
ENDBRANCH  46  48
BRANCH  46  52
ATOM     52  C   UNL     1      -3.029  15.437  70.568  0.00  0.00    +0.029 C 
ATOM     53  C   UNL     1      -2.711  14.688  69.294  0.00  0.00    +0.002 C 
ATOM     54  C   UNL     1      -3.215  14.443  71.674  0.00  0.00    +0.002 C 
ENDBRANCH  46  52
ENDBRANCH  39  46
ENDBRANCH  34  41
ENDBRANCH   1  36
TORSDOF 13
ENDMDL
MODEL 4
REMARK VINA RESULT:      -7.3      2.348     11.552
REMARK  Name = 
REMARK  13 active torsions:
REMARK  status: ('A' for Active; 'I' for Inactive)
REMARK    1  A    between atoms: O_2  and  C_3
REMARK    2  A    between atoms: N_5  and  C_6
REMARK    3  A    between atoms: C_6  and  C_7
REMARK    4  A    between atoms: C_6  and  C_52
REMARK    5  A    between atoms: C_13  and  C_14
REMARK    6  A    between atoms: C_17  and  C_18
REMARK    7  A    between atoms: C_21  and  C_22
REMARK    8  A    between atoms: C_25  and  C_26
REMARK    9  A    between atoms: C_29  and  C_30
REMARK   10  A    between atoms: C_35  and  C_37
REMARK   11  A    between atoms: C_37  and  N_38
REMARK   12  A    between atoms: C_37  and  C_43
REMARK   13  A    between atoms: C_39  and  O_41
REMARK                            x       y       z     vdW  Elec       q    Type
REMARK                         _______ _______ _______ _____ _____    ______ ____
ROOT
ATOM      1  C   UNL     1     -11.655  14.560  65.884  0.00  0.00    +0.019 A 
ATOM      2  C   UNL     1     -11.838  13.630  64.860  0.00  0.00    +0.002 A 
ATOM      3  C   UNL     1     -11.685  12.264  65.089  0.00  0.00    +0.000 A 
ATOM      4  C   UNL     1     -11.471  11.782  66.380  0.00  0.00    +0.000 A 
ATOM      5  C   UNL     1     -11.972  12.648  67.350  0.00  0.00    +0.000 A 
ATOM      6  C   UNL     1     -12.057  14.026  67.106  0.00  0.00    +0.002 A 
ENDROOT
BRANCH   4   7
ATOM      7  C   UNL     1     -10.364  10.850  66.657  0.00  0.00    +0.000 A 
ATOM      8  C   UNL     1      -9.285  11.253  67.439  0.00  0.00    +0.000 A 
ATOM      9  C   UNL     1      -8.015  10.717  67.255  0.00  0.00    +0.002 A 
ATOM     10  C   UNL     1      -7.923   9.438  66.717  0.00  0.00    +0.019 A 
ATOM     11  C   UNL     1      -8.941   9.143  65.816  0.00  0.00    +0.002 A 
ATOM     12  C   UNL     1     -10.000  10.020  65.600  0.00  0.00    +0.000 A 
BRANCH  10  13
ATOM     13  C   UNL     1      -7.257   8.332  67.426  0.00  0.00    +0.102 A 
ATOM     14  N   UNL     1      -7.792   7.535  68.386  0.00  0.00    -0.227 NA
ATOM     15  C   UNL     1      -6.826   7.177  69.270  0.00  0.00    +0.157 A 
ATOM     16  N   UNL     1      -5.718   7.845  68.987  0.00  0.00    -0.226 NA
ATOM     17  C   UNL     1      -5.900   8.322  67.731  0.00  0.00    +0.119 A 
BRANCH  15  18
ATOM     18  C   UNL     1      -7.307   6.917  70.798  0.00  0.00    +0.134 C 
ATOM     19  N   UNL     1      -8.266   5.742  70.355  0.00  0.00    -0.273 N 
ATOM     20  C   UNL     1      -9.572   5.639  70.921  0.00  0.00    +0.246 C 
ATOM     21  O   UNL     1     -10.409   5.000  70.294  0.00  0.00    -0.273 OA
ATOM     22  C   UNL     1      -7.551   4.969  69.411  0.00  0.00    +0.094 C 
ATOM     23  C   UNL     1      -6.130   4.996  69.896  0.00  0.00    +0.024 C 
ATOM     24  C   UNL     1      -6.094   5.844  71.122  0.00  0.00    +0.029 C 
BRANCH  20  25
ATOM     25  C   UNL     1      -9.331   5.278  72.483  0.00  0.00    +0.175 C 
BRANCH  25  26
ATOM     26  N   UNL     1     -10.673   5.962  72.975  0.00  0.00    -0.161 NA
ATOM     27  C   UNL     1     -10.437   7.375  73.021  0.00  0.00    +0.422 C 
ATOM     28  O   UNL     1      -9.493   7.769  73.768  0.00  0.00    -0.225 OA
BRANCH  27  29
ATOM     29  O   UNL     1     -11.361   8.307  72.539  0.00  0.00    -0.429 OA
ATOM     30  C   UNL     1     -10.971   9.180  71.484  0.00  0.00    +0.257 C 
ENDBRANCH  27  29
ENDBRANCH  25  26
BRANCH  25  31
ATOM     31  C   UNL     1      -9.982   3.772  72.319  0.00  0.00    +0.029 C 
ATOM     32  C   UNL     1      -8.753   2.877  72.427  0.00  0.00    +0.002 C 
ATOM     33  C   UNL     1     -10.973   3.519  73.356  0.00  0.00    +0.002 C 
ENDBRANCH  25  31
ENDBRANCH  20  25
ENDBRANCH  15  18
ENDBRANCH  10  13
ENDBRANCH   4   7
BRANCH   1  36
ATOM     34  C   UNL     1      -9.660  17.408  66.692  0.00  0.00    +0.157 A 
ATOM     35  N   UNL     1     -10.020  16.111  66.901  0.00  0.00    -0.227 NA
ATOM     36  C   UNL     1     -10.631  15.621  65.793  0.00  0.00    +0.102 A 
ATOM     37  C   UNL     1     -10.654  16.745  64.967  0.00  0.00    +0.119 A 
ATOM     38  N   UNL     1     -10.454  17.837  65.751  0.00  0.00    -0.226 NA
BRANCH  34  41
ATOM     39  C   UNL     1      -6.932  17.859  67.303  0.00  0.00    +0.246 C 
ATOM     40  N   UNL     1      -7.995  18.831  67.423  0.00  0.00    -0.273 N 
ATOM     41  C   UNL     1      -9.279  18.162  68.072  0.00  0.00    +0.134 C 
ATOM     42  C   UNL     1     -10.242  19.482  67.841  0.00  0.00    +0.029 C 
ATOM     43  C   UNL     1      -9.690  20.164  66.698  0.00  0.00    +0.024 C 
ATOM     44  C   UNL     1      -8.496  19.477  66.235  0.00  0.00    +0.094 C 
ATOM     45  O   UNL     1      -7.162  16.995  66.403  0.00  0.00    -0.273 OA
BRANCH  39  46
ATOM     46  C   UNL     1      -6.550  17.231  68.750  0.00  0.00    +0.175 C 
BRANCH  46  48
ATOM     47  C   UNL     1      -7.192  14.863  69.060  0.00  0.00    +0.422 C 
ATOM     48  N   UNL     1      -6.429  15.739  68.230  0.00  0.00    -0.161 NA
ATOM     49  O   UNL     1      -8.217  15.258  69.687  0.00  0.00    -0.225 OA
BRANCH  47  51
ATOM     50  C   UNL     1      -5.892  12.949  69.454  0.00  0.00    +0.257 C 
ATOM     51  O   UNL     1      -6.953  13.488  69.122  0.00  0.00    -0.429 OA
ENDBRANCH  47  51
ENDBRANCH  46  48
BRANCH  46  52
ATOM     52  C   UNL     1      -4.937  17.505  68.527  0.00  0.00    +0.029 C 
ATOM     53  C   UNL     1      -4.306  16.915  69.769  0.00  0.00    +0.002 C 
ATOM     54  C   UNL     1      -4.753  18.992  68.558  0.00  0.00    +0.002 C 
ENDBRANCH  46  52
ENDBRANCH  39  46
ENDBRANCH  34  41
ENDBRANCH   1  36
TORSDOF 13
ENDMDL
MODEL 5
REMARK VINA RESULT:      -7.3      4.156     10.627
REMARK  Name = 
REMARK  13 active torsions:
REMARK  status: ('A' for Active; 'I' for Inactive)
REMARK    1  A    between atoms: O_2  and  C_3
REMARK    2  A    between atoms: N_5  and  C_6
REMARK    3  A    between atoms: C_6  and  C_7
REMARK    4  A    between atoms: C_6  and  C_52
REMARK    5  A    between atoms: C_13  and  C_14
REMARK    6  A    between atoms: C_17  and  C_18
REMARK    7  A    between atoms: C_21  and  C_22
REMARK    8  A    between atoms: C_25  and  C_26
REMARK    9  A    between atoms: C_29  and  C_30
REMARK   10  A    between atoms: C_35  and  C_37
REMARK   11  A    between atoms: C_37  and  N_38
REMARK   12  A    between atoms: C_37  and  C_43
REMARK   13  A    between atoms: C_39  and  O_41
REMARK                            x       y       z     vdW  Elec       q    Type
REMARK                         _______ _______ _______ _____ _____    ______ ____
ROOT
ATOM      1  C   UNL     1      -8.436  20.059  67.470  0.00  0.00    +0.019 A 
ATOM      2  C   UNL     1      -8.856  19.648  66.205  0.00  0.00    +0.002 A 
ATOM      3  C   UNL     1      -9.834  18.666  66.053  0.00  0.00    +0.000 A 
ATOM      4  C   UNL     1     -10.511  18.162  67.162  0.00  0.00    +0.000 A 
ATOM      5  C   UNL     1     -10.523  19.068  68.222  0.00  0.00    +0.000 A 
ATOM      6  C   UNL     1      -9.492  20.005  68.377  0.00  0.00    +0.002 A 
ENDROOT
BRANCH   4   7
ATOM      7  C   UNL     1     -10.624  16.708  67.373  0.00  0.00    +0.000 A 
ATOM      8  C   UNL     1     -10.667  15.841  66.284  0.00  0.00    +0.000 A 
ATOM      9  C   UNL     1     -11.343  14.628  66.348  0.00  0.00    +0.002 A 
ATOM     10  C   UNL     1     -11.489  14.033  67.596  0.00  0.00    +0.019 A 
ATOM     11  C   UNL     1     -11.603  14.950  68.636  0.00  0.00    +0.002 A 
ATOM     12  C   UNL     1     -11.452  16.317  68.422  0.00  0.00    +0.000 A 
BRANCH  10  13
ATOM     13  C   UNL     1     -10.976  12.683  67.890  0.00  0.00    +0.102 A 
ATOM     14  N   UNL     1     -10.162  11.930  67.108  0.00  0.00    -0.227 NA
ATOM     15  C   UNL     1     -10.463  10.616  67.273  0.00  0.00    +0.157 A 
ATOM     16  N   UNL     1     -11.547  10.517  68.026  0.00  0.00    -0.226 NA
ATOM     17  C   UNL     1     -11.688  11.731  68.611  0.00  0.00    +0.119 A 
BRANCH  15  18
ATOM     18  C   UNL     1     -10.214   9.653  65.991  0.00  0.00    +0.134 C 
ATOM     19  N   UNL     1      -8.646   9.730  66.167  0.00  0.00    -0.273 N 
ATOM     20  C   UNL     1      -7.809   9.891  65.022  0.00  0.00    +0.246 C 
ATOM     21  O   UNL     1      -6.684  10.341  65.206  0.00  0.00    -0.273 OA
ATOM     22  C   UNL     1      -8.386   9.599  67.550  0.00  0.00    +0.094 C 
ATOM     23  C   UNL     1      -9.420   8.627  68.042  0.00  0.00    +0.024 C 
ATOM     24  C   UNL     1     -10.275   8.260  66.876  0.00  0.00    +0.029 C 
BRANCH  20  25
ATOM     25  C   UNL     1      -7.966   8.513  64.183  0.00  0.00    +0.175 C 
BRANCH  25  26
ATOM     26  N   UNL     1      -7.343   9.108  62.853  0.00  0.00    -0.161 NA
ATOM     27  C   UNL     1      -8.363   9.891  62.220  0.00  0.00    +0.422 C 
ATOM     28  O   UNL     1      -9.437   9.290  61.921  0.00  0.00    -0.225 OA
BRANCH  27  29
ATOM     29  O   UNL     1      -8.110  11.151  61.669  0.00  0.00    -0.429 OA
ATOM     30  C   UNL     1      -6.806  11.438  61.175  0.00  0.00    +0.257 C 
ENDBRANCH  27  29
ENDBRANCH  25  26
BRANCH  25  31
ATOM     31  C   UNL     1      -6.544   7.907  64.755  0.00  0.00    +0.029 C 
ATOM     32  C   UNL     1      -7.009   6.700  65.561  0.00  0.00    +0.002 C 
ATOM     33  C   UNL     1      -5.648   7.561  63.661  0.00  0.00    +0.002 C 
ENDBRANCH  25  31
ENDBRANCH  20  25
ENDBRANCH  15  18
ENDBRANCH  10  13
ENDBRANCH   4   7
BRANCH   1  36
ATOM     34  C   UNL     1      -5.564  19.627  69.544  0.00  0.00    +0.157 A 
ATOM     35  N   UNL     1      -6.678  19.130  68.939  0.00  0.00    -0.227 NA
ATOM     36  C   UNL     1      -7.029  19.929  67.899  0.00  0.00    +0.102 A 
ATOM     37  C   UNL     1      -6.081  20.947  67.998  0.00  0.00    +0.119 A 
ATOM     38  N   UNL     1      -5.548  20.896  69.247  0.00  0.00    -0.226 NA
BRANCH  34  41
ATOM     39  C   UNL     1      -4.356  17.069  69.687  0.00  0.00    +0.246 C 
ATOM     40  N   UNL     1      -4.003  18.215  70.495  0.00  0.00    -0.273 N 
ATOM     41  C   UNL     1      -5.312  18.957  70.996  0.00  0.00    +0.134 C 
ATOM     42  C   UNL     1      -4.494  20.229  71.655  0.00  0.00    +0.029 C 
ATOM     43  C   UNL     1      -3.269  20.329  70.901  0.00  0.00    +0.024 C 
ATOM     44  C   UNL     1      -3.202  19.264  69.914  0.00  0.00    +0.094 C 
ATOM     45  O   UNL     1      -4.825  17.398  68.555  0.00  0.00    -0.273 OA
BRANCH  39  46
ATOM     46  C   UNL     1      -5.288  16.034  70.520  0.00  0.00    +0.175 C 
BRANCH  46  48
ATOM     47  C   UNL     1      -6.941  14.840  69.121  0.00  0.00    +0.422 C 
ATOM     48  N   UNL     1      -5.541  15.055  69.300  0.00  0.00    -0.161 NA
ATOM     49  O   UNL     1      -7.800  15.705  69.457  0.00  0.00    -0.225 OA
BRANCH  47  51
ATOM     50  C   UNL     1      -6.832  13.034  67.625  0.00  0.00    +0.257 C 
ATOM     51  O   UNL     1      -7.450  13.735  68.434  0.00  0.00    -0.429 OA
ENDBRANCH  47  51
ENDBRANCH  46  48
BRANCH  46  52
ATOM     52  C   UNL     1      -3.986  15.158  71.033  0.00  0.00    +0.029 C 
ATOM     53  C   UNL     1      -3.553  14.412  69.791  0.00  0.00    +0.002 C 
ATOM     54  C   UNL     1      -4.508  14.166  72.028  0.00  0.00    +0.002 C 
ENDBRANCH  46  52
ENDBRANCH  39  46
ENDBRANCH  34  41
ENDBRANCH   1  36
TORSDOF 13
ENDMDL
MODEL 6
REMARK VINA RESULT:      -7.2      2.312      3.579
REMARK  Name = 
REMARK  13 active torsions:
REMARK  status: ('A' for Active; 'I' for Inactive)
REMARK    1  A    between atoms: O_2  and  C_3
REMARK    2  A    between atoms: N_5  and  C_6
REMARK    3  A    between atoms: C_6  and  C_7
REMARK    4  A    between atoms: C_6  and  C_52
REMARK    5  A    between atoms: C_13  and  C_14
REMARK    6  A    between atoms: C_17  and  C_18
REMARK    7  A    between atoms: C_21  and  C_22
REMARK    8  A    between atoms: C_25  and  C_26
REMARK    9  A    between atoms: C_29  and  C_30
REMARK   10  A    between atoms: C_35  and  C_37
REMARK   11  A    between atoms: C_37  and  N_38
REMARK   12  A    between atoms: C_37  and  C_43
REMARK   13  A    between atoms: C_39  and  O_41
REMARK                            x       y       z     vdW  Elec       q    Type
REMARK                         _______ _______ _______ _____ _____    ______ ____
ROOT
ATOM      1  C   UNL     1      -8.211   5.112  68.234  0.00  0.00    +0.019 A 
ATOM      2  C   UNL     1      -8.552   5.078  66.881  0.00  0.00    +0.002 A 
ATOM      3  C   UNL     1      -8.373   6.193  66.064  0.00  0.00    +0.000 A 
ATOM      4  C   UNL     1      -7.728   7.331  66.547  0.00  0.00    +0.000 A 
ATOM      5  C   UNL     1      -6.864   7.032  67.599  0.00  0.00    +0.000 A 
ATOM      6  C   UNL     1      -7.107   5.936  68.439  0.00  0.00    +0.002 A 
ENDROOT
BRANCH   4   7
ATOM      7  C   UNL     1      -8.338   8.662  66.386  0.00  0.00    +0.000 A 
ATOM      8  C   UNL     1      -9.695   8.783  66.096  0.00  0.00    +0.000 A 
ATOM      9  C   UNL     1     -10.188   9.862  65.371  0.00  0.00    +0.002 A 
ATOM     10  C   UNL     1      -9.474  11.055  65.417  0.00  0.00    +0.019 A 
ATOM     11  C   UNL     1      -8.101  10.872  65.548  0.00  0.00    +0.002 A 
ATOM     12  C   UNL     1      -7.549   9.609  65.740  0.00  0.00    +0.000 A 
BRANCH  10  13
ATOM     13  C   UNL     1     -10.074  12.313  65.894  0.00  0.00    +0.102 A 
ATOM     14  N   UNL     1      -9.431  13.482  66.146  0.00  0.00    -0.227 NA
ATOM     15  C   UNL     1     -10.045  14.125  67.172  0.00  0.00    +0.157 A 
ATOM     16  N   UNL     1     -10.972  13.330  67.682  0.00  0.00    -0.226 NA
ATOM     17  C   UNL     1     -11.169  12.367  66.750  0.00  0.00    +0.119 A 
BRANCH  15  18
ATOM     18  C   UNL     1      -9.100  15.057  68.107  0.00  0.00    +0.134 C 
ATOM     19  N   UNL     1      -9.209  16.272  67.104  0.00  0.00    -0.273 N 
ATOM     20  C   UNL     1      -8.049  17.042  66.791  0.00  0.00    +0.246 C 
ATOM     21  O   UNL     1      -8.065  17.686  65.748  0.00  0.00    -0.273 OA
ATOM     22  C   UNL     1     -10.563  16.347  66.703  0.00  0.00    +0.094 C 
ATOM     23  C   UNL     1     -11.344  15.963  67.927  0.00  0.00    +0.024 C 
ATOM     24  C   UNL     1     -10.359  15.643  69.000  0.00  0.00    +0.029 C 
BRANCH  20  25
ATOM     25  C   UNL     1      -7.660  17.803  68.168  0.00  0.00    +0.175 C 
BRANCH  25  26
ATOM     26  N   UNL     1      -6.148  18.037  67.755  0.00  0.00    -0.161 NA
ATOM     27  C   UNL     1      -5.481  16.772  67.852  0.00  0.00    +0.422 C 
ATOM     28  O   UNL     1      -5.500  16.204  68.984  0.00  0.00    -0.225 OA
BRANCH  27  29
ATOM     29  O   UNL     1      -4.592  16.314  66.874  0.00  0.00    -0.429 OA
ATOM     30  C   UNL     1      -3.350  16.988  66.703  0.00  0.00    +0.257 C 
ENDBRANCH  27  29
ENDBRANCH  25  26
BRANCH  25  31
ATOM     31  C   UNL     1      -8.194  19.259  67.609  0.00  0.00    +0.029 C 
ATOM     32  C   UNL     1      -9.433  19.497  68.465  0.00  0.00    +0.002 C 
ATOM     33  C   UNL     1      -7.173  20.285  67.773  0.00  0.00    +0.002 C 
ENDBRANCH  25  31
ENDBRANCH  20  25
ENDBRANCH  15  18
ENDBRANCH  10  13
ENDBRANCH   4   7
BRANCH   1  36
ATOM     34  C   UNL     1      -9.874   5.183  71.391  0.00  0.00    +0.157 A 
ATOM     35  N   UNL     1      -9.473   5.801  70.246  0.00  0.00    -0.227 NA
ATOM     36  C   UNL     1      -9.214   4.871  69.291  0.00  0.00    +0.102 A 
ATOM     37  C   UNL     1      -9.428   3.684  69.993  0.00  0.00    +0.119 A 
ATOM     38  N   UNL     1      -9.388   3.976  71.319  0.00  0.00    -0.226 NA
BRANCH  34  41
ATOM     39  C   UNL     1     -12.029   6.975  71.802  0.00  0.00    +0.246 C 
ATOM     40  N   UNL     1     -11.413   6.150  72.817  0.00  0.00    -0.273 N 
ATOM     41  C   UNL     1      -9.834   6.182  72.664  0.00  0.00    +0.134 C 
ATOM     42  C   UNL     1      -9.572   5.023  73.809  0.00  0.00    +0.029 C 
ATOM     43  C   UNL     1     -10.763   4.211  73.813  0.00  0.00    +0.024 C 
ATOM     44  C   UNL     1     -11.734   4.746  72.873  0.00  0.00    +0.094 C 
ATOM     45  O   UNL     1     -11.947   6.463  70.643  0.00  0.00    -0.273 OA
BRANCH  39  46
ATOM     46  C   UNL     1     -11.500   8.507  71.894  0.00  0.00    +0.175 C 
BRANCH  46  48
ATOM     47  C   UNL     1      -9.649   9.196  70.407  0.00  0.00    +0.422 C 
ATOM     48  N   UNL     1     -10.920   8.546  70.420  0.00  0.00    -0.161 NA
ATOM     49  O   UNL     1      -8.883   9.190  71.413  0.00  0.00    -0.225 OA
BRANCH  47  51
ATOM     50  C   UNL     1      -8.387  10.758  69.193  0.00  0.00    +0.257 C 
ATOM     51  O   UNL     1      -9.100   9.751  69.249  0.00  0.00    -0.429 OA
ENDBRANCH  47  51
ENDBRANCH  46  48
BRANCH  46  52
ATOM     52  C   UNL     1     -12.954   9.117  71.405  0.00  0.00    +0.029 C 
ATOM     53  C   UNL     1     -12.716  10.610  71.374  0.00  0.00    +0.002 C 
ATOM     54  C   UNL     1     -13.931   8.812  72.500  0.00  0.00    +0.002 C 
ENDBRANCH  46  52
ENDBRANCH  39  46
ENDBRANCH  34  41
ENDBRANCH   1  36
TORSDOF 13
ENDMDL
MODEL 7
REMARK VINA RESULT:      -7.1      5.395     12.779
REMARK  Name = 
REMARK  13 active torsions:
REMARK  status: ('A' for Active; 'I' for Inactive)
REMARK    1  A    between atoms: O_2  and  C_3
REMARK    2  A    between atoms: N_5  and  C_6
REMARK    3  A    between atoms: C_6  and  C_7
REMARK    4  A    between atoms: C_6  and  C_52
REMARK    5  A    between atoms: C_13  and  C_14
REMARK    6  A    between atoms: C_17  and  C_18
REMARK    7  A    between atoms: C_21  and  C_22
REMARK    8  A    between atoms: C_25  and  C_26
REMARK    9  A    between atoms: C_29  and  C_30
REMARK   10  A    between atoms: C_35  and  C_37
REMARK   11  A    between atoms: C_37  and  N_38
REMARK   12  A    between atoms: C_37  and  C_43
REMARK   13  A    between atoms: C_39  and  O_41
REMARK                            x       y       z     vdW  Elec       q    Type
REMARK                         _______ _______ _______ _____ _____    ______ ____
ROOT
ATOM      1  C   UNL     1     -11.083  14.275  66.790  0.00  0.00    +0.019 A 
ATOM      2  C   UNL     1     -12.116  13.954  65.907  0.00  0.00    +0.002 A 
ATOM      3  C   UNL     1     -12.168  12.710  65.280  0.00  0.00    +0.000 A 
ATOM      4  C   UNL     1     -11.260  11.707  65.617  0.00  0.00    +0.000 A 
ATOM      5  C   UNL     1     -10.760  11.869  66.908  0.00  0.00    +0.000 A 
ATOM      6  C   UNL     1     -10.667  13.142  67.486  0.00  0.00    +0.002 A 
ENDROOT
BRANCH   4   7
ATOM      7  C   UNL     1     -10.511  10.993  64.569  0.00  0.00    +0.000 A 
ATOM      8  C   UNL     1      -9.686   9.921  64.901  0.00  0.00    +0.000 A 
ATOM      9  C   UNL     1      -8.558   9.613  64.149  0.00  0.00    +0.002 A 
ATOM     10  C   UNL     1      -8.552   9.983  62.808  0.00  0.00    +0.019 A 
ATOM     11  C   UNL     1      -9.261  11.153  62.555  0.00  0.00    +0.002 A 
ATOM     12  C   UNL     1      -9.997  11.790  63.551  0.00  0.00    +0.000 A 
BRANCH  10  13
ATOM     13  C   UNL     1      -8.385   9.003  61.721  0.00  0.00    +0.102 A 
ATOM     14  N   UNL     1      -9.003   7.800  61.602  0.00  0.00    -0.227 NA
ATOM     15  C   UNL     1      -8.169   6.920  60.992  0.00  0.00    +0.157 A 
ATOM     16  N   UNL     1      -6.979   7.484  60.852  0.00  0.00    -0.226 NA
ATOM     17  C   UNL     1      -7.188   8.809  61.039  0.00  0.00    +0.119 A 
BRANCH  15  18
ATOM     18  C   UNL     1      -8.339   5.360  61.406  0.00  0.00    +0.134 C 
ATOM     19  N   UNL     1      -9.726   5.255  60.658  0.00  0.00    -0.273 N 
ATOM     20  C   UNL     1     -10.813   4.560  61.270  0.00  0.00    +0.246 C 
ATOM     21  O   UNL     1     -11.944   4.830  60.882  0.00  0.00    -0.273 OA
ATOM     22  C   UNL     1      -9.574   5.925  59.422  0.00  0.00    +0.094 C 
ATOM     23  C   UNL     1      -8.163   5.628  59.000  0.00  0.00    +0.024 C 
ATOM     24  C   UNL     1      -7.544   4.796  60.073  0.00  0.00    +0.029 C 
BRANCH  20  25
ATOM     25  C   UNL     1     -10.356   3.006  61.310  0.00  0.00    +0.175 C 
BRANCH  25  26
ATOM     26  N   UNL     1     -11.103   2.694  62.672  0.00  0.00    -0.161 NA
ATOM     27  C   UNL     1     -10.335   3.292  63.724  0.00  0.00    +0.422 C 
ATOM     28  O   UNL     1      -9.131   2.913  63.835  0.00  0.00    -0.225 OA
BRANCH  27  29
ATOM     29  O   UNL     1     -10.923   4.010  64.770  0.00  0.00    -0.429 OA
ATOM     30  C   UNL     1     -10.158   4.269  65.943  0.00  0.00    +0.257 C 
ENDBRANCH  27  29
ENDBRANCH  25  26
BRANCH  25  31
ATOM     31  C   UNL     1     -11.604   2.530  60.344  0.00  0.00    +0.029 C 
ATOM     32  C   UNL     1     -10.884   2.137  59.059  0.00  0.00    +0.002 C 
ATOM     33  C   UNL     1     -12.343   1.432  60.951  0.00  0.00    +0.002 C 
ENDBRANCH  25  31
ENDBRANCH  20  25
ENDBRANCH  15  18
ENDBRANCH  10  13
ENDBRANCH   4   7
BRANCH   1  36
ATOM     34  C   UNL     1      -9.557  17.491  67.047  0.00  0.00    +0.157 A 
ATOM     35  N   UNL     1      -9.799  16.247  67.546  0.00  0.00    -0.227 NA
ATOM     36  C   UNL     1     -10.181  15.417  66.542  0.00  0.00    +0.102 A 
ATOM     37  C   UNL     1     -10.206  16.289  65.454  0.00  0.00    +0.119 A 
ATOM     38  N   UNL     1     -10.245  17.557  65.941  0.00  0.00    -0.226 NA
BRANCH  34  41
ATOM     39  C   UNL     1      -7.025  18.542  67.757  0.00  0.00    +0.246 C 
ATOM     40  N   UNL     1      -8.225  19.315  67.531  0.00  0.00    -0.273 N 
ATOM     41  C   UNL     1      -9.469  18.606  68.216  0.00  0.00    +0.134 C 
ATOM     42  C   UNL     1     -10.578  19.645  67.571  0.00  0.00    +0.029 C 
ATOM     43  C   UNL     1      -9.990  20.121  66.344  0.00  0.00    +0.024 C 
ATOM     44  C   UNL     1      -8.659  19.561  66.178  0.00  0.00    +0.094 C 
ATOM     45  O   UNL     1      -7.009  17.462  67.092  0.00  0.00    -0.273 OA
BRANCH  39  46
ATOM     46  C   UNL     1      -6.743  18.353  69.344  0.00  0.00    +0.175 C 
BRANCH  46  48
ATOM     47  C   UNL     1      -4.965  16.752  69.968  0.00  0.00    +0.422 C 
ATOM     48  N   UNL     1      -5.233  17.904  69.169  0.00  0.00    -0.161 NA
ATOM     49  O   UNL     1      -5.867  15.917  70.266  0.00  0.00    -0.225 OA
BRANCH  47  51
ATOM     50  C   UNL     1      -3.124  15.304  70.125  0.00  0.00    +0.257 C 
ATOM     51  O   UNL     1      -3.672  16.388  70.352  0.00  0.00    -0.429 OA
ENDBRANCH  47  51
ENDBRANCH  46  48
BRANCH  46  52
ATOM     52  C   UNL     1      -6.315  19.936  69.533  0.00  0.00    +0.029 C 
ATOM     53  C   UNL     1      -5.072  20.068  68.681  0.00  0.00    +0.002 C 
ATOM     54  C   UNL     1      -5.928  20.102  70.971  0.00  0.00    +0.002 C 
ENDBRANCH  46  52
ENDBRANCH  39  46
ENDBRANCH  34  41
ENDBRANCH   1  36
TORSDOF 13
ENDMDL
MODEL 8
REMARK VINA RESULT:      -7.1      2.620      4.441
REMARK  Name = 
REMARK  13 active torsions:
REMARK  status: ('A' for Active; 'I' for Inactive)
REMARK    1  A    between atoms: O_2  and  C_3
REMARK    2  A    between atoms: N_5  and  C_6
REMARK    3  A    between atoms: C_6  and  C_7
REMARK    4  A    between atoms: C_6  and  C_52
REMARK    5  A    between atoms: C_13  and  C_14
REMARK    6  A    between atoms: C_17  and  C_18
REMARK    7  A    between atoms: C_21  and  C_22
REMARK    8  A    between atoms: C_25  and  C_26
REMARK    9  A    between atoms: C_29  and  C_30
REMARK   10  A    between atoms: C_35  and  C_37
REMARK   11  A    between atoms: C_37  and  N_38
REMARK   12  A    between atoms: C_37  and  C_43
REMARK   13  A    between atoms: C_39  and  O_41
REMARK                            x       y       z     vdW  Elec       q    Type
REMARK                         _______ _______ _______ _____ _____    ______ ____
ROOT
ATOM      1  C   UNL     1     -10.460   9.273  70.254  0.00  0.00    +0.019 A 
ATOM      2  C   UNL     1     -11.532   9.991  70.786  0.00  0.00    +0.002 A 
ATOM      3  C   UNL     1     -12.112  11.047  70.085  0.00  0.00    +0.000 A 
ATOM      4  C   UNL     1     -11.719  11.330  68.777  0.00  0.00    +0.000 A 
ATOM      5  C   UNL     1     -11.195  10.209  68.136  0.00  0.00    +0.000 A 
ATOM      6  C   UNL     1     -10.566   9.192  68.868  0.00  0.00    +0.002 A 
ENDROOT
BRANCH   4   7
ATOM      7  C   UNL     1     -11.348  12.701  68.388  0.00  0.00    +0.000 A 
ATOM      8  C   UNL     1     -11.392  13.734  69.321  0.00  0.00    +0.000 A 
ATOM      9  C   UNL     1     -11.647  15.047  68.940  0.00  0.00    +0.002 A 
ATOM     10  C   UNL     1     -11.311  15.422  67.644  0.00  0.00    +0.019 A 
ATOM     11  C   UNL     1     -11.439  14.390  66.719  0.00  0.00    +0.002 A 
ATOM     12  C   UNL     1     -11.751  13.092  67.114  0.00  0.00    +0.000 A 
BRANCH  10  13
ATOM     13  C   UNL     1     -10.370  16.520  67.361  0.00  0.00    +0.102 A 
ATOM     14  N   UNL     1      -9.022  16.500  67.510  0.00  0.00    -0.227 NA
ATOM     15  C   UNL     1      -8.587  17.736  67.865  0.00  0.00    +0.157 A 
ATOM     16  N   UNL     1      -9.636  18.511  68.092  0.00  0.00    -0.226 NA
ATOM     17  C   UNL     1     -10.685  17.864  67.529  0.00  0.00    +0.119 A 
BRANCH  15  18
ATOM     18  C   UNL     1      -7.257  17.793  68.794  0.00  0.00    +0.134 C 
ATOM     19  N   UNL     1      -6.384  17.083  67.686  0.00  0.00    -0.273 N 
ATOM     20  C   UNL     1      -5.455  16.065  68.057  0.00  0.00    +0.246 C 
ATOM     21  O   UNL     1      -5.106  15.276  67.186  0.00  0.00    -0.273 OA
ATOM     22  C   UNL     1      -6.737  17.672  66.450  0.00  0.00    +0.094 C 
ATOM     23  C   UNL     1      -6.990  19.116  66.777  0.00  0.00    +0.024 C 
ATOM     24  C   UNL     1      -6.794  19.281  68.246  0.00  0.00    +0.029 C 
BRANCH  20  25
ATOM     25  C   UNL     1      -4.313  16.824  68.921  0.00  0.00    +0.175 C 
BRANCH  25  26
ATOM     26  N   UNL     1      -3.957  15.553  69.798  0.00  0.00    -0.161 NA
ATOM     27  C   UNL     1      -4.878  15.524  70.896  0.00  0.00    +0.422 C 
ATOM     28  O   UNL     1      -4.890  16.539  71.654  0.00  0.00    -0.225 OA
BRANCH  27  29
ATOM     29  O   UNL     1      -5.507  14.349  71.319  0.00  0.00    -0.429 OA
ATOM     30  C   UNL     1      -5.287  13.891  72.649  0.00  0.00    +0.257 C 
ENDBRANCH  27  29
ENDBRANCH  25  26
BRANCH  25  31
ATOM     31  C   UNL     1      -3.154  16.549  67.782  0.00  0.00    +0.029 C 
ATOM     32  C   UNL     1      -2.909  17.947  67.227  0.00  0.00    +0.002 C 
ATOM     33  C   UNL     1      -1.969  15.949  68.380  0.00  0.00    +0.002 C 
ENDBRANCH  25  31
ENDBRANCH  20  25
ENDBRANCH  15  18
ENDBRANCH  10  13
ENDBRANCH   4   7
BRANCH   1  36
ATOM     34  C   UNL     1      -7.053   8.481  70.967  0.00  0.00    +0.157 A 
ATOM     35  N   UNL     1      -7.990   9.162  70.250  0.00  0.00    -0.227 NA
ATOM     36  C   UNL     1      -9.156   9.204  70.944  0.00  0.00    +0.102 A 
ATOM     37  C   UNL     1      -8.838   8.443  72.069  0.00  0.00    +0.119 A 
ATOM     38  N   UNL     1      -7.730   7.713  71.775  0.00  0.00    -0.226 NA
BRANCH  34  41
ATOM     39  C   UNL     1      -4.865  10.268  70.773  0.00  0.00    +0.246 C 
ATOM     40  N   UNL     1      -4.773   8.844  71.008  0.00  0.00    -0.273 N 
ATOM     41  C   UNL     1      -5.779   8.067  70.059  0.00  0.00    +0.134 C 
ATOM     42  C   UNL     1      -5.511   6.599  70.764  0.00  0.00    +0.029 C 
ATOM     43  C   UNL     1      -5.120   6.891  72.120  0.00  0.00    +0.024 C 
ATOM     44  C   UNL     1      -5.058   8.328  72.324  0.00  0.00    +0.094 C 
ATOM     45  O   UNL     1      -5.948  10.764  71.210  0.00  0.00    -0.273 OA
BRANCH  39  46
ATOM     46  C   UNL     1      -4.543  10.625  69.223  0.00  0.00    +0.175 C 
BRANCH  46  48
ATOM     47  C   UNL     1      -6.432  11.304  67.778  0.00  0.00    +0.422 C 
ATOM     48  N   UNL     1      -5.801  11.570  69.031  0.00  0.00    -0.161 NA
ATOM     49  O   UNL     1      -6.376  10.166  67.229  0.00  0.00    -0.225 OA
BRANCH  47  51
ATOM     50  C   UNL     1      -7.912  13.124  67.705  0.00  0.00    +0.257 C 
ATOM     51  O   UNL     1      -7.272  12.225  67.149  0.00  0.00    -0.429 OA
ENDBRANCH  47  51
ENDBRANCH  46  48
BRANCH  46  52
ATOM     52  C   UNL     1      -3.574  11.896  69.639  0.00  0.00    +0.029 C 
ATOM     53  C   UNL     1      -3.021  12.365  68.312  0.00  0.00    +0.002 C 
ATOM     54  C   UNL     1      -2.451  11.324  70.450  0.00  0.00    +0.002 C 
ENDBRANCH  46  52
ENDBRANCH  39  46
ENDBRANCH  34  41
ENDBRANCH   1  36
TORSDOF 13
ENDMDL
MODEL 9
REMARK VINA RESULT:      -7.0      3.579      6.351
REMARK  Name = 
REMARK  13 active torsions:
REMARK  status: ('A' for Active; 'I' for Inactive)
REMARK    1  A    between atoms: O_2  and  C_3
REMARK    2  A    between atoms: N_5  and  C_6
REMARK    3  A    between atoms: C_6  and  C_7
REMARK    4  A    between atoms: C_6  and  C_52
REMARK    5  A    between atoms: C_13  and  C_14
REMARK    6  A    between atoms: C_17  and  C_18
REMARK    7  A    between atoms: C_21  and  C_22
REMARK    8  A    between atoms: C_25  and  C_26
REMARK    9  A    between atoms: C_29  and  C_30
REMARK   10  A    between atoms: C_35  and  C_37
REMARK   11  A    between atoms: C_37  and  N_38
REMARK   12  A    between atoms: C_37  and  C_43
REMARK   13  A    between atoms: C_39  and  O_41
REMARK                            x       y       z     vdW  Elec       q    Type
REMARK                         _______ _______ _______ _____ _____    ______ ____
ROOT
ATOM      1  C   UNL     1      -8.570   7.687  68.493  0.00  0.00    +0.019 A 
ATOM      2  C   UNL     1      -8.245   8.429  69.629  0.00  0.00    +0.002 A 
ATOM      3  C   UNL     1      -8.983   9.556  69.990  0.00  0.00    +0.000 A 
ATOM      4  C   UNL     1     -10.144   9.895  69.297  0.00  0.00    +0.000 A 
ATOM      5  C   UNL     1     -10.728   8.787  68.685  0.00  0.00    +0.000 A 
ATOM      6  C   UNL     1      -9.947   7.695  68.281  0.00  0.00    +0.002 A 
ENDROOT
BRANCH   4   7
ATOM      7  C   UNL     1     -10.341  11.265  68.792  0.00  0.00    +0.000 A 
ATOM      8  C   UNL     1     -11.613  11.706  68.434  0.00  0.00    +0.000 A 
ATOM      9  C   UNL     1     -11.796  12.670  67.449  0.00  0.00    +0.002 A 
ATOM     10  C   UNL     1     -10.761  13.572  67.225  0.00  0.00    +0.019 A 
ATOM     11  C   UNL     1      -9.499  13.030  67.444  0.00  0.00    +0.002 A 
ATOM     12  C   UNL     1      -9.335  11.748  67.960  0.00  0.00    +0.000 A 
BRANCH  10  13
ATOM     13  C   UNL     1     -10.944  15.028  67.355  0.00  0.00    +0.102 A 
ATOM     14  N   UNL     1     -10.006  15.991  67.167  0.00  0.00    -0.227 NA
ATOM     15  C   UNL     1     -10.247  17.029  68.007  0.00  0.00    +0.157 A 
ATOM     16  N   UNL     1     -11.225  16.694  68.834  0.00  0.00    -0.226 NA
ATOM     17  C   UNL     1     -11.816  15.614  68.267  0.00  0.00    +0.119 A 
BRANCH  15  18
ATOM     18  C   UNL     1      -8.950  17.870  68.504  0.00  0.00    +0.134 C 
ATOM     19  N   UNL     1      -8.531  18.208  67.019  0.00  0.00    -0.273 N 
ATOM     20  C   UNL     1      -7.159  18.131  66.633  0.00  0.00    +0.246 C 
ATOM     21  O   UNL     1      -6.917  18.000  65.439  0.00  0.00    -0.273 OA
ATOM     22  C   UNL     1      -9.716  18.559  66.332  0.00  0.00    +0.094 C 
ATOM     23  C   UNL     1     -10.543  19.291  67.350  0.00  0.00    +0.024 C 
ATOM     24  C   UNL     1      -9.774  19.296  68.628  0.00  0.00    +0.029 C 
BRANCH  20  25
ATOM     25  C   UNL     1      -6.419  19.319  67.450  0.00  0.00    +0.175 C 
BRANCH  25  26
ATOM     26  N   UNL     1      -5.346  18.361  68.114  0.00  0.00    -0.161 NA
ATOM     27  C   UNL     1      -5.609  18.341  69.523  0.00  0.00    +0.422 C 
ATOM     28  O   UNL     1      -5.573  19.456  70.124  0.00  0.00    -0.225 OA
BRANCH  27  29
ATOM     29  O   UNL     1      -5.598  17.161  70.273  0.00  0.00    -0.429 OA
ATOM     30  C   UNL     1      -6.026  15.950  69.657  0.00  0.00    +0.257 C 
ENDBRANCH  27  29
ENDBRANCH  25  26
BRANCH  25  31
ATOM     31  C   UNL     1      -5.476  19.728  66.161  0.00  0.00    +0.029 C 
ATOM     32  C   UNL     1      -5.939  21.149  65.861  0.00  0.00    +0.002 C 
ATOM     33  C   UNL     1      -4.063  19.641  66.501  0.00  0.00    +0.002 C 
ENDBRANCH  25  31
ENDBRANCH  20  25
ENDBRANCH  15  18
ENDBRANCH  10  13
ENDBRANCH   4   7
BRANCH   1  36
ATOM     34  C   UNL     1      -7.168   6.680  65.369  0.00  0.00    +0.157 A 
ATOM     35  N   UNL     1      -8.021   7.456  66.094  0.00  0.00    -0.227 NA
ATOM     36  C   UNL     1      -7.610   7.505  67.386  0.00  0.00    +0.102 A 
ATOM     37  C   UNL     1      -6.508   6.650  67.360  0.00  0.00    +0.119 A 
ATOM     38  N   UNL     1      -6.601   5.890  66.237  0.00  0.00    -0.226 NA
BRANCH  34  41
ATOM     39  C   UNL     1      -7.207   8.603  63.289  0.00  0.00    +0.246 C 
ATOM     40  N   UNL     1      -6.790   7.225  63.156  0.00  0.00    -0.273 N 
ATOM     41  C   UNL     1      -7.793   6.272  63.933  0.00  0.00    +0.134 C 
ATOM     42  C   UNL     1      -6.881   4.915  63.707  0.00  0.00    +0.029 C 
ATOM     43  C   UNL     1      -5.523   5.383  63.578  0.00  0.00    +0.024 C 
ATOM     44  C   UNL     1      -5.488   6.835  63.637  0.00  0.00    +0.094 C 
ATOM     45  O   UNL     1      -7.022   9.057  64.460  0.00  0.00    -0.273 OA
BRANCH  39  46
ATOM     46  C   UNL     1      -8.713   8.813  62.722  0.00  0.00    +0.175 C 
BRANCH  46  48
ATOM     47  C   UNL     1      -9.723  10.886  63.615  0.00  0.00    +0.422 C 
ATOM     48  N   UNL     1      -8.670  10.396  62.785  0.00  0.00    -0.161 NA
ATOM     49  O   UNL     1     -10.197  10.205  64.569  0.00  0.00    -0.225 OA
BRANCH  47  51
ATOM     50  C   UNL     1     -11.378  12.550  63.639  0.00  0.00    +0.257 C 
ATOM     51  O   UNL     1     -10.199  12.197  63.530  0.00  0.00    -0.429 OA
ENDBRANCH  47  51
ENDBRANCH  46  48
BRANCH  46  52
ATOM     52  C   UNL     1      -8.204   8.800  61.152  0.00  0.00    +0.029 C 
ATOM     53  C   UNL     1      -7.460  10.109  61.013  0.00  0.00    +0.002 C 
ATOM     54  C   UNL     1      -9.439   8.860  60.305  0.00  0.00    +0.002 C 
ENDBRANCH  46  52
ENDBRANCH  39  46
ENDBRANCH  34  41
ENDBRANCH   1  36
TORSDOF 13
ENDMDL
