MODEL 1
REMARK VINA RESULT:      -6.6      0.000      0.000
REMARK  Name = 
REMARK  6 active torsions:
REMARK  status: ('A' for Active; 'I' for Inactive)
REMARK    1  A    between atoms: C_2  and  C_3
REMARK    2  A    between atoms: C_3  and  N_4
REMARK    3  A    between atoms: N_4  and  C_5
REMARK    4  A    between atoms: N_4  and  C_12
REMARK    5  A    between atoms: C_5  and  C_6
REMARK    6  A    between atoms: C_6  and  C_7
REMARK                            x       y       z     vdW  Elec       q    Type
REMARK                         _______ _______ _______ _____ _____    ______ ____
ROOT
ATOM      1  N   UNL     1     -10.960  16.176  67.487  0.00  0.00    -0.273 NA
ENDROOT
BRANCH   1   2
ATOM      2  C   UNL     1     -10.729  15.094  66.378  0.00  0.00    +0.062 C 
ATOM      3  C   UNL     1     -11.873  14.056  66.941  0.00  0.00    +0.042 C 
ATOM      4  C   UNL     1     -11.730  12.980  65.904  0.00  0.00    -0.022 A 
ATOM      5  C   UNL     1     -10.402  12.649  65.654  0.00  0.00    +0.013 A 
ATOM      6  C   UNL     1     -10.149  11.672  64.714  0.00  0.00    +0.191 A 
ATOM      7  C   UNL     1     -10.999  11.574  63.638  0.00  0.00    +0.042 A 
ATOM      8  C   UNL     1     -12.165  12.329  63.638  0.00  0.00    +0.003 A 
ATOM      9  O   UNL     1      -9.064  10.803  64.872  0.00  0.00    -0.287 OA
ATOM     10  C   UNL     1      -9.384  12.988  66.672  0.00  0.00    +0.031 C 
ATOM     11  C   UNL     1     -12.527  13.054  64.767  0.00  0.00    -0.004 A 
ATOM     12  C   UNL     1      -9.537  14.365  67.243  0.00  0.00    +0.021 C 
ENDBRANCH   1   2
BRANCH   1  13
ATOM     13  C   UNL     1     -10.058  17.178  67.491  0.00  0.00    +0.072 C 
BRANCH  13  15
ATOM     14  C   UNL     1     -10.496  18.883  67.280  0.00  0.00    +0.001 C 
ATOM     15  C   UNL     1     -10.514  18.575  67.070  0.00  0.00    +0.017 C 
ENDBRANCH  13  15
ENDBRANCH   1  13
BRANCH   1  16
ATOM     16  C   UNL     1     -11.405  15.530  68.657  0.00  0.00    +0.077 C 
BRANCH  16  17
ATOM     17  C   UNL     1     -11.188  16.249  69.945  0.00  0.00    +0.050 C 
BRANCH  17  18
ATOM     18  C   UNL     1     -11.978  15.697  71.074  0.00  0.00    +0.009 A 
ATOM     19  S   UNL     1     -12.734  14.163  71.215  0.00  0.00    -0.091 S 
ATOM     20  C   UNL     1     -13.355  14.312  72.809  0.00  0.00    +0.035 A 
ATOM     21  C   UNL     1     -13.156  15.672  73.022  0.00  0.00    +0.007 A 
ATOM     22  C   UNL     1     -11.999  16.096  72.406  0.00  0.00    +0.003 A 
ENDBRANCH  17  18
ENDBRANCH  16  17
ENDBRANCH   1  16
TORSDOF 6
ENDMDL
MODEL 2
REMARK VINA RESULT:      -6.6      2.860      5.909
REMARK  Name = 
REMARK  6 active torsions:
REMARK  status: ('A' for Active; 'I' for Inactive)
REMARK    1  A    between atoms: C_2  and  C_3
REMARK    2  A    between atoms: C_3  and  N_4
REMARK    3  A    between atoms: N_4  and  C_5
REMARK    4  A    between atoms: N_4  and  C_12
REMARK    5  A    between atoms: C_5  and  C_6
REMARK    6  A    between atoms: C_6  and  C_7
REMARK                            x       y       z     vdW  Elec       q    Type
REMARK                         _______ _______ _______ _____ _____    ______ ____
ROOT
ATOM      1  N   UNL     1     -11.083  14.324  66.826  0.00  0.00    -0.273 NA
ENDROOT
BRANCH   1   2
ATOM      2  C   UNL     1     -12.002  14.083  68.071  0.00  0.00    +0.062 C 
ATOM      3  C   UNL     1     -10.923  14.663  69.168  0.00  0.00    +0.042 C 
ATOM      4  C   UNL     1     -11.747  14.485  70.410  0.00  0.00    -0.022 A 
ATOM      5  C   UNL     1     -12.361  13.238  70.473  0.00  0.00    +0.013 A 
ATOM      6  C   UNL     1     -13.149  12.963  71.571  0.00  0.00    +0.191 A 
ATOM      7  C   UNL     1     -13.850  14.001  72.140  0.00  0.00    +0.042 A 
ATOM      8  C   UNL     1     -13.595  15.295  71.706  0.00  0.00    +0.003 A 
ATOM      9  O   UNL     1     -13.212  11.666  72.090  0.00  0.00    -0.287 OA
ATOM     10  C   UNL     1     -11.811  12.136  69.654  0.00  0.00    +0.031 C 
ATOM     11  C   UNL     1     -12.552  15.542  70.821  0.00  0.00    -0.004 A 
ATOM     12  C   UNL     1     -11.468  12.539  68.252  0.00  0.00    +0.021 C 
ENDBRANCH   1   2
BRANCH   1  13
ATOM     13  C   UNL     1     -10.735  13.204  66.160  0.00  0.00    +0.072 C 
BRANCH  13  15
ATOM     14  C   UNL     1     -10.640  12.971  64.405  0.00  0.00    +0.001 C 
ATOM     15  C   UNL     1     -10.821  13.203  64.634  0.00  0.00    +0.017 C 
ENDBRANCH  13  15
ENDBRANCH   1  13
BRANCH   1  16
ATOM     16  C   UNL     1     -10.176  15.356  67.132  0.00  0.00    +0.077 C 
BRANCH  16  17
ATOM     17  C   UNL     1     -10.132  16.512  66.191  0.00  0.00    +0.050 C 
BRANCH  17  18
ATOM     18  C   UNL     1     -10.028  17.828  66.870  0.00  0.00    +0.009 A 
ATOM     19  S   UNL     1     -10.235  19.400  66.214  0.00  0.00    -0.091 S 
ATOM     20  C   UNL     1     -10.015  20.323  67.646  0.00  0.00    +0.035 A 
ATOM     21  C   UNL     1      -9.521  19.339  68.496  0.00  0.00    +0.007 A 
ATOM     22  C   UNL     1     -10.111  18.123  68.227  0.00  0.00    +0.003 A 
ENDBRANCH  17  18
ENDBRANCH  16  17
ENDBRANCH   1  16
TORSDOF 6
ENDMDL
MODEL 3
REMARK VINA RESULT:      -6.5      2.555      5.066
REMARK  Name = 
REMARK  6 active torsions:
REMARK  status: ('A' for Active; 'I' for Inactive)
REMARK    1  A    between atoms: C_2  and  C_3
REMARK    2  A    between atoms: C_3  and  N_4
REMARK    3  A    between atoms: N_4  and  C_5
REMARK    4  A    between atoms: N_4  and  C_12
REMARK    5  A    between atoms: C_5  and  C_6
REMARK    6  A    between atoms: C_6  and  C_7
REMARK                            x       y       z     vdW  Elec       q    Type
REMARK                         _______ _______ _______ _____ _____    ______ ____
ROOT
ATOM      1  N   UNL     1     -11.057  14.470  67.824  0.00  0.00    -0.273 NA
ENDROOT
BRANCH   1   2
ATOM      2  C   UNL     1     -10.687  15.983  67.989  0.00  0.00    +0.062 C 
ATOM      3  C   UNL     1      -9.950  16.118  66.525  0.00  0.00    +0.042 C 
ATOM      4  C   UNL     1      -9.577  17.571  66.594  0.00  0.00    -0.022 A 
ATOM      5  C   UNL     1      -9.005  17.920  67.813  0.00  0.00    +0.013 A 
ATOM      6  C   UNL     1      -8.626  19.234  67.991  0.00  0.00    +0.191 A 
ATOM      7  C   UNL     1      -9.376  20.213  67.383  0.00  0.00    +0.042 A 
ATOM      8  C   UNL     1     -10.359  19.834  66.478  0.00  0.00    +0.003 A 
ATOM      9  O   UNL     1      -7.499  19.547  68.759  0.00  0.00    -0.287 OA
ATOM     10  C   UNL     1      -8.421  16.853  68.653  0.00  0.00    +0.031 C 
ATOM     11  C   UNL     1     -10.478  18.504  66.093  0.00  0.00    -0.004 A 
ATOM     12  C   UNL     1      -9.274  15.625  68.749  0.00  0.00    +0.021 C 
ENDBRANCH   1   2
BRANCH   1  13
ATOM     13  C   UNL     1     -12.047  14.227  66.941  0.00  0.00    +0.072 C 
BRANCH  13  15
ATOM     14  C   UNL     1     -11.759  12.906  65.794  0.00  0.00    +0.001 C 
ATOM     15  C   UNL     1     -11.976  12.957  66.093  0.00  0.00    +0.017 C 
ENDBRANCH  13  15
ENDBRANCH   1  13
BRANCH   1  16
ATOM     16  C   UNL     1     -10.972  13.848  69.084  0.00  0.00    +0.077 C 
BRANCH  16  17
ATOM     17  C   UNL     1     -12.257  13.598  69.797  0.00  0.00    +0.050 C 
BRANCH  17  18
ATOM     18  C   UNL     1     -12.383  14.345  71.075  0.00  0.00    +0.009 A 
ATOM     19  S   UNL     1     -13.375  14.001  72.432  0.00  0.00    -0.091 S 
ATOM     20  C   UNL     1     -12.877  15.280  73.463  0.00  0.00    +0.035 A 
ATOM     21  C   UNL     1     -12.157  16.055  72.560  0.00  0.00    +0.007 A 
ATOM     22  C   UNL     1     -11.503  15.256  71.647  0.00  0.00    +0.003 A 
ENDBRANCH  17  18
ENDBRANCH  16  17
ENDBRANCH   1  16
TORSDOF 6
ENDMDL
MODEL 4
REMARK VINA RESULT:      -6.4      3.183      6.308
REMARK  Name = 
REMARK  6 active torsions:
REMARK  status: ('A' for Active; 'I' for Inactive)
REMARK    1  A    between atoms: C_2  and  C_3
REMARK    2  A    between atoms: C_3  and  N_4
REMARK    3  A    between atoms: N_4  and  C_5
REMARK    4  A    between atoms: N_4  and  C_12
REMARK    5  A    between atoms: C_5  and  C_6
REMARK    6  A    between atoms: C_6  and  C_7
REMARK                            x       y       z     vdW  Elec       q    Type
REMARK                         _______ _______ _______ _____ _____    ______ ____
ROOT
ATOM      1  N   UNL     1     -10.870  16.314  67.815  0.00  0.00    -0.273 NA
ENDROOT
BRANCH   1   2
ATOM      2  C   UNL     1     -11.822  15.654  68.870  0.00  0.00    +0.062 C 
ATOM      3  C   UNL     1     -10.741  15.716  70.108  0.00  0.00    +0.042 C 
ATOM      4  C   UNL     1     -11.596  15.111  71.183  0.00  0.00    -0.022 A 
ATOM      5  C   UNL     1     -12.262  13.966  70.759  0.00  0.00    +0.013 A 
ATOM      6  C   UNL     1     -13.082  13.326  71.665  0.00  0.00    +0.191 A 
ATOM      7  C   UNL     1     -13.750  14.095  72.589  0.00  0.00    +0.042 A 
ATOM      8  C   UNL     1     -13.433  15.443  72.688  0.00  0.00    +0.003 A 
ATOM      9  O   UNL     1     -13.209  11.933  71.642  0.00  0.00    -0.287 OA
ATOM     10  C   UNL     1     -11.743  13.241  69.579  0.00  0.00    +0.031 C 
ATOM     11  C   UNL     1     -12.364  15.964  71.969  0.00  0.00    -0.004 A 
ATOM     12  C   UNL     1     -11.357  14.137  68.442  0.00  0.00    +0.021 C 
ENDBRANCH   1   2
BRANCH   1  13
ATOM     13  C   UNL     1     -10.324  15.451  66.934  0.00  0.00    +0.072 C 
BRANCH  13  15
ATOM     14  C   UNL     1     -10.725  15.889  65.264  0.00  0.00    +0.001 C 
ATOM     15  C   UNL     1     -10.420  15.769  65.443  0.00  0.00    +0.017 C 
ENDBRANCH  13  15
ENDBRANCH   1  13
BRANCH   1  16
ATOM     16  C   UNL     1     -10.141  17.339  68.449  0.00  0.00    +0.077 C 
BRANCH  16  17
ATOM     17  C   UNL     1     -10.084  18.653  67.748  0.00  0.00    +0.050 C 
BRANCH  17  18
ATOM     18  C   UNL     1      -8.729  19.262  67.738  0.00  0.00    +0.009 A 
ATOM     19  S   UNL     1      -7.352  18.847  68.674  0.00  0.00    -0.091 S 
ATOM     20  C   UNL     1      -6.228  19.964  68.013  0.00  0.00    +0.035 A 
ATOM     21  C   UNL     1      -7.091  20.777  67.285  0.00  0.00    +0.007 A 
ATOM     22  C   UNL     1      -8.124  20.036  66.754  0.00  0.00    +0.003 A 
ENDBRANCH  17  18
ENDBRANCH  16  17
ENDBRANCH   1  16
TORSDOF 6
ENDMDL
MODEL 5
REMARK VINA RESULT:      -6.4      2.675      6.399
REMARK  Name = 
REMARK  6 active torsions:
REMARK  status: ('A' for Active; 'I' for Inactive)
REMARK    1  A    between atoms: C_2  and  C_3
REMARK    2  A    between atoms: C_3  and  N_4
REMARK    3  A    between atoms: N_4  and  C_5
REMARK    4  A    between atoms: N_4  and  C_12
REMARK    5  A    between atoms: C_5  and  C_6
REMARK    6  A    between atoms: C_6  and  C_7
REMARK                            x       y       z     vdW  Elec       q    Type
REMARK                         _______ _______ _______ _____ _____    ______ ____
ROOT
ATOM      1  N   UNL     1     -10.575  15.708  67.639  0.00  0.00    -0.273 NA
ENDROOT
BRANCH   1   2
ATOM      2  C   UNL     1     -11.590  15.333  68.772  0.00  0.00    +0.062 C 
ATOM      3  C   UNL     1     -10.485  15.388  69.988  0.00  0.00    +0.042 C 
ATOM      4  C   UNL     1     -11.394  15.055  71.135  0.00  0.00    -0.022 A 
ATOM      5  C   UNL     1     -12.231  13.977  70.860  0.00  0.00    +0.013 A 
ATOM      6  C   UNL     1     -13.115  13.583  71.843  0.00  0.00    +0.191 A 
ATOM      7  C   UNL     1     -13.642  14.552  72.665  0.00  0.00    +0.042 A 
ATOM      8  C   UNL     1     -13.129  15.840  72.592  0.00  0.00    +0.003 A 
ATOM      9  O   UNL     1     -13.445  12.233  71.997  0.00  0.00    -0.287 OA
ATOM     10  C   UNL     1     -11.850  13.042  69.780  0.00  0.00    +0.031 C 
ATOM     11  C   UNL     1     -12.011  16.103  71.809  0.00  0.00    -0.004 A 
ATOM     12  C   UNL     1     -11.361  13.723  68.537  0.00  0.00    +0.021 C 
ENDBRANCH   1   2
BRANCH   1  13
ATOM     13  C   UNL     1      -9.836  16.808  67.889  0.00  0.00    +0.072 C 
BRANCH  13  15
ATOM     14  C   UNL     1     -10.422  18.464  67.648  0.00  0.00    +0.001 C 
ATOM     15  C   UNL     1     -10.368  18.166  67.430  0.00  0.00    +0.017 C 
ENDBRANCH  13  15
ENDBRANCH   1  13
BRANCH   1  16
ATOM     16  C   UNL     1     -11.176  15.445  66.393  0.00  0.00    +0.077 C 
BRANCH  16  17
ATOM     17  C   UNL     1     -10.283  14.946  65.309  0.00  0.00    +0.050 C 
BRANCH  17  18
ATOM     18  C   UNL     1     -10.802  13.736  64.621  0.00  0.00    +0.009 A 
ATOM     19  S   UNL     1     -10.004  12.250  64.303  0.00  0.00    -0.091 S 
ATOM     20  C   UNL     1     -11.297  11.403  63.555  0.00  0.00    +0.035 A 
ATOM     21  C   UNL     1     -12.194  12.449  63.361  0.00  0.00    +0.007 A 
ATOM     22  C   UNL     1     -12.120  13.351  64.400  0.00  0.00    +0.003 A 
ENDBRANCH  17  18
ENDBRANCH  16  17
ENDBRANCH   1  16
TORSDOF 6
ENDMDL
MODEL 6
REMARK VINA RESULT:      -6.3      3.238      4.669
REMARK  Name = 
REMARK  6 active torsions:
REMARK  status: ('A' for Active; 'I' for Inactive)
REMARK    1  A    between atoms: C_2  and  C_3
REMARK    2  A    between atoms: C_3  and  N_4
REMARK    3  A    between atoms: N_4  and  C_5
REMARK    4  A    between atoms: N_4  and  C_12
REMARK    5  A    between atoms: C_5  and  C_6
REMARK    6  A    between atoms: C_6  and  C_7
REMARK                            x       y       z     vdW  Elec       q    Type
REMARK                         _______ _______ _______ _____ _____    ______ ____
ROOT
ATOM      1  N   UNL     1     -12.462  14.139  70.611  0.00  0.00    -0.273 NA
ENDROOT
BRANCH   1   2
ATOM      2  C   UNL     1     -12.147  14.725  69.193  0.00  0.00    +0.062 C 
ATOM      3  C   UNL     1     -11.522  13.328  68.589  0.00  0.00    +0.042 C 
ATOM      4  C   UNL     1     -11.208  13.804  67.201  0.00  0.00    -0.022 A 
ATOM      5  C   UNL     1     -10.567  15.039  67.189  0.00  0.00    +0.013 A 
ATOM      6  C   UNL     1     -10.232  15.577  65.964  0.00  0.00    +0.191 A 
ATOM      7  C   UNL     1     -11.065  15.329  64.899  0.00  0.00    +0.042 A 
ATOM      8  C   UNL     1     -12.093  14.408  65.056  0.00  0.00    +0.003 A 
ATOM      9  O   UNL     1      -9.068  16.340  65.822  0.00  0.00    -0.287 OA
ATOM     10  C   UNL     1      -9.879  15.491  68.417  0.00  0.00    +0.031 C 
ATOM     11  C   UNL     1     -12.182  13.653  66.219  0.00  0.00    -0.004 A 
ATOM     12  C   UNL     1     -10.670  15.265  69.670  0.00  0.00    +0.021 C 
ENDBRANCH   1   2
BRANCH   1  13
ATOM     13  C   UNL     1     -12.062  14.913  71.640  0.00  0.00    +0.072 C 
BRANCH  13  15
ATOM     14  C   UNL     1     -13.313  15.545  72.725  0.00  0.00    +0.001 C 
ATOM     15  C   UNL     1     -13.120  15.678  72.435  0.00  0.00    +0.017 C 
ENDBRANCH  13  15
ENDBRANCH   1  13
BRANCH   1  16
ATOM     16  C   UNL     1     -12.273  12.744  70.572  0.00  0.00    +0.077 C 
BRANCH  16  17
ATOM     17  C   UNL     1     -13.027  11.936  71.572  0.00  0.00    +0.050 C 
BRANCH  17  18
ATOM     18  C   UNL     1     -12.624  10.507  71.607  0.00  0.00    +0.009 A 
ATOM     19  S   UNL     1     -13.548   9.136  72.068  0.00  0.00    -0.091 S 
ATOM     20  C   UNL     1     -12.386   7.910  71.762  0.00  0.00    +0.035 A 
ATOM     21  C   UNL     1     -11.250   8.692  71.574  0.00  0.00    +0.007 A 
ATOM     22  C   UNL     1     -11.574   9.876  70.949  0.00  0.00    +0.003 A 
ENDBRANCH  17  18
ENDBRANCH  16  17
ENDBRANCH   1  16
TORSDOF 6
ENDMDL
MODEL 7
REMARK VINA RESULT:      -6.2      4.218      5.479
REMARK  Name = 
REMARK  6 active torsions:
REMARK  status: ('A' for Active; 'I' for Inactive)
REMARK    1  A    between atoms: C_2  and  C_3
REMARK    2  A    between atoms: C_3  and  N_4
REMARK    3  A    between atoms: N_4  and  C_5
REMARK    4  A    between atoms: N_4  and  C_12
REMARK    5  A    between atoms: C_5  and  C_6
REMARK    6  A    between atoms: C_6  and  C_7
REMARK                            x       y       z     vdW  Elec       q    Type
REMARK                         _______ _______ _______ _____ _____    ______ ____
ROOT
ATOM      1  N   UNL     1     -11.774  12.181  68.422  0.00  0.00    -0.273 NA
ENDROOT
BRANCH   1   2
ATOM      2  C   UNL     1     -11.895  10.743  69.030  0.00  0.00    +0.062 C 
ATOM      3  C   UNL     1     -12.056  11.251  70.586  0.00  0.00    +0.042 C 
ATOM      4  C   UNL     1     -12.201   9.911  71.246  0.00  0.00    -0.022 A 
ATOM      5  C   UNL     1     -11.261   8.987  70.798  0.00  0.00    +0.013 A 
ATOM      6  C   UNL     1     -11.302   7.717  71.334  0.00  0.00    +0.191 A 
ATOM      7  C   UNL     1     -12.528   7.199  71.679  0.00  0.00    +0.042 A 
ATOM      8  C   UNL     1     -13.638   8.033  71.645  0.00  0.00    +0.003 A 
ATOM      9  O   UNL     1     -10.120   6.995  71.531  0.00  0.00    -0.287 OA
ATOM     10  C   UNL     1     -10.028   9.488  70.156  0.00  0.00    +0.031 C 
ATOM     11  C   UNL     1     -13.482   9.394  71.408  0.00  0.00    -0.004 A 
ATOM     12  C   UNL     1     -10.265  10.592  69.170  0.00  0.00    +0.021 C 
ENDBRANCH   1   2
BRANCH   1  13
ATOM     13  C   UNL     1     -11.177  12.232  67.213  0.00  0.00    +0.072 C 
BRANCH  13  15
ATOM     14  C   UNL     1     -12.209  12.789  65.884  0.00  0.00    +0.001 C 
ATOM     15  C   UNL     1     -11.911  12.922  66.064  0.00  0.00    +0.017 C 
ENDBRANCH  13  15
ENDBRANCH   1  13
BRANCH   1  16
ATOM     16  C   UNL     1     -11.492  13.086  69.463  0.00  0.00    +0.077 C 
BRANCH  16  17
ATOM     17  C   UNL     1     -12.179  14.408  69.409  0.00  0.00    +0.050 C 
BRANCH  17  18
ATOM     18  C   UNL     1     -12.480  14.976  70.748  0.00  0.00    +0.009 A 
ATOM     19  S   UNL     1     -13.987  15.075  71.564  0.00  0.00    -0.091 S 
ATOM     20  C   UNL     1     -13.453  15.788  73.033  0.00  0.00    +0.035 A 
ATOM     21  C   UNL     1     -12.159  16.151  72.671  0.00  0.00    +0.007 A 
ATOM     22  C   UNL     1     -11.617  15.223  71.810  0.00  0.00    +0.003 A 
ENDBRANCH  17  18
ENDBRANCH  16  17
ENDBRANCH   1  16
TORSDOF 6
ENDMDL
MODEL 8
REMARK VINA RESULT:      -6.2      2.855      6.528
REMARK  Name = 
REMARK  6 active torsions:
REMARK  status: ('A' for Active; 'I' for Inactive)
REMARK    1  A    between atoms: C_2  and  C_3
REMARK    2  A    between atoms: C_3  and  N_4
REMARK    3  A    between atoms: N_4  and  C_5
REMARK    4  A    between atoms: N_4  and  C_12
REMARK    5  A    between atoms: C_5  and  C_6
REMARK    6  A    between atoms: C_6  and  C_7
REMARK                            x       y       z     vdW  Elec       q    Type
REMARK                         _______ _______ _______ _____ _____    ______ ____
ROOT
ATOM      1  N   UNL     1     -11.686  15.065  68.640  0.00  0.00    -0.273 NA
ENDROOT
BRANCH   1   2
ATOM      2  C   UNL     1     -10.942  16.443  68.603  0.00  0.00    +0.062 C 
ATOM      3  C   UNL     1     -10.511  16.338  67.019  0.00  0.00    +0.042 C 
ATOM      4  C   UNL     1      -9.797  17.653  66.892  0.00  0.00    -0.022 A 
ATOM      5  C   UNL     1      -8.921  17.892  67.946  0.00  0.00    +0.013 A 
ATOM      6  C   UNL     1      -8.212  19.075  67.937  0.00  0.00    +0.191 A 
ATOM      7  C   UNL     1      -8.817  20.188  67.402  0.00  0.00    +0.042 A 
ATOM      8  C   UNL     1     -10.027  20.034  66.736  0.00  0.00    +0.003 A 
ATOM      9  O   UNL     1      -6.911  19.123  68.447  0.00  0.00    -0.287 OA
ATOM     10  C   UNL     1      -8.447  16.743  68.747  0.00  0.00    +0.031 C 
ATOM     11  C   UNL     1     -10.534  18.763  66.494  0.00  0.00    -0.004 A 
ATOM     12  C   UNL     1      -9.529  15.771  69.108  0.00  0.00    +0.021 C 
ENDBRANCH   1   2
BRANCH   1  13
ATOM     13  C   UNL     1     -11.421  14.313  69.728  0.00  0.00    +0.072 C 
BRANCH  13  15
ATOM     14  C   UNL     1     -12.704  14.044  70.921  0.00  0.00    +0.001 C 
ATOM     15  C   UNL     1     -12.435  14.298  70.871  0.00  0.00    +0.017 C 
ENDBRANCH  13  15
ENDBRANCH   1  13
BRANCH   1  16
ATOM     16  C   UNL     1     -11.732  14.546  67.332  0.00  0.00    +0.077 C 
BRANCH  16  17
ATOM     17  C   UNL     1     -11.802  13.063  67.200  0.00  0.00    +0.050 C 
BRANCH  17  18
ATOM     18  C   UNL     1     -11.616  12.580  65.808  0.00  0.00    +0.009 A 
ATOM     19  S   UNL     1     -10.470  11.457  65.199  0.00  0.00    -0.091 S 
ATOM     20  C   UNL     1     -10.974  11.419  63.558  0.00  0.00    +0.035 A 
ATOM     21  C   UNL     1     -11.844  12.505  63.544  0.00  0.00    +0.007 A 
ATOM     22  C   UNL     1     -12.512  12.607  64.745  0.00  0.00    +0.003 A 
ENDBRANCH  17  18
ENDBRANCH  16  17
ENDBRANCH   1  16
TORSDOF 6
ENDMDL
MODEL 9
REMARK VINA RESULT:      -6.1      2.055      4.188
REMARK  Name = 
REMARK  6 active torsions:
REMARK  status: ('A' for Active; 'I' for Inactive)
REMARK    1  A    between atoms: C_2  and  C_3
REMARK    2  A    between atoms: C_3  and  N_4
REMARK    3  A    between atoms: N_4  and  C_5
REMARK    4  A    between atoms: N_4  and  C_12
REMARK    5  A    between atoms: C_5  and  C_6
REMARK    6  A    between atoms: C_6  and  C_7
REMARK                            x       y       z     vdW  Elec       q    Type
REMARK                         _______ _______ _______ _____ _____    ______ ____
ROOT
ATOM      1  N   UNL     1     -10.718  14.492  68.712  0.00  0.00    -0.273 NA
ENDROOT
BRANCH   1   2
ATOM      2  C   UNL     1     -10.504  13.775  67.336  0.00  0.00    +0.062 C 
ATOM      3  C   UNL     1     -11.996  13.083  67.293  0.00  0.00    +0.042 C 
ATOM      4  C   UNL     1     -11.881  12.381  65.972  0.00  0.00    -0.022 A 
ATOM      5  C   UNL     1     -10.677  11.697  65.830  0.00  0.00    +0.013 A 
ATOM      6  C   UNL     1     -10.460  11.016  64.651  0.00  0.00    +0.191 A 
ATOM      7  C   UNL     1     -10.986  11.541  63.494  0.00  0.00    +0.042 A 
ATOM      8  C   UNL     1     -11.857  12.620  63.586  0.00  0.00    +0.003 A 
ATOM      9  O   UNL     1      -9.736   9.819  64.649  0.00  0.00    -0.287 OA
ATOM     10  C   UNL     1      -9.916  11.345  67.048  0.00  0.00    +0.031 C 
ATOM     11  C   UNL     1     -12.294  13.059  64.830  0.00  0.00    -0.004 A 
ATOM     12  C   UNL     1      -9.832  12.456  68.050  0.00  0.00    +0.021 C 
ENDBRANCH   1   2
BRANCH   1  13
ATOM     13  C   UNL     1     -11.927  14.283  69.272  0.00  0.00    +0.072 C 
BRANCH  13  15
ATOM     14  C   UNL     1     -12.302  14.044  70.988  0.00  0.00    +0.001 C 
ATOM     15  C   UNL     1     -12.022  14.197  70.795  0.00  0.00    +0.017 C 
ENDBRANCH  13  15
ENDBRANCH   1  13
BRANCH   1  16
ATOM     16  C   UNL     1     -10.095  15.754  68.661  0.00  0.00    +0.077 C 
BRANCH  16  17
ATOM     17  C   UNL     1     -10.943  16.905  68.240  0.00  0.00    +0.050 C 
BRANCH  17  18
ATOM     18  C   UNL     1     -10.175  18.011  67.613  0.00  0.00    +0.009 A 
ATOM     19  S   UNL     1      -8.704  17.940  66.733  0.00  0.00    -0.091 S 
ATOM     20  C   UNL     1      -8.554  19.600  66.321  0.00  0.00    +0.035 A 
ATOM     21  C   UNL     1      -9.537  20.144  67.140  0.00  0.00    +0.007 A 
ATOM     22  C   UNL     1     -10.607  19.283  67.254  0.00  0.00    +0.003 A 
ENDBRANCH  17  18
ENDBRANCH  16  17
ENDBRANCH   1  16
TORSDOF 6
ENDMDL
