MODEL 1
REMARK VINA RESULT:      -6.8      0.000      0.000
REMARK  Name = 
REMARK  3 active torsions:
REMARK  status: ('A' for Active; 'I' for Inactive)
REMARK    1  A    between atoms: C_2  and  C_3
REMARK    2  A    between atoms: C_2  and  N_12
REMARK    3  A    between atoms: C_3  and  N_4
REMARK                            x       y       z     vdW  Elec       q    Type
REMARK                         _______ _______ _______ _____ _____    ______ ____
ROOT
ATOM      1  C   UNL     1     -11.041  15.995  68.215  0.00  0.00    +0.019 C 
ATOM      2  C   UNL     1     -11.081  14.605  69.121  0.00  0.00    +0.074 C 
ENDROOT
BRANCH   2   3
ATOM      3  N   UNL     1     -11.949  13.837  68.037  0.00  0.00    -0.257 NA
ATOM      4  C   UNL     1     -11.476  12.476  68.268  0.00  0.00    +0.161 C 
ATOM      5  C   UNL     1     -11.390  11.682  67.015  0.00  0.00    +0.264 C 
ATOM      6  O   UNL     1     -10.584  10.714  66.958  0.00  0.00    -0.271 OA
ATOM      7  N   UNL     1     -12.132  12.144  65.879  0.00  0.00    -0.142 NA
ATOM      8  C   UNL     1     -12.286  13.565  65.768  0.00  0.00    +0.264 C 
ATOM      9  O   UNL     1     -13.250  14.112  65.191  0.00  0.00    -0.271 OA
ATOM     10  C   UNL     1     -11.480  14.343  66.756  0.00  0.00    +0.161 C 
ENDBRANCH   2   3
BRANCH   2  11
ATOM     11  C   UNL     1     -12.443  15.112  69.907  0.00  0.00    +0.089 C 
BRANCH  11  12
ATOM     12  N   UNL     1     -12.256  14.928  71.288  0.00  0.00    -0.256 NA
ATOM     13  C   UNL     1     -11.940  16.050  72.092  0.00  0.00    +0.161 C 
ATOM     14  C   UNL     1     -12.635  15.953  73.421  0.00  0.00    +0.264 C 
ATOM     15  O   UNL     1     -12.069  15.417  74.422  0.00  0.00    -0.271 OA
ATOM     16  N   UNL     1     -14.064  15.934  73.237  0.00  0.00    -0.142 NA
ATOM     17  C   UNL     1     -14.456  15.221  72.047  0.00  0.00    +0.264 C 
ATOM     18  O   UNL     1     -15.242  15.669  71.190  0.00  0.00    -0.271 OA
ATOM     19  C   UNL     1     -13.423  14.172  71.746  0.00  0.00    +0.161 C 
ENDBRANCH  11  12
ENDBRANCH   2  11
TORSDOF 3
ENDMDL
MODEL 2
REMARK VINA RESULT:      -6.8      1.891      6.520
REMARK  Name = 
REMARK  3 active torsions:
REMARK  status: ('A' for Active; 'I' for Inactive)
REMARK    1  A    between atoms: C_2  and  C_3
REMARK    2  A    between atoms: C_2  and  N_12
REMARK    3  A    between atoms: C_3  and  N_4
REMARK                            x       y       z     vdW  Elec       q    Type
REMARK                         _______ _______ _______ _____ _____    ______ ____
ROOT
ATOM      1  C   UNL     1     -12.043  13.574  69.823  0.00  0.00    +0.019 C 
ATOM      2  C   UNL     1     -11.249  15.018  70.024  0.00  0.00    +0.074 C 
ENDROOT
BRANCH   2   3
ATOM      3  N   UNL     1     -12.493  15.684  70.749  0.00  0.00    -0.257 NA
ATOM      4  C   UNL     1     -11.847  16.132  71.978  0.00  0.00    +0.161 C 
ATOM      5  C   UNL     1     -12.736  16.023  73.163  0.00  0.00    +0.264 C 
ATOM      6  O   UNL     1     -12.220  15.901  74.307  0.00  0.00    -0.271 OA
ATOM      7  N   UNL     1     -14.147  15.921  72.932  0.00  0.00    -0.142 NA
ATOM      8  C   UNL     1     -14.538  15.244  71.730  0.00  0.00    +0.264 C 
ATOM      9  O   UNL     1     -15.605  15.474  71.123  0.00  0.00    -0.271 OA
ATOM     10  C   UNL     1     -13.407  14.583  71.010  0.00  0.00    +0.161 C 
ENDBRANCH   2   3
BRANCH   2  11
ATOM     11  C   UNL     1     -11.772  15.553  68.551  0.00  0.00    +0.089 C 
BRANCH  11  12
ATOM     12  N   UNL     1     -11.094  14.836  67.549  0.00  0.00    -0.256 NA
ATOM     13  C   UNL     1     -11.769  14.550  66.337  0.00  0.00    +0.161 C 
ATOM     14  C   UNL     1     -10.826  14.665  65.174  0.00  0.00    +0.264 C 
ATOM     15  O   UNL     1     -10.188  13.656  64.742  0.00  0.00    -0.271 OA
ATOM     16  N   UNL     1     -10.308  16.006  65.081  0.00  0.00    -0.142 NA
ATOM     17  C   UNL     1     -10.099  16.607  66.375  0.00  0.00    +0.264 C 
ATOM     18  O   UNL     1     -10.513  17.736  66.697  0.00  0.00    -0.271 OA
ATOM     19  C   UNL     1      -9.812  15.521  67.374  0.00  0.00    +0.161 C 
ENDBRANCH  11  12
ENDBRANCH   2  11
TORSDOF 3
ENDMDL
MODEL 3
REMARK VINA RESULT:      -6.7      2.826      6.408
REMARK  Name = 
REMARK  3 active torsions:
REMARK  status: ('A' for Active; 'I' for Inactive)
REMARK    1  A    between atoms: C_2  and  C_3
REMARK    2  A    between atoms: C_2  and  N_12
REMARK    3  A    between atoms: C_3  and  N_4
REMARK                            x       y       z     vdW  Elec       q    Type
REMARK                         _______ _______ _______ _____ _____    ______ ____
ROOT
ATOM      1  C   UNL     1     -12.071  13.991  69.299  0.00  0.00    +0.019 C 
ATOM      2  C   UNL     1     -11.164  15.110  70.121  0.00  0.00    +0.074 C 
ENDROOT
BRANCH   2   3
ATOM      3  N   UNL     1     -12.444  15.749  70.810  0.00  0.00    -0.257 NA
ATOM      4  C   UNL     1     -11.847  16.196  72.064  0.00  0.00    +0.161 C 
ATOM      5  C   UNL     1     -12.774  16.061  73.216  0.00  0.00    +0.264 C 
ATOM      6  O   UNL     1     -12.296  15.938  74.376  0.00  0.00    -0.271 OA
ATOM      7  N   UNL     1     -14.175  15.937  72.937  0.00  0.00    -0.142 NA
ATOM      8  C   UNL     1     -14.512  15.264  71.716  0.00  0.00    +0.264 C 
ATOM      9  O   UNL     1     -15.562  15.481  71.075  0.00  0.00    -0.271 OA
ATOM     10  C   UNL     1     -13.347  14.629  71.030  0.00  0.00    +0.161 C 
ENDBRANCH   2   3
BRANCH   2  11
ATOM     11  C   UNL     1     -11.264  16.173  68.861  0.00  0.00    +0.089 C 
BRANCH  11  12
ATOM     12  N   UNL     1     -10.003  16.256  68.245  0.00  0.00    -0.256 NA
ATOM     13  C   UNL     1      -9.885  15.902  66.879  0.00  0.00    +0.161 C 
ATOM     14  C   UNL     1      -8.918  16.818  66.183  0.00  0.00    +0.264 C 
ATOM     15  O   UNL     1      -7.687  16.525  66.086  0.00  0.00    -0.271 OA
ATOM     16  N   UNL     1      -9.387  18.179  66.245  0.00  0.00    -0.142 NA
ATOM     17  C   UNL     1     -10.057  18.475  67.487  0.00  0.00    +0.264 C 
ATOM     18  O   UNL     1     -11.173  19.020  67.567  0.00  0.00    -0.271 OA
ATOM     19  C   UNL     1      -9.495  17.591  68.564  0.00  0.00    +0.161 C 
ENDBRANCH  11  12
ENDBRANCH   2  11
TORSDOF 3
ENDMDL
MODEL 4
REMARK VINA RESULT:      -6.6      4.489      7.145
REMARK  Name = 
REMARK  3 active torsions:
REMARK  status: ('A' for Active; 'I' for Inactive)
REMARK    1  A    between atoms: C_2  and  C_3
REMARK    2  A    between atoms: C_2  and  N_12
REMARK    3  A    between atoms: C_3  and  N_4
REMARK                            x       y       z     vdW  Elec       q    Type
REMARK                         _______ _______ _______ _____ _____    ______ ____
ROOT
ATOM      1  C   UNL     1      -8.995  15.244  68.799  0.00  0.00    +0.019 C 
ATOM      2  C   UNL     1      -8.963  15.953  67.299  0.00  0.00    +0.074 C 
ENDROOT
BRANCH   2   3
ATOM      3  N   UNL     1      -9.032  17.417  67.910  0.00  0.00    -0.257 NA
ATOM      4  C   UNL     1     -10.151  17.948  67.140  0.00  0.00    +0.161 C 
ATOM      5  C   UNL     1      -9.985  19.387  66.811  0.00  0.00    +0.264 C 
ATOM      6  O   UNL     1     -10.571  19.856  65.797  0.00  0.00    -0.271 OA
ATOM      7  N   UNL     1      -9.049  20.147  67.587  0.00  0.00    -0.142 NA
ATOM      8  C   UNL     1      -7.906  19.428  68.068  0.00  0.00    +0.264 C 
ATOM      9  O   UNL     1      -7.283  19.735  69.106  0.00  0.00    -0.271 OA
ATOM     10  C   UNL     1      -7.780  18.045  67.515  0.00  0.00    +0.161 C 
ENDBRANCH   2   3
BRANCH   2  11
ATOM     11  C   UNL     1     -10.609  15.881  67.188  0.00  0.00    +0.089 C 
BRANCH  11  12
ATOM     12  N   UNL     1     -10.962  14.672  66.562  0.00  0.00    -0.256 NA
ATOM     13  C   UNL     1     -12.321  14.274  66.560  0.00  0.00    +0.161 C 
ATOM     14  C   UNL     1     -12.675  13.631  65.249  0.00  0.00    +0.264 C 
ATOM     15  O   UNL     1     -12.587  12.375  65.087  0.00  0.00    -0.271 OA
ATOM     16  N   UNL     1     -12.491  14.566  64.168  0.00  0.00    -0.142 NA
ATOM     17  C   UNL     1     -11.363  15.438  64.381  0.00  0.00    +0.264 C 
ATOM     18  O   UNL     1     -11.407  16.678  64.270  0.00  0.00    -0.271 OA
ATOM     19  C   UNL     1     -10.351  14.725  65.233  0.00  0.00    +0.161 C 
ENDBRANCH  11  12
ENDBRANCH   2  11
TORSDOF 3
ENDMDL
MODEL 5
REMARK VINA RESULT:      -6.6      4.565      7.052
REMARK  Name = 
REMARK  3 active torsions:
REMARK  status: ('A' for Active; 'I' for Inactive)
REMARK    1  A    between atoms: C_2  and  C_3
REMARK    2  A    between atoms: C_2  and  N_12
REMARK    3  A    between atoms: C_3  and  N_4
REMARK                            x       y       z     vdW  Elec       q    Type
REMARK                         _______ _______ _______ _____ _____    ______ ____
ROOT
ATOM      1  C   UNL     1      -8.796  16.455  68.729  0.00  0.00    +0.019 C 
ATOM      2  C   UNL     1      -8.787  16.000  67.133  0.00  0.00    +0.074 C 
ENDROOT
BRANCH   2   3
ATOM      3  N   UNL     1      -8.784  17.506  66.629  0.00  0.00    -0.257 NA
ATOM      4  C   UNL     1      -7.597  17.992  67.324  0.00  0.00    +0.161 C 
ATOM      5  C   UNL     1      -7.737  19.401  67.773  0.00  0.00    +0.264 C 
ATOM      6  O   UNL     1      -7.057  19.800  68.758  0.00  0.00    -0.271 OA
ATOM      7  N   UNL     1      -8.747  20.204  67.149  0.00  0.00    -0.142 NA
ATOM      8  C   UNL     1      -9.929  19.509  66.729  0.00  0.00    +0.264 C 
ATOM      9  O   UNL     1     -10.651  19.885  65.781  0.00  0.00    -0.271 OA
ATOM     10  C   UNL     1      -9.994  18.089  67.188  0.00  0.00    +0.161 C 
ENDBRANCH   2   3
BRANCH   2  11
ATOM     11  C   UNL     1     -10.438  15.952  67.099  0.00  0.00    +0.089 C 
BRANCH  11  12
ATOM     12  N   UNL     1     -10.836  14.739  66.508  0.00  0.00    -0.256 NA
ATOM     13  C   UNL     1     -12.194  14.348  66.601  0.00  0.00    +0.161 C 
ATOM     14  C   UNL     1     -12.638  13.694  65.323  0.00  0.00    +0.264 C 
ATOM     15  O   UNL     1     -12.566  12.437  65.167  0.00  0.00    -0.271 OA
ATOM     16  N   UNL     1     -12.522  14.618  64.223  0.00  0.00    -0.142 NA
ATOM     17  C   UNL     1     -11.379  15.488  64.352  0.00  0.00    +0.264 C 
ATOM     18  O   UNL     1     -11.425  16.726  64.232  0.00  0.00    -0.271 OA
ATOM     19  C   UNL     1     -10.315  14.777  65.141  0.00  0.00    +0.161 C 
ENDBRANCH  11  12
ENDBRANCH   2  11
TORSDOF 3
ENDMDL
MODEL 6
REMARK VINA RESULT:      -6.5      4.382      5.214
REMARK  Name = 
REMARK  3 active torsions:
REMARK  status: ('A' for Active; 'I' for Inactive)
REMARK    1  A    between atoms: C_2  and  C_3
REMARK    2  A    between atoms: C_2  and  N_12
REMARK    3  A    between atoms: C_3  and  N_4
REMARK                            x       y       z     vdW  Elec       q    Type
REMARK                         _______ _______ _______ _____ _____    ______ ____
ROOT
ATOM      1  C   UNL     1      -9.307  13.889  66.943  0.00  0.00    +0.019 C 
ATOM      2  C   UNL     1     -10.000  15.139  67.786  0.00  0.00    +0.074 C 
ENDROOT
BRANCH   2   3
ATOM      3  N   UNL     1     -11.126  15.352  66.687  0.00  0.00    -0.257 NA
ATOM      4  C   UNL     1     -11.855  14.098  66.839  0.00  0.00    +0.161 C 
ATOM      5  C   UNL     1     -12.374  13.580  65.547  0.00  0.00    +0.264 C 
ATOM      6  O   UNL     1     -12.582  12.343  65.422  0.00  0.00    -0.271 OA
ATOM      7  N   UNL     1     -12.482  14.501  64.453  0.00  0.00    -0.142 NA
ATOM      8  C   UNL     1     -11.503  15.548  64.416  0.00  0.00    +0.264 C 
ATOM      9  O   UNL     1     -11.703  16.663  63.892  0.00  0.00    -0.271 OA
ATOM     10  C   UNL     1     -10.408  15.391  65.422  0.00  0.00    +0.161 C 
ENDBRANCH   2   3
BRANCH   2  11
ATOM     11  C   UNL     1      -9.014  16.237  67.045  0.00  0.00    +0.089 C 
BRANCH  11  12
ATOM     12  N   UNL     1      -8.573  17.162  68.008  0.00  0.00    -0.256 NA
ATOM     13  C   UNL     1      -7.454  17.978  67.710  0.00  0.00    +0.161 C 
ATOM     14  C   UNL     1      -7.654  19.360  68.264  0.00  0.00    +0.264 C 
ATOM     15  O   UNL     1      -7.234  19.674  69.420  0.00  0.00    -0.271 OA
ATOM     16  N   UNL     1      -8.815  19.973  67.670  0.00  0.00    -0.142 NA
ATOM     17  C   UNL     1      -9.871  19.024  67.418  0.00  0.00    +0.264 C 
ATOM     18  O   UNL     1     -10.467  18.914  66.331  0.00  0.00    -0.271 OA
ATOM     19  C   UNL     1      -9.766  17.905  68.415  0.00  0.00    +0.161 C 
ENDBRANCH  11  12
ENDBRANCH   2  11
TORSDOF 3
ENDMDL
MODEL 7
REMARK VINA RESULT:      -6.4      4.304      5.477
REMARK  Name = 
REMARK  3 active torsions:
REMARK  status: ('A' for Active; 'I' for Inactive)
REMARK    1  A    between atoms: C_2  and  C_3
REMARK    2  A    between atoms: C_2  and  N_12
REMARK    3  A    between atoms: C_3  and  N_4
REMARK                            x       y       z     vdW  Elec       q    Type
REMARK                         _______ _______ _______ _____ _____    ______ ____
ROOT
ATOM      1  C   UNL     1      -9.375  14.428  68.668  0.00  0.00    +0.019 C 
ATOM      2  C   UNL     1     -10.435  15.549  68.057  0.00  0.00    +0.074 C 
ENDROOT
BRANCH   2   3
ATOM      3  N   UNL     1     -10.704  14.689  66.750  0.00  0.00    -0.257 NA
ATOM      4  C   UNL     1     -10.485  15.715  65.736  0.00  0.00    +0.161 C 
ATOM      5  C   UNL     1     -11.395  15.568  64.571  0.00  0.00    +0.264 C 
ATOM      6  O   UNL     1     -11.671  16.584  63.877  0.00  0.00    -0.271 OA
ATOM      7  N   UNL     1     -12.029  14.297  64.374  0.00  0.00    -0.142 NA
ATOM      8  C   UNL     1     -12.331  13.557  65.564  0.00  0.00    +0.264 C 
ATOM      9  O   UNL     1     -12.404  12.311  65.602  0.00  0.00    -0.271 OA
ATOM     10  C   UNL     1     -12.110  14.322  66.828  0.00  0.00    +0.161 C 
ENDBRANCH   2   3
BRANCH   2  11
ATOM     11  C   UNL     1      -9.204  16.363  67.314  0.00  0.00    +0.089 C 
BRANCH  11  12
ATOM     12  N   UNL     1      -8.681  17.304  68.218  0.00  0.00    -0.256 NA
ATOM     13  C   UNL     1      -7.443  17.923  67.921  0.00  0.00    +0.161 C 
ATOM     14  C   UNL     1      -7.467  19.367  68.339  0.00  0.00    +0.264 C 
ATOM     15  O   UNL     1      -7.063  19.727  69.487  0.00  0.00    -0.271 OA
ATOM     16  N   UNL     1      -8.496  20.077  67.622  0.00  0.00    -0.142 NA
ATOM     17  C   UNL     1      -9.664  19.266  67.389  0.00  0.00    +0.264 C 
ATOM     18  O   UNL     1     -10.216  19.137  66.280  0.00  0.00    -0.271 OA
ATOM     19  C   UNL     1      -9.772  18.243  68.484  0.00  0.00    +0.161 C 
ENDBRANCH  11  12
ENDBRANCH   2  11
TORSDOF 3
ENDMDL
MODEL 8
REMARK VINA RESULT:      -6.3      4.127      5.232
REMARK  Name = 
REMARK  3 active torsions:
REMARK  status: ('A' for Active; 'I' for Inactive)
REMARK    1  A    between atoms: C_2  and  C_3
REMARK    2  A    between atoms: C_2  and  N_12
REMARK    3  A    between atoms: C_3  and  N_4
REMARK                            x       y       z     vdW  Elec       q    Type
REMARK                         _______ _______ _______ _____ _____    ______ ____
ROOT
ATOM      1  C   UNL     1      -9.116  15.023  66.144  0.00  0.00    +0.019 C 
ATOM      2  C   UNL     1     -10.285  15.605  67.168  0.00  0.00    +0.074 C 
ENDROOT
BRANCH   2   3
ATOM      3  N   UNL     1     -11.440  14.824  66.411  0.00  0.00    -0.257 NA
ATOM      4  C   UNL     1     -11.640  13.721  67.344  0.00  0.00    +0.161 C 
ATOM      5  C   UNL     1     -11.966  12.445  66.658  0.00  0.00    +0.264 C 
ATOM      6  O   UNL     1     -11.698  11.355  67.233  0.00  0.00    -0.271 OA
ATOM      7  N   UNL     1     -12.445  12.515  65.309  0.00  0.00    -0.142 NA
ATOM      8  C   UNL     1     -11.931  13.595  64.517  0.00  0.00    +0.264 C 
ATOM      9  O   UNL     1     -12.552  14.107  63.562  0.00  0.00    -0.271 OA
ATOM     10  C   UNL     1     -10.828  14.359  65.175  0.00  0.00    +0.161 C 
ENDBRANCH   2   3
BRANCH   2  11
ATOM     11  C   UNL     1     -10.509  16.937  66.217  0.00  0.00    +0.089 C 
BRANCH  11  12
ATOM     12  N   UNL     1     -10.590  18.069  67.046  0.00  0.00    -0.256 NA
ATOM     13  C   UNL     1     -10.017  18.012  68.340  0.00  0.00    +0.161 C 
ATOM     14  C   UNL     1      -9.376  19.326  68.686  0.00  0.00    +0.264 C 
ATOM     15  O   UNL     1     -10.018  20.229  69.305  0.00  0.00    -0.271 OA
ATOM     16  N   UNL     1      -8.321  19.628  67.753  0.00  0.00    -0.142 NA
ATOM     17  C   UNL     1      -8.625  19.186  66.415  0.00  0.00    +0.264 C 
ATOM     18  O   UNL     1      -7.853  18.511  65.708  0.00  0.00    -0.271 OA
ATOM     19  C   UNL     1     -10.117  19.189  66.230  0.00  0.00    +0.161 C 
ENDBRANCH  11  12
ENDBRANCH   2  11
TORSDOF 3
ENDMDL
MODEL 9
REMARK VINA RESULT:      -5.9      3.964      6.751
REMARK  Name = 
REMARK  3 active torsions:
REMARK  status: ('A' for Active; 'I' for Inactive)
REMARK    1  A    between atoms: C_2  and  C_3
REMARK    2  A    between atoms: C_2  and  N_12
REMARK    3  A    between atoms: C_3  and  N_4
REMARK                            x       y       z     vdW  Elec       q    Type
REMARK                         _______ _______ _______ _____ _____    ______ ____
ROOT
ATOM      1  C   UNL     1      -7.631  15.731  66.901  0.00  0.00    +0.019 C 
ATOM      2  C   UNL     1      -9.066  16.057  66.135  0.00  0.00    +0.074 C 
ENDROOT
BRANCH   2   3
ATOM      3  N   UNL     1      -9.346  17.328  67.044  0.00  0.00    -0.257 NA
ATOM      4  C   UNL     1     -10.404  17.957  66.262  0.00  0.00    +0.161 C 
ATOM      5  C   UNL     1     -10.331  19.441  66.293  0.00  0.00    +0.264 C 
ATOM      6  O   UNL     1     -10.826  20.099  65.338  0.00  0.00    -0.271 OA
ATOM      7  N   UNL     1      -9.574  20.050  67.347  0.00  0.00    -0.142 NA
ATOM      8  C   UNL     1      -8.438  19.309  67.812  0.00  0.00    +0.264 C 
ATOM      9  O   UNL     1      -7.981  19.399  68.971  0.00  0.00    -0.271 OA
ATOM     10  C   UNL     1      -8.118  18.106  66.984  0.00  0.00    +0.161 C 
ENDBRANCH   2   3
BRANCH   2  11
ATOM     11  C   UNL     1      -9.890  15.080  67.182  0.00  0.00    +0.089 C 
BRANCH  11  12
ATOM     12  N   UNL     1     -11.029  14.582  66.526  0.00  0.00    -0.256 NA
ATOM     13  C   UNL     1     -10.862  13.616  65.504  0.00  0.00    +0.161 C 
ATOM     14  C   UNL     1     -11.963  12.595  65.564  0.00  0.00    +0.264 C 
ATOM     15  O   UNL     1     -13.027  12.734  64.885  0.00  0.00    -0.271 OA
ATOM     16  N   UNL     1     -11.936  11.905  66.828  0.00  0.00    -0.142 NA
ATOM     17  C   UNL     1     -11.548  12.766  67.918  0.00  0.00    +0.264 C 
ATOM     18  O   UNL     1     -10.666  12.486  68.751  0.00  0.00    -0.271 OA
ATOM     19  C   UNL     1     -11.950  14.176  67.588  0.00  0.00    +0.161 C 
ENDBRANCH  11  12
ENDBRANCH   2  11
TORSDOF 3
ENDMDL
