MODEL 1
REMARK VINA RESULT:      -6.9      0.000      0.000
REMARK  Name = 
REMARK  9 active torsions:
REMARK  status: ('A' for Active; 'I' for Inactive)
REMARK    1  A    between atoms: C_2  and  O_4
REMARK    2  A    between atoms: O_4  and  C_5
REMARK    3  A    between atoms: C_5  and  C_6
REMARK    4  A    between atoms: C_6  and  C_7
REMARK    5  A    between atoms: C_6  and  C_19
REMARK    6  A    between atoms: C_7  and  C_8
REMARK    7  A    between atoms: C_8  and  N_9
REMARK    8  A    between atoms: C_19  and  O_20
REMARK    9  A    between atoms: O_20  and  C_21
REMARK                            x       y       z     vdW  Elec       q    Type
REMARK                         _______ _______ _______ _____ _____    ______ ____
ROOT
ATOM      1  C   UNL     1     -11.479  14.114  69.833  0.00  0.00    +0.032 C 
ENDROOT
BRANCH   1   2
ATOM      2  C   UNL     1     -11.864  15.589  69.841  0.00  0.00    +0.090 C 
BRANCH   2   3
ATOM      3  C   UNL     1     -10.708  16.313  69.165  0.00  0.00    +0.212 C 
BRANCH   3   4
ATOM      4  O   UNL     1     -11.141  17.277  68.237  0.00  0.00    -0.448 OA
BRANCH   4   5
ATOM      5  C   UNL     1     -10.285  18.161  67.597  0.00  0.00    +0.318 C 
ATOM      6  O   UNL     1      -9.245  17.673  67.112  0.00  0.00    -0.250 OA
ATOM      7  C   UNL     1     -10.668  19.522  67.170  0.00  0.00    +0.121 C 
ENDBRANCH   4   5
ENDBRANCH   3   4
ENDBRANCH   2   3
BRANCH   2   8
ATOM      8  C   UNL     1     -11.964  16.150  71.228  0.00  0.00    +0.212 C 
BRANCH   8   9
ATOM      9  O   UNL     1     -13.207  15.937  71.848  0.00  0.00    -0.448 OA
BRANCH   9  11
ATOM     10  C   UNL     1     -12.465  15.442  74.223  0.00  0.00    +0.121 C 
ATOM     11  C   UNL     1     -13.229  15.121  72.979  0.00  0.00    +0.318 C 
ATOM     12  O   UNL     1     -13.802  14.006  72.818  0.00  0.00    -0.250 OA
ENDBRANCH   9  11
ENDBRANCH   8   9
ENDBRANCH   2   8
ENDBRANCH   1   2
BRANCH   1  13
ATOM     13  C   UNL     1     -10.689  13.860  68.576  0.00  0.00    +0.109 C 
BRANCH  13  14
ATOM     14  N   UNL     1     -11.480  13.158  67.571  0.00  0.00    -0.294 N 
ATOM     15  C   UNL     1     -11.729  13.634  66.332  0.00  0.00    +0.167 A 
ATOM     16  C   UNL     1     -11.873  12.573  65.458  0.00  0.00    +0.136 A 
ATOM     17  C   UNL     1     -12.035  12.839  64.119  0.00  0.00    +0.124 A 
ATOM     18  N   UNL     1     -12.303  14.097  63.742  0.00  0.00    -0.208 NA
ATOM     19  C   UNL     1     -12.010  15.124  64.574  0.00  0.00    +0.258 A 
ATOM     20  N   UNL     1     -11.698  16.395  64.005  0.00  0.00    -0.086 NA
ATOM     21  N   UNL     1     -11.717  11.474  66.211  0.00  0.00    -0.221 NA
ATOM     22  N   UNL     1     -11.795  14.905  65.876  0.00  0.00    -0.192 NA
ATOM     23  C   UNL     1     -11.679  11.821  67.506  0.00  0.00    +0.180 A 
ENDBRANCH  13  14
ENDBRANCH   1  13
TORSDOF 9
ENDMDL
MODEL 2
REMARK VINA RESULT:      -6.6      0.640      4.163
REMARK  Name = 
REMARK  9 active torsions:
REMARK  status: ('A' for Active; 'I' for Inactive)
REMARK    1  A    between atoms: C_2  and  O_4
REMARK    2  A    between atoms: O_4  and  C_5
REMARK    3  A    between atoms: C_5  and  C_6
REMARK    4  A    between atoms: C_6  and  C_7
REMARK    5  A    between atoms: C_6  and  C_19
REMARK    6  A    between atoms: C_7  and  C_8
REMARK    7  A    between atoms: C_8  and  N_9
REMARK    8  A    between atoms: C_19  and  O_20
REMARK    9  A    between atoms: O_20  and  C_21
REMARK                            x       y       z     vdW  Elec       q    Type
REMARK                         _______ _______ _______ _____ _____    ______ ____
ROOT
ATOM      1  C   UNL     1     -11.621  13.746  69.620  0.00  0.00    +0.032 C 
ENDROOT
BRANCH   1   2
ATOM      2  C   UNL     1     -11.738  15.218  69.998  0.00  0.00    +0.090 C 
BRANCH   2   3
ATOM      3  C   UNL     1     -13.135  15.376  70.581  0.00  0.00    +0.212 C 
BRANCH   3   4
ATOM      4  O   UNL     1     -13.124  15.952  71.863  0.00  0.00    -0.448 OA
BRANCH   4   5
ATOM      5  C   UNL     1     -13.171  15.211  73.036  0.00  0.00    +0.318 C 
ATOM      6  O   UNL     1     -13.605  14.046  72.938  0.00  0.00    -0.250 OA
ATOM      7  C   UNL     1     -12.453  15.574  74.274  0.00  0.00    +0.121 C 
ENDBRANCH   4   5
ENDBRANCH   3   4
ENDBRANCH   2   3
BRANCH   2   8
ATOM      8  C   UNL     1     -11.668  16.126  68.807  0.00  0.00    +0.212 C 
BRANCH   8   9
ATOM      9  O   UNL     1     -10.804  17.223  68.968  0.00  0.00    -0.448 OA
BRANCH   9  11
ATOM     10  C   UNL     1     -10.368  19.364  67.680  0.00  0.00    +0.121 C 
ATOM     11  C   UNL     1     -10.373  17.876  67.813  0.00  0.00    +0.318 C 
ATOM     12  O   UNL     1     -10.150  17.117  66.827  0.00  0.00    -0.250 OA
ENDBRANCH   9  11
ENDBRANCH   8   9
ENDBRANCH   2   8
ENDBRANCH   1   2
BRANCH   1  13
ATOM     13  C   UNL     1     -10.751  13.662  68.393  0.00  0.00    +0.109 C 
BRANCH  13  14
ATOM     14  N   UNL     1     -11.349  12.822  67.360  0.00  0.00    -0.294 N 
ATOM     15  C   UNL     1     -11.694  13.261  66.131  0.00  0.00    +0.167 A 
ATOM     16  C   UNL     1     -11.581  12.220  65.228  0.00  0.00    +0.136 A 
ATOM     17  C   UNL     1     -11.791  12.478  63.895  0.00  0.00    +0.124 A 
ATOM     18  N   UNL     1     -12.344  13.648  63.546  0.00  0.00    -0.208 NA
ATOM     19  C   UNL     1     -12.305  14.692  64.408  0.00  0.00    +0.258 A 
ATOM     20  N   UNL     1     -12.296  16.016  63.875  0.00  0.00    -0.086 NA
ATOM     21  N   UNL     1     -11.177  11.168  65.955  0.00  0.00    -0.221 NA
ATOM     22  N   UNL     1     -12.053  14.493  65.707  0.00  0.00    -0.192 NA
ATOM     23  C   UNL     1     -11.230  11.478  67.258  0.00  0.00    +0.180 A 
ENDBRANCH  13  14
ENDBRANCH   1  13
TORSDOF 9
ENDMDL
MODEL 3
REMARK VINA RESULT:      -6.4      1.342      1.535
REMARK  Name = 
REMARK  9 active torsions:
REMARK  status: ('A' for Active; 'I' for Inactive)
REMARK    1  A    between atoms: C_2  and  O_4
REMARK    2  A    between atoms: O_4  and  C_5
REMARK    3  A    between atoms: C_5  and  C_6
REMARK    4  A    between atoms: C_6  and  C_7
REMARK    5  A    between atoms: C_6  and  C_19
REMARK    6  A    between atoms: C_7  and  C_8
REMARK    7  A    between atoms: C_8  and  N_9
REMARK    8  A    between atoms: C_19  and  O_20
REMARK    9  A    between atoms: O_20  and  C_21
REMARK                            x       y       z     vdW  Elec       q    Type
REMARK                         _______ _______ _______ _____ _____    ______ ____
ROOT
ATOM      1  C   UNL     1     -10.779  13.917  68.868  0.00  0.00    +0.032 C 
ENDROOT
BRANCH   1   2
ATOM      2  C   UNL     1     -11.468  15.274  68.953  0.00  0.00    +0.090 C 
BRANCH   2   3
ATOM      3  C   UNL     1     -10.472  16.270  68.375  0.00  0.00    +0.212 C 
BRANCH   3   4
ATOM      4  O   UNL     1     -10.828  17.605  68.637  0.00  0.00    -0.448 OA
BRANCH   4   5
ATOM      5  C   UNL     1     -10.267  18.690  67.976  0.00  0.00    +0.318 C 
ATOM      6  O   UNL     1     -11.051  19.405  67.321  0.00  0.00    -0.250 OA
ATOM      7  C   UNL     1      -8.922  19.228  68.263  0.00  0.00    +0.121 C 
ENDBRANCH   4   5
ENDBRANCH   3   4
ENDBRANCH   2   3
BRANCH   2   8
ATOM      8  C   UNL     1     -11.725  15.702  70.366  0.00  0.00    +0.212 C 
BRANCH   8   9
ATOM      9  O   UNL     1     -13.085  15.884  70.675  0.00  0.00    -0.448 OA
BRANCH   9  11
ATOM     10  C   UNL     1     -13.513  13.810  72.072  0.00  0.00    +0.121 C 
ATOM     11  C   UNL     1     -13.564  15.286  71.840  0.00  0.00    +0.318 C 
ATOM     12  O   UNL     1     -14.200  16.059  72.611  0.00  0.00    -0.250 OA
ENDBRANCH   9  11
ENDBRANCH   8   9
ENDBRANCH   2   8
ENDBRANCH   1   2
BRANCH   1  13
ATOM     13  C   UNL     1     -11.856  12.866  68.809  0.00  0.00    +0.109 C 
BRANCH  13  14
ATOM     14  N   UNL     1     -11.694  11.988  67.655  0.00  0.00    -0.294 N 
ATOM     15  C   UNL     1     -11.733  12.405  66.372  0.00  0.00    +0.167 A 
ATOM     16  C   UNL     1     -10.927  11.587  65.602  0.00  0.00    +0.136 A 
ATOM     17  C   UNL     1     -10.746  11.898  64.276  0.00  0.00    +0.124 A 
ATOM     18  N   UNL     1     -11.545  12.817  63.717  0.00  0.00    -0.208 NA
ATOM     19  C   UNL     1     -12.207  13.700  64.503  0.00  0.00    +0.258 A 
ATOM     20  N   UNL     1     -12.519  14.986  63.971  0.00  0.00    -0.086 NA
ATOM     21  N   UNL     1     -10.431  10.680  66.457  0.00  0.00    -0.221 NA
ATOM     22  N   UNL     1     -12.363  13.461  65.810  0.00  0.00    -0.192 NA
ATOM     23  C   UNL     1     -11.044  10.800  67.643  0.00  0.00    +0.180 A 
ENDBRANCH  13  14
ENDBRANCH   1  13
TORSDOF 9
ENDMDL
MODEL 4
REMARK VINA RESULT:      -6.4      1.488      2.620
REMARK  Name = 
REMARK  9 active torsions:
REMARK  status: ('A' for Active; 'I' for Inactive)
REMARK    1  A    between atoms: C_2  and  O_4
REMARK    2  A    between atoms: O_4  and  C_5
REMARK    3  A    between atoms: C_5  and  C_6
REMARK    4  A    between atoms: C_6  and  C_7
REMARK    5  A    between atoms: C_6  and  C_19
REMARK    6  A    between atoms: C_7  and  C_8
REMARK    7  A    between atoms: C_8  and  N_9
REMARK    8  A    between atoms: C_19  and  O_20
REMARK    9  A    between atoms: O_20  and  C_21
REMARK                            x       y       z     vdW  Elec       q    Type
REMARK                         _______ _______ _______ _____ _____    ______ ____
ROOT
ATOM      1  C   UNL     1     -11.589  14.672  67.922  0.00  0.00    +0.032 C 
ENDROOT
BRANCH   1   2
ATOM      2  C   UNL     1     -11.812  15.976  68.679  0.00  0.00    +0.090 C 
BRANCH   2   3
ATOM      3  C   UNL     1     -10.636  16.867  68.304  0.00  0.00    +0.212 C 
BRANCH   3   4
ATOM      4  O   UNL     1     -11.038  18.151  67.896  0.00  0.00    -0.448 OA
BRANCH   4   5
ATOM      5  C   UNL     1     -10.328  18.922  66.985  0.00  0.00    +0.318 C 
ATOM      6  O   UNL     1     -10.374  18.555  65.794  0.00  0.00    -0.250 OA
ATOM      7  C   UNL     1      -9.825  20.281  67.267  0.00  0.00    +0.121 C 
ENDBRANCH   4   5
ENDBRANCH   3   4
ENDBRANCH   2   3
BRANCH   2   8
ATOM      8  C   UNL     1     -11.751  15.795  70.166  0.00  0.00    +0.212 C 
BRANCH   8   9
ATOM      9  O   UNL     1     -12.844  15.095  70.706  0.00  0.00    -0.448 OA
BRANCH   9  11
ATOM     10  C   UNL     1     -12.523  15.407  73.203  0.00  0.00    +0.121 C 
ATOM     11  C   UNL     1     -13.325  15.514  71.947  0.00  0.00    +0.318 C 
ATOM     12  O   UNL     1     -14.548  15.830  71.962  0.00  0.00    -0.250 OA
ENDBRANCH   9  11
ENDBRANCH   8   9
ENDBRANCH   2   8
ENDBRANCH   1   2
BRANCH   1  13
ATOM     13  C   UNL     1     -10.465  14.901  66.946  0.00  0.00    +0.109 C 
BRANCH  13  14
ATOM     14  N   UNL     1     -10.886  14.667  65.569  0.00  0.00    -0.294 N 
ATOM     15  C   UNL     1     -10.909  13.453  64.979  0.00  0.00    +0.167 A 
ATOM     16  C   UNL     1     -11.912  13.428  64.028  0.00  0.00    +0.136 A 
ATOM     17  C   UNL     1     -12.173  12.248  63.375  0.00  0.00    +0.124 A 
ATOM     18  N   UNL     1     -11.295  11.242  63.489  0.00  0.00    -0.208 NA
ATOM     19  C   UNL     1     -10.421  11.228  64.524  0.00  0.00    +0.258 A 
ATOM     20  N   UNL     1      -9.957   9.969  65.008  0.00  0.00    -0.086 NA
ATOM     21  N   UNL     1     -12.461  14.651  64.066  0.00  0.00    -0.221 NA
ATOM     22  N   UNL     1     -10.174  12.344  65.220  0.00  0.00    -0.192 NA
ATOM     23  C   UNL     1     -11.719  15.450  64.846  0.00  0.00    +0.180 A 
ENDBRANCH  13  14
ENDBRANCH   1  13
TORSDOF 9
ENDMDL
MODEL 5
REMARK VINA RESULT:      -6.3      1.413      4.738
REMARK  Name = 
REMARK  9 active torsions:
REMARK  status: ('A' for Active; 'I' for Inactive)
REMARK    1  A    between atoms: C_2  and  O_4
REMARK    2  A    between atoms: O_4  and  C_5
REMARK    3  A    between atoms: C_5  and  C_6
REMARK    4  A    between atoms: C_6  and  C_7
REMARK    5  A    between atoms: C_6  and  C_19
REMARK    6  A    between atoms: C_7  and  C_8
REMARK    7  A    between atoms: C_8  and  N_9
REMARK    8  A    between atoms: C_19  and  O_20
REMARK    9  A    between atoms: O_20  and  C_21
REMARK                            x       y       z     vdW  Elec       q    Type
REMARK                         _______ _______ _______ _____ _____    ______ ____
ROOT
ATOM      1  C   UNL     1     -12.024  14.495  68.871  0.00  0.00    +0.032 C 
ENDROOT
BRANCH   1   2
ATOM      2  C   UNL     1     -10.898  15.210  69.609  0.00  0.00    +0.090 C 
BRANCH   2   3
ATOM      3  C   UNL     1     -11.576  15.979  70.733  0.00  0.00    +0.212 C 
BRANCH   3   4
ATOM      4  O   UNL     1     -12.947  15.684  70.841  0.00  0.00    -0.448 OA
BRANCH   4   5
ATOM      5  C   UNL     1     -13.548  15.260  72.019  0.00  0.00    +0.318 C 
ATOM      6  O   UNL     1     -14.359  16.050  72.542  0.00  0.00    -0.250 OA
ATOM      7  C   UNL     1     -13.550  13.861  72.491  0.00  0.00    +0.121 C 
ENDBRANCH   4   5
ENDBRANCH   3   4
ENDBRANCH   2   3
BRANCH   2   8
ATOM      8  C   UNL     1     -10.205  16.228  68.754  0.00  0.00    +0.212 C 
BRANCH   8   9
ATOM      9  O   UNL     1     -11.076  17.063  68.032  0.00  0.00    -0.448 OA
BRANCH   9  11
ATOM     10  C   UNL     1     -10.315  19.464  67.734  0.00  0.00    +0.121 C 
ATOM     11  C   UNL     1     -10.502  18.064  67.248  0.00  0.00    +0.318 C 
ATOM     12  O   UNL     1     -10.308  17.746  66.040  0.00  0.00    -0.250 OA
ENDBRANCH   9  11
ENDBRANCH   8   9
ENDBRANCH   2   8
ENDBRANCH   1   2
BRANCH   1  13
ATOM     13  C   UNL     1     -11.402  13.388  68.060  0.00  0.00    +0.109 C 
BRANCH  13  14
ATOM     14  N   UNL     1     -11.580  13.600  66.627  0.00  0.00    -0.294 N 
ATOM     15  C   UNL     1     -11.254  12.695  65.680  0.00  0.00    +0.167 A 
ATOM     16  C   UNL     1     -12.095  12.850  64.594  0.00  0.00    +0.136 A 
ATOM     17  C   UNL     1     -11.999  11.959  63.552  0.00  0.00    +0.124 A 
ATOM     18  N   UNL     1     -10.938  11.140  63.503  0.00  0.00    -0.208 NA
ATOM     19  C   UNL     1     -10.224  10.899  64.628  0.00  0.00    +0.258 A 
ATOM     20  N   UNL     1      -9.554   9.646  64.755  0.00  0.00    -0.086 NA
ATOM     21  N   UNL     1     -12.906  13.867  64.922  0.00  0.00    -0.221 NA
ATOM     22  N   UNL     1     -10.325  11.713  65.685  0.00  0.00    -0.192 NA
ATOM     23  C   UNL     1     -12.469  14.442  66.051  0.00  0.00    +0.180 A 
ENDBRANCH  13  14
ENDBRANCH   1  13
TORSDOF 9
ENDMDL
MODEL 6
REMARK VINA RESULT:      -6.2      3.355      5.956
REMARK  Name = 
REMARK  9 active torsions:
REMARK  status: ('A' for Active; 'I' for Inactive)
REMARK    1  A    between atoms: C_2  and  O_4
REMARK    2  A    between atoms: O_4  and  C_5
REMARK    3  A    between atoms: C_5  and  C_6
REMARK    4  A    between atoms: C_6  and  C_7
REMARK    5  A    between atoms: C_6  and  C_19
REMARK    6  A    between atoms: C_7  and  C_8
REMARK    7  A    between atoms: C_8  and  N_9
REMARK    8  A    between atoms: C_19  and  O_20
REMARK    9  A    between atoms: O_20  and  C_21
REMARK                            x       y       z     vdW  Elec       q    Type
REMARK                         _______ _______ _______ _____ _____    ______ ____
ROOT
ATOM      1  C   UNL     1     -10.535  15.740  67.852  0.00  0.00    +0.032 C 
ENDROOT
BRANCH   1   2
ATOM      2  C   UNL     1      -9.846  15.266  66.577  0.00  0.00    +0.090 C 
BRANCH   2   3
ATOM      3  C   UNL     1      -8.904  16.395  66.183  0.00  0.00    +0.212 C 
BRANCH   3   4
ATOM      4  O   UNL     1      -9.589  17.556  65.783  0.00  0.00    -0.448 OA
BRANCH   4   5
ATOM      5  C   UNL     1      -9.286  18.825  66.257  0.00  0.00    +0.318 C 
ATOM      6  O   UNL     1      -8.239  19.344  65.822  0.00  0.00    -0.250 OA
ATOM      7  C   UNL     1     -10.253  19.704  66.947  0.00  0.00    +0.121 C 
ENDBRANCH   4   5
ENDBRANCH   3   4
ENDBRANCH   2   3
BRANCH   2   8
ATOM      8  C   UNL     1     -10.803  15.092  65.437  0.00  0.00    +0.212 C 
BRANCH   8   9
ATOM      9  O   UNL     1     -10.866  13.781  64.933  0.00  0.00    -0.448 OA
BRANCH   9  11
ATOM     10  C   UNL     1     -12.134  12.105  63.512  0.00  0.00    +0.121 C 
ATOM     11  C   UNL     1     -11.954  13.457  64.121  0.00  0.00    +0.318 C 
ATOM     12  O   UNL     1     -12.684  14.437  63.799  0.00  0.00    -0.250 OA
ENDBRANCH   9  11
ENDBRANCH   8   9
ENDBRANCH   2   8
ENDBRANCH   1   2
BRANCH   1  13
ATOM     13  C   UNL     1     -11.778  14.909  68.030  0.00  0.00    +0.109 C 
BRANCH  13  14
ATOM     14  N   UNL     1     -11.648  13.970  69.139  0.00  0.00    -0.294 N 
ATOM     15  C   UNL     1     -12.328  14.069  70.301  0.00  0.00    +0.167 A 
ATOM     16  C   UNL     1     -12.528  12.803  70.820  0.00  0.00    +0.136 A 
ATOM     17  C   UNL     1     -13.290  12.669  71.956  0.00  0.00    +0.124 A 
ATOM     18  N   UNL     1     -13.593  13.769  72.660  0.00  0.00    -0.208 NA
ATOM     19  C   UNL     1     -13.524  14.985  72.068  0.00  0.00    +0.258 A 
ATOM     20  N   UNL     1     -14.387  16.021  72.535  0.00  0.00    -0.086 NA
ATOM     21  N   UNL     1     -11.943  11.970  69.948  0.00  0.00    -0.221 NA
ATOM     22  N   UNL     1     -12.835  15.151  70.933  0.00  0.00    -0.192 NA
ATOM     23  C   UNL     1     -11.247  12.680  69.048  0.00  0.00    +0.180 A 
ENDBRANCH  13  14
ENDBRANCH   1  13
TORSDOF 9
ENDMDL
MODEL 7
REMARK VINA RESULT:      -6.0      2.317      4.514
REMARK  Name = 
REMARK  9 active torsions:
REMARK  status: ('A' for Active; 'I' for Inactive)
REMARK    1  A    between atoms: C_2  and  O_4
REMARK    2  A    between atoms: O_4  and  C_5
REMARK    3  A    between atoms: C_5  and  C_6
REMARK    4  A    between atoms: C_6  and  C_7
REMARK    5  A    between atoms: C_6  and  C_19
REMARK    6  A    between atoms: C_7  and  C_8
REMARK    7  A    between atoms: C_8  and  N_9
REMARK    8  A    between atoms: C_19  and  O_20
REMARK    9  A    between atoms: O_20  and  C_21
REMARK                            x       y       z     vdW  Elec       q    Type
REMARK                         _______ _______ _______ _____ _____    ______ ____
ROOT
ATOM      1  C   UNL     1     -11.064  15.686  67.709  0.00  0.00    +0.032 C 
ENDROOT
BRANCH   1   2
ATOM      2  C   UNL     1     -11.824  14.809  68.697  0.00  0.00    +0.090 C 
BRANCH   2   3
ATOM      3  C   UNL     1     -11.661  15.487  70.050  0.00  0.00    +0.212 C 
BRANCH   3   4
ATOM      4  O   UNL     1     -12.879  15.963  70.567  0.00  0.00    -0.448 OA
BRANCH   4   5
ATOM      5  C   UNL     1     -13.661  15.248  71.464  0.00  0.00    +0.318 C 
ATOM      6  O   UNL     1     -14.866  15.566  71.525  0.00  0.00    -0.250 OA
ATOM      7  C   UNL     1     -13.258  13.965  72.074  0.00  0.00    +0.121 C 
ENDBRANCH   4   5
ENDBRANCH   3   4
ENDBRANCH   2   3
BRANCH   2   8
ATOM      8  C   UNL     1     -11.225  13.442  68.832  0.00  0.00    +0.212 C 
BRANCH   8   9
ATOM      9  O   UNL     1     -12.169  12.408  68.958  0.00  0.00    -0.448 OA
BRANCH   9  11
ATOM     10  C   UNL     1     -11.076  10.372  70.006  0.00  0.00    +0.121 C 
ATOM     11  C   UNL     1     -11.702  11.097  68.859  0.00  0.00    +0.318 C 
ATOM     12  O   UNL     1     -11.690  10.625  67.687  0.00  0.00    -0.250 OA
ENDBRANCH   9  11
ENDBRANCH   8   9
ENDBRANCH   2   8
ENDBRANCH   1   2
BRANCH   1  13
ATOM     13  C   UNL     1     -10.171  14.785  66.897  0.00  0.00    +0.109 C 
BRANCH  13  14
ATOM     14  N   UNL     1     -10.691  14.579  65.549  0.00  0.00    -0.294 N 
ATOM     15  C   UNL     1     -10.768  13.377  64.941  0.00  0.00    +0.167 A 
ATOM     16  C   UNL     1     -11.836  13.378  64.063  0.00  0.00    +0.136 A 
ATOM     17  C   UNL     1     -12.154  12.212  63.409  0.00  0.00    +0.124 A 
ATOM     18  N   UNL     1     -11.280  11.197  63.443  0.00  0.00    -0.208 NA
ATOM     19  C   UNL     1     -10.335  11.157  64.413  0.00  0.00    +0.258 A 
ATOM     20  N   UNL     1      -9.850   9.885  64.841  0.00  0.00    -0.086 NA
ATOM     21  N   UNL     1     -12.368  14.605  64.162  0.00  0.00    -0.221 NA
ATOM     22  N   UNL     1     -10.028  12.257  65.109  0.00  0.00    -0.192 NA
ATOM     23  C   UNL     1     -11.566  15.383  64.901  0.00  0.00    +0.180 A 
ENDBRANCH  13  14
ENDBRANCH   1  13
TORSDOF 9
ENDMDL
MODEL 8
REMARK VINA RESULT:      -5.9      3.474      6.023
REMARK  Name = 
REMARK  9 active torsions:
REMARK  status: ('A' for Active; 'I' for Inactive)
REMARK    1  A    between atoms: C_2  and  O_4
REMARK    2  A    between atoms: O_4  and  C_5
REMARK    3  A    between atoms: C_5  and  C_6
REMARK    4  A    between atoms: C_6  and  C_7
REMARK    5  A    between atoms: C_6  and  C_19
REMARK    6  A    between atoms: C_7  and  C_8
REMARK    7  A    between atoms: C_8  and  N_9
REMARK    8  A    between atoms: C_19  and  O_20
REMARK    9  A    between atoms: O_20  and  C_21
REMARK                            x       y       z     vdW  Elec       q    Type
REMARK                         _______ _______ _______ _____ _____    ______ ____
ROOT
ATOM      1  C   UNL     1      -9.756  16.565  68.876  0.00  0.00    +0.032 C 
ENDROOT
BRANCH   1   2
ATOM      2  C   UNL     1      -9.178  16.733  67.476  0.00  0.00    +0.090 C 
BRANCH   2   3
ATOM      3  C   UNL     1      -9.693  18.078  66.985  0.00  0.00    +0.212 C 
BRANCH   3   4
ATOM      4  O   UNL     1      -8.655  18.985  66.703  0.00  0.00    -0.448 OA
BRANCH   4   5
ATOM      5  C   UNL     1      -7.355  18.594  66.413  0.00  0.00    +0.318 C 
ATOM      6  O   UNL     1      -7.100  18.364  65.214  0.00  0.00    -0.250 OA
ATOM      7  C   UNL     1      -6.216  18.755  67.339  0.00  0.00    +0.121 C 
ENDBRANCH   4   5
ENDBRANCH   3   4
ENDBRANCH   2   3
BRANCH   2   8
ATOM      8  C   UNL     1      -9.691  15.704  66.514  0.00  0.00    +0.212 C 
BRANCH   8   9
ATOM      9  O   UNL     1      -9.993  16.209  65.237  0.00  0.00    -0.448 OA
BRANCH   9  11
ATOM     10  C   UNL     1     -11.717  14.406  64.780  0.00  0.00    +0.121 C 
ATOM     11  C   UNL     1     -11.190  15.798  64.651  0.00  0.00    +0.318 C 
ATOM     12  O   UNL     1     -11.709  16.636  63.861  0.00  0.00    -0.250 OA
ENDBRANCH   9  11
ENDBRANCH   8   9
ENDBRANCH   2   8
ENDBRANCH   1   2
BRANCH   1  13
ATOM     13  C   UNL     1     -11.117  15.935  68.731  0.00  0.00    +0.109 C 
BRANCH  13  14
ATOM     14  N   UNL     1     -11.255  14.743  69.562  0.00  0.00    -0.294 N 
ATOM     15  C   UNL     1     -12.032  14.672  70.663  0.00  0.00    +0.167 A 
ATOM     16  C   UNL     1     -12.482  13.374  70.819  0.00  0.00    +0.136 A 
ATOM     17  C   UNL     1     -13.373  13.102  71.829  0.00  0.00    +0.124 A 
ATOM     18  N   UNL     1     -13.575  14.029  72.775  0.00  0.00    -0.208 NA
ATOM     19  C   UNL     1     -13.254  15.322  72.527  0.00  0.00    +0.258 A 
ATOM     20  N   UNL     1     -13.990  16.347  73.193  0.00  0.00    -0.086 NA
ATOM     21  N   UNL     1     -11.943  12.692  69.798  0.00  0.00    -0.221 NA
ATOM     22  N   UNL     1     -12.429  15.637  71.522  0.00  0.00    -0.192 NA
ATOM     23  C   UNL     1     -11.053  13.466  69.162  0.00  0.00    +0.180 A 
ENDBRANCH  13  14
ENDBRANCH   1  13
TORSDOF 9
ENDMDL
MODEL 9
REMARK VINA RESULT:      -5.9      4.103      6.212
REMARK  Name = 
REMARK  9 active torsions:
REMARK  status: ('A' for Active; 'I' for Inactive)
REMARK    1  A    between atoms: C_2  and  O_4
REMARK    2  A    between atoms: O_4  and  C_5
REMARK    3  A    between atoms: C_5  and  C_6
REMARK    4  A    between atoms: C_6  and  C_7
REMARK    5  A    between atoms: C_6  and  C_19
REMARK    6  A    between atoms: C_7  and  C_8
REMARK    7  A    between atoms: C_8  and  N_9
REMARK    8  A    between atoms: C_19  and  O_20
REMARK    9  A    between atoms: O_20  and  C_21
REMARK                            x       y       z     vdW  Elec       q    Type
REMARK                         _______ _______ _______ _____ _____    ______ ____
ROOT
ATOM      1  C   UNL     1     -11.743  11.904  68.577  0.00  0.00    +0.032 C 
ENDROOT
BRANCH   1   2
ATOM      2  C   UNL     1     -11.975  13.388  68.313  0.00  0.00    +0.090 C 
BRANCH   2   3
ATOM      3  C   UNL     1     -11.222  13.692  67.027  0.00  0.00    +0.212 C 
BRANCH   3   4
ATOM      4  O   UNL     1     -11.460  12.739  66.021  0.00  0.00    -0.448 OA
BRANCH   4   5
ATOM      5  C   UNL     1     -12.385  12.916  65.001  0.00  0.00    +0.318 C 
ATOM      6  O   UNL     1     -13.152  13.893  65.113  0.00  0.00    -0.250 OA
ATOM      7  C   UNL     1     -12.301  12.256  63.683  0.00  0.00    +0.121 C 
ENDBRANCH   4   5
ENDBRANCH   3   4
ENDBRANCH   2   3
BRANCH   2   8
ATOM      8  C   UNL     1     -11.376  14.261  69.374  0.00  0.00    +0.212 C 
BRANCH   8   9
ATOM      9  O   UNL     1     -12.222  15.292  69.818  0.00  0.00    -0.448 OA
BRANCH   9  11
ATOM     10  C   UNL     1     -14.020  15.212  71.606  0.00  0.00    +0.121 C 
ATOM     11  C   UNL     1     -12.595  15.282  71.162  0.00  0.00    +0.318 C 
ATOM     12  O   UNL     1     -11.655  15.510  71.975  0.00  0.00    -0.250 OA
ENDBRANCH   9  11
ENDBRANCH   8   9
ENDBRANCH   2   8
ENDBRANCH   1   2
BRANCH   1  13
ATOM     13  C   UNL     1     -11.932  11.672  70.053  0.00  0.00    +0.109 C 
BRANCH  13  14
ATOM     14  N   UNL     1     -11.361  10.398  70.479  0.00  0.00    -0.294 N 
ATOM     15  C   UNL     1     -12.086   9.359  70.944  0.00  0.00    +0.167 A 
ATOM     16  C   UNL     1     -11.443   8.177  70.628  0.00  0.00    +0.136 A 
ATOM     17  C   UNL     1     -12.064   6.988  70.925  0.00  0.00    +0.124 A 
ATOM     18  N   UNL     1     -13.135   7.006  71.731  0.00  0.00    -0.208 NA
ATOM     19  C   UNL     1     -13.828   8.157  71.900  0.00  0.00    +0.258 A 
ATOM     20  N   UNL     1     -15.221   8.077  72.197  0.00  0.00    -0.086 NA
ATOM     21  N   UNL     1     -10.327   8.547  69.983  0.00  0.00    -0.221 NA
ATOM     22  N   UNL     1     -13.281   9.334  71.577  0.00  0.00    -0.192 NA
ATOM     23  C   UNL     1     -10.181   9.877  70.069  0.00  0.00    +0.180 A 
ENDBRANCH  13  14
ENDBRANCH   1  13
TORSDOF 9
ENDMDL
