MODEL 1
REMARK VINA RESULT:      -6.5      0.000      0.000
REMARK  Name = 
REMARK  4 active torsions:
REMARK  status: ('A' for Active; 'I' for Inactive)
REMARK    1  A    between atoms: C_3  and  C_4
REMARK    2  A    between atoms: C_4  and  C_5
REMARK    3  A    between atoms: C_11  and  C_12
REMARK    4  A    between atoms: C_12  and  C_14
REMARK                            x       y       z     vdW  Elec       q    Type
REMARK                         _______ _______ _______ _____ _____    ______ ____
ROOT
ATOM      1  N   UNL     1     -10.241  16.484  65.278  0.00  0.00    -0.128 NA
ATOM      2  C   UNL     1     -10.541  15.771  66.484  0.00  0.00    +0.089 A 
ATOM      3  C   UNL     1     -10.471  16.441  67.698  0.00  0.00    +0.055 A 
ATOM      4  C   UNL     1     -10.754  15.706  68.828  0.00  0.00    +0.005 A 
ATOM      5  C   UNL     1     -11.680  14.680  68.673  0.00  0.00    -0.000 A 
ATOM      6  C   UNL     1     -11.981  14.145  67.427  0.00  0.00    -0.002 A 
ATOM      7  C   UNL     1     -11.295  14.614  66.333  0.00  0.00    +0.006 A 
ENDROOT
BRANCH   3   8
ATOM      8  C   UNL     1     -10.085  17.833  67.703  0.00  0.00    +0.197 C 
ATOM      9  O   UNL     1     -10.966  18.731  67.631  0.00  0.00    -0.287 OA
BRANCH   8  10
ATOM     10  C   UNL     1      -8.700  18.284  67.693  0.00  0.00    +0.039 A 
ATOM     11  C   UNL     1      -8.345  19.614  67.502  0.00  0.00    +0.004 A 
ATOM     12  C   UNL     1      -7.226  20.132  68.145  0.00  0.00    +0.007 A 
ATOM     13  C   UNL     1      -6.520  19.373  69.071  0.00  0.00    +0.035 A 
ATOM     14 BR   UNL     1      -5.789  20.165  70.651  0.00  0.00    -0.049 Br
ATOM     15  C   UNL     1      -6.631  17.995  68.925  0.00  0.00    +0.007 A 
ATOM     16  C   UNL     1      -7.672  17.475  68.165  0.00  0.00    +0.004 A 
ENDBRANCH   8  10
ENDBRANCH   3   8
BRANCH   7  17
ATOM     17  C   UNL     1     -10.965  13.767  65.149  0.00  0.00    +0.142 C 
BRANCH  17  18
ATOM     18  C   UNL     1     -12.237  13.582  64.389  0.00  0.00    +0.369 C 
ATOM     19  O   UNL     1     -13.076  12.505  64.654  0.00  0.00    -0.245 OA
ATOM     20  O   UNL     1     -12.738  14.635  63.893  0.00  0.00    -0.245 OA
ENDBRANCH  17  18
ENDBRANCH   7  17
TORSDOF 4
ENDMDL
MODEL 2
REMARK VINA RESULT:      -6.5      1.387      1.762
REMARK  Name = 
REMARK  4 active torsions:
REMARK  status: ('A' for Active; 'I' for Inactive)
REMARK    1  A    between atoms: C_3  and  C_4
REMARK    2  A    between atoms: C_4  and  C_5
REMARK    3  A    between atoms: C_11  and  C_12
REMARK    4  A    between atoms: C_12  and  C_14
REMARK                            x       y       z     vdW  Elec       q    Type
REMARK                         _______ _______ _______ _____ _____    ______ ____
ROOT
ATOM      1  N   UNL     1     -10.248  16.860  65.345  0.00  0.00    -0.128 NA
ATOM      2  C   UNL     1     -10.535  16.145  66.552  0.00  0.00    +0.089 A 
ATOM      3  C   UNL     1     -10.521  16.829  67.760  0.00  0.00    +0.055 A 
ATOM      4  C   UNL     1     -10.789  16.092  68.892  0.00  0.00    +0.005 A 
ATOM      5  C   UNL     1     -11.660  15.021  68.731  0.00  0.00    -0.000 A 
ATOM      6  C   UNL     1     -11.912  14.460  67.485  0.00  0.00    -0.002 A 
ATOM      7  C   UNL     1     -11.229  14.951  66.399  0.00  0.00    +0.006 A 
ENDROOT
BRANCH   3   8
ATOM      8  C   UNL     1     -10.203  18.238  67.757  0.00  0.00    +0.197 C 
ATOM      9  O   UNL     1     -11.105  19.088  67.527  0.00  0.00    -0.287 OA
BRANCH   8  10
ATOM     10  C   UNL     1      -8.851  18.759  67.916  0.00  0.00    +0.039 A 
ATOM     11  C   UNL     1      -7.774  17.954  68.270  0.00  0.00    +0.004 A 
ATOM     12  C   UNL     1      -6.508  18.233  67.770  0.00  0.00    +0.007 A 
ATOM     13  C   UNL     1      -6.318  19.236  66.825  0.00  0.00    +0.035 A 
ATOM     14 BR   UNL     1      -5.066  19.027  65.394  0.00  0.00    -0.049 Br
ATOM     15  C   UNL     1      -7.278  20.242  66.819  0.00  0.00    +0.007 A 
ATOM     16  C   UNL     1      -8.500  20.017  67.441  0.00  0.00    +0.004 A 
ENDBRANCH   8  10
ENDBRANCH   3   8
BRANCH   7  17
ATOM     17  C   UNL     1     -10.836  14.110  65.231  0.00  0.00    +0.142 C 
BRANCH  17  18
ATOM     18  C   UNL     1     -12.080  13.871  64.440  0.00  0.00    +0.369 C 
ATOM     19  O   UNL     1     -12.856  12.738  64.654  0.00  0.00    -0.245 OA
ATOM     20  O   UNL     1     -12.636  14.907  63.966  0.00  0.00    -0.245 OA
ENDBRANCH  17  18
ENDBRANCH   7  17
TORSDOF 4
ENDMDL
MODEL 3
REMARK VINA RESULT:      -6.2      3.422      6.589
REMARK  Name = 
REMARK  4 active torsions:
REMARK  status: ('A' for Active; 'I' for Inactive)
REMARK    1  A    between atoms: C_3  and  C_4
REMARK    2  A    between atoms: C_4  and  C_5
REMARK    3  A    between atoms: C_11  and  C_12
REMARK    4  A    between atoms: C_12  and  C_14
REMARK                            x       y       z     vdW  Elec       q    Type
REMARK                         _______ _______ _______ _____ _____    ______ ____
ROOT
ATOM      1  N   UNL     1     -10.750  15.782  64.790  0.00  0.00    -0.128 NA
ATOM      2  C   UNL     1     -10.805  15.547  66.202  0.00  0.00    +0.089 A 
ATOM      3  C   UNL     1     -11.645  14.554  66.688  0.00  0.00    +0.055 A 
ATOM      4  C   UNL     1     -11.672  14.379  68.053  0.00  0.00    +0.005 A 
ATOM      5  C   UNL     1     -10.488  14.653  68.728  0.00  0.00    -0.000 A 
ATOM      6  C   UNL     1      -9.490  15.442  68.168  0.00  0.00    -0.002 A 
ATOM      7  C   UNL     1      -9.718  16.005  66.936  0.00  0.00    +0.006 A 
ENDROOT
BRANCH   3   8
ATOM      8  C   UNL     1     -12.444  13.799  65.750  0.00  0.00    +0.197 C 
ATOM      9  O   UNL     1     -13.599  14.198  65.443  0.00  0.00    -0.287 OA
BRANCH   8  10
ATOM     10  C   UNL     1     -12.030  12.521  65.186  0.00  0.00    +0.039 A 
ATOM     11  C   UNL     1     -12.350  12.134  63.889  0.00  0.00    +0.004 A 
ATOM     12  C   UNL     1     -11.462  11.353  63.160  0.00  0.00    +0.007 A 
ATOM     13  C   UNL     1     -10.201  11.048  63.663  0.00  0.00    +0.035 A 
ATOM     14 BR   UNL     1      -8.667  10.987  62.523  0.00  0.00    -0.049 Br
ATOM     15  C   UNL     1     -10.086  11.079  65.048  0.00  0.00    +0.007 A 
ATOM     16  C   UNL     1     -11.051  11.744  65.794  0.00  0.00    +0.004 A 
ENDBRANCH   8  10
ENDBRANCH   3   8
BRANCH   7  17
ATOM     17  C   UNL     1      -9.160  17.326  66.524  0.00  0.00    +0.142 C 
BRANCH  17  18
ATOM     18  C   UNL     1     -10.241  18.333  66.742  0.00  0.00    +0.369 C 
ATOM     19  O   UNL     1     -10.766  18.553  68.010  0.00  0.00    -0.245 OA
ATOM     20  O   UNL     1     -10.297  19.270  65.890  0.00  0.00    -0.245 OA
ENDBRANCH  17  18
ENDBRANCH   7  17
TORSDOF 4
ENDMDL
MODEL 4
REMARK VINA RESULT:      -6.2      3.003      6.353
REMARK  Name = 
REMARK  4 active torsions:
REMARK  status: ('A' for Active; 'I' for Inactive)
REMARK    1  A    between atoms: C_3  and  C_4
REMARK    2  A    between atoms: C_4  and  C_5
REMARK    3  A    between atoms: C_11  and  C_12
REMARK    4  A    between atoms: C_12  and  C_14
REMARK                            x       y       z     vdW  Elec       q    Type
REMARK                         _______ _______ _______ _____ _____    ______ ____
ROOT
ATOM      1  N   UNL     1      -7.764  17.270  65.843  0.00  0.00    -0.128 NA
ATOM      2  C   UNL     1      -8.568  18.222  66.550  0.00  0.00    +0.089 A 
ATOM      3  C   UNL     1      -9.950  18.099  66.508  0.00  0.00    +0.055 A 
ATOM      4  C   UNL     1     -10.677  19.048  67.191  0.00  0.00    +0.005 A 
ATOM      5  C   UNL     1     -10.078  19.573  68.330  0.00  0.00    -0.000 A 
ATOM      6  C   UNL     1      -8.708  19.489  68.544  0.00  0.00    -0.002 A 
ATOM      7  C   UNL     1      -7.929  18.920  67.567  0.00  0.00    +0.006 A 
ENDROOT
BRANCH   3   8
ATOM      8  C   UNL     1     -10.530  17.019  65.742  0.00  0.00    +0.197 C 
ATOM      9  O   UNL     1     -11.035  17.249  64.611  0.00  0.00    -0.287 OA
BRANCH   8  10
ATOM     10  C   UNL     1     -10.655  15.656  66.241  0.00  0.00    +0.039 A 
ATOM     11  C   UNL     1     -10.353  14.542  65.466  0.00  0.00    +0.004 A 
ATOM     12  C   UNL     1      -9.816  13.407  66.063  0.00  0.00    +0.007 A 
ATOM     13  C   UNL     1      -9.466  13.407  67.408  0.00  0.00    +0.035 A 
ATOM     14 BR   UNL     1      -7.903  12.494  68.026  0.00  0.00    -0.049 Br
ATOM     15  C   UNL     1     -10.141  14.327  68.203  0.00  0.00    +0.007 A 
ATOM     16  C   UNL     1     -10.799  15.391  67.598  0.00  0.00    +0.004 A 
ENDBRANCH   8  10
ENDBRANCH   3   8
BRANCH   7  17
ATOM     17  C   UNL     1      -6.526  19.343  67.289  0.00  0.00    +0.142 C 
BRANCH  17  18
ATOM     18  C   UNL     1      -6.369  20.710  67.868  0.00  0.00    +0.369 C 
ATOM     19  O   UNL     1      -5.620  20.916  69.021  0.00  0.00    -0.245 OA
ATOM     20  O   UNL     1      -6.502  21.670  67.051  0.00  0.00    -0.245 OA
ENDBRANCH  17  18
ENDBRANCH   7  17
TORSDOF 4
ENDMDL
MODEL 5
REMARK VINA RESULT:      -6.1      3.108      6.418
REMARK  Name = 
REMARK  4 active torsions:
REMARK  status: ('A' for Active; 'I' for Inactive)
REMARK    1  A    between atoms: C_3  and  C_4
REMARK    2  A    between atoms: C_4  and  C_5
REMARK    3  A    between atoms: C_11  and  C_12
REMARK    4  A    between atoms: C_12  and  C_14
REMARK                            x       y       z     vdW  Elec       q    Type
REMARK                         _______ _______ _______ _____ _____    ______ ____
ROOT
ATOM      1  N   UNL     1      -7.563  17.465  65.766  0.00  0.00    -0.128 NA
ATOM      2  C   UNL     1      -8.499  18.463  66.193  0.00  0.00    +0.089 A 
ATOM      3  C   UNL     1      -9.816  18.094  66.428  0.00  0.00    +0.055 A 
ATOM      4  C   UNL     1     -10.678  19.093  66.821  0.00  0.00    +0.005 A 
ATOM      5  C   UNL     1     -10.119  20.122  67.571  0.00  0.00    -0.000 A 
ATOM      6  C   UNL     1      -8.752  20.370  67.572  0.00  0.00    -0.002 A 
ATOM      7  C   UNL     1      -7.950  19.606  66.760  0.00  0.00    +0.006 A 
ENDROOT
BRANCH   3   8
ATOM      8  C   UNL     1     -10.200  16.717  66.221  0.00  0.00    +0.197 C 
ATOM      9  O   UNL     1     -10.523  16.318  65.069  0.00  0.00    -0.287 OA
BRANCH   8  10
ATOM     10  C   UNL     1     -10.332  15.747  67.300  0.00  0.00    +0.039 A 
ATOM     11  C   UNL     1      -9.713  15.910  68.535  0.00  0.00    +0.004 A 
ATOM     12  C   UNL     1     -10.335  15.445  69.688  0.00  0.00    +0.007 A 
ATOM     13  C   UNL     1     -11.623  14.924  69.643  0.00  0.00    +0.035 A 
ATOM     14 BR   UNL     1     -12.878  15.259  71.047  0.00  0.00    -0.049 Br
ATOM     15  C   UNL     1     -12.018  14.407  68.414  0.00  0.00    +0.007 A 
ATOM     16  C   UNL     1     -11.311  14.760  67.272  0.00  0.00    +0.004 A 
ENDBRANCH   8  10
ENDBRANCH   3   8
BRANCH   7  17
ATOM     17  C   UNL     1      -6.705  20.123  66.119  0.00  0.00    +0.142 C 
BRANCH  17  18
ATOM     18  C   UNL     1      -5.886  20.732  67.208  0.00  0.00    +0.369 C 
ATOM     19  O   UNL     1      -4.995  19.963  67.947  0.00  0.00    -0.245 OA
ATOM     20  O   UNL     1      -5.669  21.976  67.100  0.00  0.00    -0.245 OA
ENDBRANCH  17  18
ENDBRANCH   7  17
TORSDOF 4
ENDMDL
MODEL 6
REMARK VINA RESULT:      -6.0      3.515      6.947
REMARK  Name = 
REMARK  4 active torsions:
REMARK  status: ('A' for Active; 'I' for Inactive)
REMARK    1  A    between atoms: C_3  and  C_4
REMARK    2  A    between atoms: C_4  and  C_5
REMARK    3  A    between atoms: C_11  and  C_12
REMARK    4  A    between atoms: C_12  and  C_14
REMARK                            x       y       z     vdW  Elec       q    Type
REMARK                         _______ _______ _______ _____ _____    ______ ____
ROOT
ATOM      1  N   UNL     1      -8.280  16.943  68.782  0.00  0.00    -0.128 NA
ATOM      2  C   UNL     1      -8.791  17.872  67.818  0.00  0.00    +0.089 A 
ATOM      3  C   UNL     1     -10.064  17.673  67.300  0.00  0.00    +0.055 A 
ATOM      4  C   UNL     1     -10.502  18.586  66.367  0.00  0.00    +0.005 A 
ATOM      5  C   UNL     1     -10.024  19.884  66.511  0.00  0.00    -0.000 A 
ATOM      6  C   UNL     1      -8.882  20.168  67.249  0.00  0.00    -0.002 A 
ATOM      7  C   UNL     1      -8.183  19.121  67.797  0.00  0.00    +0.006 A 
ENDROOT
BRANCH   3   8
ATOM      8  C   UNL     1     -10.823  16.527  67.743  0.00  0.00    +0.197 C 
ATOM      9  O   UNL     1     -11.629  16.639  68.707  0.00  0.00    -0.287 OA
BRANCH   8  10
ATOM     10  C   UNL     1     -10.652  15.188  67.196  0.00  0.00    +0.039 A 
ATOM     11  C   UNL     1     -11.534  14.147  67.469  0.00  0.00    +0.004 A 
ATOM     12  C   UNL     1     -11.788  13.184  66.500  0.00  0.00    +0.007 A 
ATOM     13  C   UNL     1     -11.266  13.306  65.217  0.00  0.00    +0.035 A 
ATOM     14 BR   UNL     1     -12.282  12.792  63.680  0.00  0.00    -0.049 Br
ATOM     15  C   UNL     1     -10.112  14.074  65.111  0.00  0.00    +0.007 A 
ATOM     16  C   UNL     1      -9.778  14.942  66.144  0.00  0.00    +0.004 A 
ENDBRANCH   8  10
ENDBRANCH   3   8
BRANCH   7  17
ATOM     17  C   UNL     1      -6.702  19.131  67.979  0.00  0.00    +0.142 C 
BRANCH  17  18
ATOM     18  C   UNL     1      -6.394  20.255  68.913  0.00  0.00    +0.369 C 
ATOM     19  O   UNL     1      -6.442  20.072  70.290  0.00  0.00    -0.245 OA
ATOM     20  O   UNL     1      -5.646  21.166  68.447  0.00  0.00    -0.245 OA
ENDBRANCH  17  18
ENDBRANCH   7  17
TORSDOF 4
ENDMDL
MODEL 7
REMARK VINA RESULT:      -6.0      3.236      4.740
REMARK  Name = 
REMARK  4 active torsions:
REMARK  status: ('A' for Active; 'I' for Inactive)
REMARK    1  A    between atoms: C_3  and  C_4
REMARK    2  A    between atoms: C_4  and  C_5
REMARK    3  A    between atoms: C_11  and  C_12
REMARK    4  A    between atoms: C_12  and  C_14
REMARK                            x       y       z     vdW  Elec       q    Type
REMARK                         _______ _______ _______ _____ _____    ______ ____
ROOT
ATOM      1  N   UNL     1     -11.878  16.256  68.963  0.00  0.00    -0.128 NA
ATOM      2  C   UNL     1     -12.047  14.834  69.002  0.00  0.00    +0.089 A 
ATOM      3  C   UNL     1     -11.523  14.066  67.972  0.00  0.00    +0.055 A 
ATOM      4  C   UNL     1     -11.726  12.706  68.049  0.00  0.00    +0.005 A 
ATOM      5  C   UNL     1     -11.787  12.170  69.330  0.00  0.00    -0.000 A 
ATOM      6  C   UNL     1     -12.055  12.956  70.443  0.00  0.00    -0.002 A 
ATOM      7  C   UNL     1     -12.322  14.290  70.250  0.00  0.00    +0.006 A 
ENDROOT
BRANCH   3   8
ATOM      8  C   UNL     1     -10.836  14.730  66.889  0.00  0.00    +0.197 C 
ATOM      9  O   UNL     1     -11.437  14.956  65.804  0.00  0.00    -0.287 OA
BRANCH   8  10
ATOM     10  C   UNL     1      -9.424  15.089  66.931  0.00  0.00    +0.039 A 
ATOM     11  C   UNL     1      -8.860  16.021  66.068  0.00  0.00    +0.004 A 
ATOM     12  C   UNL     1      -7.820  16.832  66.507  0.00  0.00    +0.007 A 
ATOM     13  C   UNL     1      -7.409  16.809  67.835  0.00  0.00    +0.035 A 
ATOM     14 BR   UNL     1      -6.882  18.410  68.738  0.00  0.00    -0.049 Br
ATOM     15  C   UNL     1      -7.679  15.632  68.525  0.00  0.00    +0.007 A 
ATOM     16  C   UNL     1      -8.623  14.748  68.015  0.00  0.00    +0.004 A 
ENDBRANCH   8  10
ENDBRANCH   3   8
BRANCH   7  17
ATOM     17  C   UNL     1     -13.252  15.072  71.116  0.00  0.00    +0.142 C 
BRANCH  17  18
ATOM     18  C   UNL     1     -13.375  14.320  72.400  0.00  0.00    +0.369 C 
ATOM     19  O   UNL     1     -12.714  14.749  73.545  0.00  0.00    -0.245 OA
ATOM     20  O   UNL     1     -14.428  13.626  72.530  0.00  0.00    -0.245 OA
ENDBRANCH  17  18
ENDBRANCH   7  17
TORSDOF 4
ENDMDL
MODEL 8
REMARK VINA RESULT:      -6.0      3.309      6.671
REMARK  Name = 
REMARK  4 active torsions:
REMARK  status: ('A' for Active; 'I' for Inactive)
REMARK    1  A    between atoms: C_3  and  C_4
REMARK    2  A    between atoms: C_4  and  C_5
REMARK    3  A    between atoms: C_11  and  C_12
REMARK    4  A    between atoms: C_12  and  C_14
REMARK                            x       y       z     vdW  Elec       q    Type
REMARK                         _______ _______ _______ _____ _____    ______ ____
ROOT
ATOM      1  N   UNL     1      -7.914  16.894  68.364  0.00  0.00    -0.128 NA
ATOM      2  C   UNL     1      -8.712  17.874  67.688  0.00  0.00    +0.089 A 
ATOM      3  C   UNL     1      -9.677  17.451  66.785  0.00  0.00    +0.055 A 
ATOM      4  C   UNL     1     -10.405  18.433  66.151  0.00  0.00    +0.005 A 
ATOM      5  C   UNL     1     -10.624  19.596  66.880  0.00  0.00    -0.000 A 
ATOM      6  C   UNL     1      -9.835  19.939  67.971  0.00  0.00    -0.002 A 
ATOM      7  C   UNL     1      -8.777  19.124  68.291  0.00  0.00    +0.006 A 
ENDROOT
BRANCH   3   8
ATOM      8  C   UNL     1      -9.834  16.034  66.548  0.00  0.00    +0.197 C 
ATOM      9  O   UNL     1      -9.034  15.430  65.785  0.00  0.00    -0.287 OA
BRANCH   8  10
ATOM     10  C   UNL     1     -10.942  15.248  67.076  0.00  0.00    +0.039 A 
ATOM     11  C   UNL     1     -11.482  14.163  66.395  0.00  0.00    +0.004 A 
ATOM     12  C   UNL     1     -11.977  13.076  67.107  0.00  0.00    +0.007 A 
ATOM     13  C   UNL     1     -11.833  13.002  68.488  0.00  0.00    +0.035 A 
ATOM     14 BR   UNL     1     -11.463  11.340  69.359  0.00  0.00    -0.049 Br
ATOM     15  C   UNL     1     -11.689  14.221  69.141  0.00  0.00    +0.007 A 
ATOM     16  C   UNL     1     -11.329  15.345  68.407  0.00  0.00    +0.004 A 
ENDBRANCH   8  10
ENDBRANCH   3   8
BRANCH   7  17
ATOM     17  C   UNL     1      -7.507  19.629  68.891  0.00  0.00    +0.142 C 
BRANCH  17  18
ATOM     18  C   UNL     1      -6.673  20.135  67.760  0.00  0.00    +0.369 C 
ATOM     19  O   UNL     1      -6.776  21.454  67.332  0.00  0.00    -0.245 OA
ATOM     20  O   UNL     1      -5.587  19.514  67.559  0.00  0.00    -0.245 OA
ENDBRANCH  17  18
ENDBRANCH   7  17
TORSDOF 4
ENDMDL
MODEL 9
REMARK VINA RESULT:      -5.9      3.337      6.379
REMARK  Name = 
REMARK  4 active torsions:
REMARK  status: ('A' for Active; 'I' for Inactive)
REMARK    1  A    between atoms: C_3  and  C_4
REMARK    2  A    between atoms: C_4  and  C_5
REMARK    3  A    between atoms: C_11  and  C_12
REMARK    4  A    between atoms: C_12  and  C_14
REMARK                            x       y       z     vdW  Elec       q    Type
REMARK                         _______ _______ _______ _____ _____    ______ ____
ROOT
ATOM      1  N   UNL     1     -10.553  18.605  67.781  0.00  0.00    -0.128 NA
ATOM      2  C   UNL     1      -9.532  17.793  68.372  0.00  0.00    +0.089 A 
ATOM      3  C   UNL     1      -9.792  16.450  68.610  0.00  0.00    +0.055 A 
ATOM      4  C   UNL     1      -8.783  15.718  69.193  0.00  0.00    +0.005 A 
ATOM      5  C   UNL     1      -7.486  16.111  68.884  0.00  0.00    -0.000 A 
ATOM      6  C   UNL     1      -7.201  17.378  68.389  0.00  0.00    -0.002 A 
ATOM      7  C   UNL     1      -8.233  18.274  68.261  0.00  0.00    +0.006 A 
ENDROOT
BRANCH   3   8
ATOM      8  C   UNL     1     -11.091  15.922  68.264  0.00  0.00    +0.197 C 
ATOM      9  O   UNL     1     -12.076  16.119  69.026  0.00  0.00    -0.287 OA
BRANCH   8  10
ATOM     10  C   UNL     1     -11.332  15.073  67.104  0.00  0.00    +0.039 A 
ATOM     11  C   UNL     1     -10.579  15.163  65.939  0.00  0.00    +0.004 A 
ATOM     12  C   UNL     1     -10.324  14.021  65.189  0.00  0.00    +0.007 A 
ATOM     13  C   UNL     1     -10.710  12.766  65.647  0.00  0.00    +0.035 A 
ATOM     14 BR   UNL     1      -9.606  11.228  65.374  0.00  0.00    -0.049 Br
ATOM     15  C   UNL     1     -11.774  12.756  66.542  0.00  0.00    +0.007 A 
ATOM     16  C   UNL     1     -12.123  13.933  67.193  0.00  0.00    +0.004 A 
ENDBRANCH   8  10
ENDBRANCH   3   8
BRANCH   7  17
ATOM     17  C   UNL     1      -8.065  19.747  68.431  0.00  0.00    +0.142 C 
BRANCH  17  18
ATOM     18  C   UNL     1      -7.408  20.248  67.187  0.00  0.00    +0.369 C 
ATOM     19  O   UNL     1      -7.833  19.821  65.934  0.00  0.00    -0.245 OA
ATOM     20  O   UNL     1      -6.840  21.377  67.283  0.00  0.00    -0.245 OA
ENDBRANCH  17  18
ENDBRANCH   7  17
TORSDOF 4
ENDMDL
