MODEL 1
REMARK VINA RESULT:      -7.2      0.000      0.000
REMARK  Name = 
REMARK  2 active torsions:
REMARK  status: ('A' for Active; 'I' for Inactive)
REMARK    1  A    between atoms: N_19  and  C_20
REMARK    2  A    between atoms: C_20  and  C_21
REMARK                            x       y       z     vdW  Elec       q    Type
REMARK                         _______ _______ _______ _____ _____    ______ ____
ROOT
ATOM      1  O   UNL     1      -7.276  16.355  66.079  0.00  0.00    -0.292 OA
ATOM      2  C   UNL     1      -7.850  16.044  66.767  0.00  0.00    +0.191 C 
ATOM      3  C   UNL     1      -9.161  15.341  66.119  0.00  0.00    +0.228 C 
ATOM      4  O   UNL     1      -9.591  16.671  65.454  0.00  0.00    -0.468 OA
ATOM      5  C   UNL     1      -9.566  17.615  66.441  0.00  0.00    +0.173 A 
ATOM      6  C   UNL     1     -10.238  17.023  67.486  0.00  0.00    +0.017 A 
ATOM      7  C   UNL     1     -10.090  17.455  68.808  0.00  0.00    -0.021 A 
ATOM      8  C   UNL     1      -9.977  18.838  68.920  0.00  0.00    -0.001 A 
ATOM      9  C   UNL     1      -9.750  19.604  67.777  0.00  0.00    +0.045 A 
ATOM     10  C   UNL     1     -10.983  16.662  69.647  0.00  0.00    +0.045 C 
ATOM     11  C   UNL     1     -10.303  15.192  69.923  0.00  0.00    +0.090 C 
ATOM     12  N   UNL     1     -11.601  14.458  69.449  0.00  0.00    -0.271 NA
ATOM     13  C   UNL     1     -11.618  13.919  68.238  0.00  0.00    +0.073 C 
ATOM     14  C   UNL     1     -11.394  14.867  67.078  0.00  0.00    +0.028 C 
ATOM     15  C   UNL     1      -9.480  15.009  68.526  0.00  0.00    +0.148 C 
ATOM     16  O   UNL     1      -9.160  13.644  68.449  0.00  0.00    -0.224 OA
ATOM     17  C   UNL     1      -8.162  15.601  69.014  0.00  0.00    +0.040 C 
ATOM     18  C   UNL     1      -9.522  19.009  66.535  0.00  0.00    +0.229 A 
ATOM     19  O   UNL     1      -8.536  19.552  65.698  0.00  0.00    -0.283 OA
ATOM     20  C   UNL     1     -10.128  15.585  67.415  0.00  0.00    +0.094 C 
ATOM     21  C   UNL     1      -7.201  15.276  67.877  0.00  0.00    +0.071 C 
ENDROOT
BRANCH  12  22
ATOM     22  C   UNL     1     -12.655  14.753  70.284  0.00  0.00    +0.072 C 
BRANCH  22  23
ATOM     23  C   UNL     1     -12.799  14.046  71.571  0.00  0.00    +0.016 C 
ATOM     24  C   UNL     1     -14.238  14.088  72.140  0.00  0.00    +0.001 C 
ATOM     25  C   UNL     1     -13.009  14.657  72.882  0.00  0.00    +0.001 C 
ENDBRANCH  22  23
ENDBRANCH  12  22
TORSDOF 2
ENDMDL
MODEL 2
REMARK VINA RESULT:      -7.2      2.136      5.654
REMARK  Name = 
REMARK  2 active torsions:
REMARK  status: ('A' for Active; 'I' for Inactive)
REMARK    1  A    between atoms: N_19  and  C_20
REMARK    2  A    between atoms: C_20  and  C_21
REMARK                            x       y       z     vdW  Elec       q    Type
REMARK                         _______ _______ _______ _____ _____    ______ ____
ROOT
ATOM      1  O   UNL     1     -11.772  11.295  66.529  0.00  0.00    -0.292 OA
ATOM      2  C   UNL     1     -11.548  12.216  66.494  0.00  0.00    +0.191 C 
ATOM      3  C   UNL     1      -9.938  12.398  66.583  0.00  0.00    +0.228 C 
ATOM      4  O   UNL     1      -9.907  11.767  67.996  0.00  0.00    -0.468 OA
ATOM      5  C   UNL     1     -10.853  12.428  68.728  0.00  0.00    +0.173 A 
ATOM      6  C   UNL     1     -10.604  13.757  68.471  0.00  0.00    +0.017 A 
ATOM      7  C   UNL     1     -11.569  14.750  68.675  0.00  0.00    -0.021 A 
ATOM      8  C   UNL     1     -12.347  14.528  69.807  0.00  0.00    -0.001 A 
ATOM      9  C   UNL     1     -12.301  13.288  70.442  0.00  0.00    +0.045 A 
ATOM     10  C   UNL     1     -10.963  16.041  68.369  0.00  0.00    +0.045 C 
ATOM     11  C   UNL     1     -10.919  16.247  66.739  0.00  0.00    +0.090 C 
ATOM     12  N   UNL     1      -9.391  16.579  66.782  0.00  0.00    -0.271 NA
ATOM     13  C   UNL     1      -8.528  15.643  66.413  0.00  0.00    +0.073 C 
ATOM     14  C   UNL     1      -8.555  14.354  67.208  0.00  0.00    +0.028 C 
ATOM     15  C   UNL     1     -10.745  14.692  66.276  0.00  0.00    +0.148 C 
ATOM     16  O   UNL     1     -10.311  14.739  64.942  0.00  0.00    -0.224 OA
ATOM     17  C   UNL     1     -12.229  14.389  66.100  0.00  0.00    +0.040 C 
ATOM     18  C   UNL     1     -11.576  12.222  69.906  0.00  0.00    +0.229 A 
ATOM     19  O   UNL     1     -12.137  10.936  69.949  0.00  0.00    -0.283 OA
ATOM     20  C   UNL     1      -9.984  13.921  67.178  0.00  0.00    +0.094 C 
ATOM     21  C   UNL     1     -12.220  13.022  65.426  0.00  0.00    +0.071 C 
ENDROOT
BRANCH  12  22
ATOM     22  C   UNL     1      -9.167  17.733  67.498  0.00  0.00    +0.072 C 
BRANCH  22  23
ATOM     23  C   UNL     1      -9.179  19.041  66.815  0.00  0.00    +0.016 C 
ATOM     24  C   UNL     1      -9.977  20.127  67.576  0.00  0.00    +0.001 C 
ATOM     25  C   UNL     1     -10.318  19.663  66.144  0.00  0.00    +0.001 C 
ENDBRANCH  22  23
ENDBRANCH  12  22
TORSDOF 2
ENDMDL
MODEL 3
REMARK VINA RESULT:      -7.1      2.471      4.824
REMARK  Name = 
REMARK  2 active torsions:
REMARK  status: ('A' for Active; 'I' for Inactive)
REMARK    1  A    between atoms: N_19  and  C_20
REMARK    2  A    between atoms: C_20  and  C_21
REMARK                            x       y       z     vdW  Elec       q    Type
REMARK                         _______ _______ _______ _____ _____    ______ ____
ROOT
ATOM      1  O   UNL     1     -10.160  13.132  64.844  0.00  0.00    -0.292 OA
ATOM      2  C   UNL     1     -10.488  13.509  65.650  0.00  0.00    +0.191 C 
ATOM      3  C   UNL     1      -9.256  14.095  66.528  0.00  0.00    +0.228 C 
ATOM      4  O   UNL     1      -8.635  12.684  66.667  0.00  0.00    -0.468 OA
ATOM      5  C   UNL     1      -9.641  11.868  67.101  0.00  0.00    +0.173 A 
ATOM      6  C   UNL     1     -10.211  12.565  68.141  0.00  0.00    +0.017 A 
ATOM      7  C   UNL     1     -11.508  12.301  68.595  0.00  0.00    -0.021 A 
ATOM      8  C   UNL     1     -11.823  10.945  68.583  0.00  0.00    -0.001 A 
ATOM      9  C   UNL     1     -10.993  10.051  67.906  0.00  0.00    +0.045 A 
ATOM     10  C   UNL     1     -11.774  13.167  69.738  0.00  0.00    +0.045 C 
ATOM     11  C   UNL     1     -12.139  14.676  69.202  0.00  0.00    +0.090 C 
ATOM     12  N   UNL     1     -11.064  15.314  70.142  0.00  0.00    -0.271 NA
ATOM     13  C   UNL     1      -9.911  15.701  69.616  0.00  0.00    +0.073 C 
ATOM     14  C   UNL     1      -9.087  14.626  68.940  0.00  0.00    +0.028 C 
ATOM     15  C   UNL     1     -11.227  14.709  67.849  0.00  0.00    +0.148 C 
ATOM     16  O   UNL     1     -11.133  16.062  67.486  0.00  0.00    -0.224 OA
ATOM     17  C   UNL     1     -12.306  14.214  66.892  0.00  0.00    +0.040 C 
ATOM     18  C   UNL     1      -9.911  10.497  67.145  0.00  0.00    +0.229 A 
ATOM     19  O   UNL     1      -9.658   9.882  65.910  0.00  0.00    -0.283 OA
ATOM     20  C   UNL     1     -10.023  13.986  67.969  0.00  0.00    +0.094 C 
ATOM     21  C   UNL     1     -11.668  14.422  65.523  0.00  0.00    +0.071 C 
ENDROOT
BRANCH  12  22
ATOM     22  C   UNL     1     -11.388  15.096  71.462  0.00  0.00    +0.072 C 
BRANCH  22  23
ATOM     23  C   UNL     1     -12.377  15.962  72.134  0.00  0.00    +0.016 C 
ATOM     24  C   UNL     1     -12.646  15.563  73.605  0.00  0.00    +0.001 C 
ATOM     25  C   UNL     1     -13.739  15.595  72.515  0.00  0.00    +0.001 C 
ENDBRANCH  22  23
ENDBRANCH  12  22
TORSDOF 2
ENDMDL
MODEL 4
REMARK VINA RESULT:      -6.8      2.660      4.288
REMARK  Name = 
REMARK  2 active torsions:
REMARK  status: ('A' for Active; 'I' for Inactive)
REMARK    1  A    between atoms: N_19  and  C_20
REMARK    2  A    between atoms: C_20  and  C_21
REMARK                            x       y       z     vdW  Elec       q    Type
REMARK                         _______ _______ _______ _____ _____    ______ ____
ROOT
ATOM      1  O   UNL     1     -10.576  17.469  67.067  0.00  0.00    -0.292 OA
ATOM      2  C   UNL     1     -10.512  16.593  67.423  0.00  0.00    +0.191 C 
ATOM      3  C   UNL     1      -9.032  15.989  67.145  0.00  0.00    +0.228 C 
ATOM      4  O   UNL     1      -9.248  16.062  65.615  0.00  0.00    -0.468 OA
ATOM      5  C   UNL     1     -10.446  15.452  65.370  0.00  0.00    +0.173 A 
ATOM      6  C   UNL     1     -10.374  14.278  66.083  0.00  0.00    +0.017 A 
ATOM      7  C   UNL     1     -11.514  13.556  66.450  0.00  0.00    -0.021 A 
ATOM      8  C   UNL     1     -12.501  13.562  65.470  0.00  0.00    -0.001 A 
ATOM      9  C   UNL     1     -12.404  14.452  64.400  0.00  0.00    +0.045 A 
ATOM     10  C   UNL     1     -11.082  12.341  67.133  0.00  0.00    +0.045 C 
ATOM     11  C   UNL     1     -10.667  12.707  68.680  0.00  0.00    +0.090 C 
ATOM     12  N   UNL     1      -9.279  12.004  68.516  0.00  0.00    -0.271 NA
ATOM     13  C   UNL     1      -8.204  12.758  68.338  0.00  0.00    +0.073 C 
ATOM     14  C   UNL     1      -8.207  13.655  67.118  0.00  0.00    +0.028 C 
ATOM     15  C   UNL     1     -10.118  14.228  68.458  0.00  0.00    +0.148 C 
ATOM     16  O   UNL     1      -9.378  14.536  69.611  0.00  0.00    -0.224 OA
ATOM     17  C   UNL     1     -11.436  14.939  68.748  0.00  0.00    +0.040 C 
ATOM     18  C   UNL     1     -11.396  15.415  64.345  0.00  0.00    +0.229 A 
ATOM     19  O   UNL     1     -11.720  16.704  63.895  0.00  0.00    -0.283 OA
ATOM     20  C   UNL     1      -9.487  14.419  67.213  0.00  0.00    +0.094 C 
ATOM     21  C   UNL     1     -11.023  16.405  68.818  0.00  0.00    +0.071 C 
ENDROOT
BRANCH  12  22
ATOM     22  C   UNL     1      -9.444  10.657  68.286  0.00  0.00    +0.072 C 
BRANCH  22  23
ATOM     23  C   UNL     1      -9.340   9.697  69.401  0.00  0.00    +0.016 C 
ATOM     24  C   UNL     1     -10.313   8.500  69.279  0.00  0.00    +0.001 C 
ATOM     25  C   UNL     1     -10.318   9.488  70.466  0.00  0.00    +0.001 C 
ENDBRANCH  22  23
ENDBRANCH  12  22
TORSDOF 2
ENDMDL
MODEL 5
REMARK VINA RESULT:      -6.8      2.506      5.076
REMARK  Name = 
REMARK  2 active torsions:
REMARK  status: ('A' for Active; 'I' for Inactive)
REMARK    1  A    between atoms: N_19  and  C_20
REMARK    2  A    between atoms: C_20  and  C_21
REMARK                            x       y       z     vdW  Elec       q    Type
REMARK                         _______ _______ _______ _____ _____    ______ ____
ROOT
ATOM      1  O   UNL     1     -10.452  11.741  67.421  0.00  0.00    -0.292 OA
ATOM      2  C   UNL     1     -10.164  12.637  67.537  0.00  0.00    +0.191 C 
ATOM      3  C   UNL     1     -11.052  13.360  68.687  0.00  0.00    +0.228 C 
ATOM      4  O   UNL     1     -12.343  13.187  67.851  0.00  0.00    -0.468 OA
ATOM      5  C   UNL     1     -12.057  13.671  66.605  0.00  0.00    +0.173 A 
ATOM      6  C   UNL     1     -11.453  14.882  66.849  0.00  0.00    +0.017 A 
ATOM      7  C   UNL     1     -10.638  15.514  65.903  0.00  0.00    -0.021 A 
ATOM      8  C   UNL     1     -11.104  15.366  64.600  0.00  0.00    -0.001 A 
ATOM      9  C   UNL     1     -12.105  14.435  64.328  0.00  0.00    +0.045 A 
ATOM     10  C   UNL     1     -10.215  16.797  66.453  0.00  0.00    +0.045 C 
ATOM     11  C   UNL     1      -8.991  16.552  67.521  0.00  0.00    +0.090 C 
ATOM     12  N   UNL     1      -9.737  17.370  68.626  0.00  0.00    -0.271 NA
ATOM     13  C   UNL     1     -10.352  16.711  69.597  0.00  0.00    +0.073 C 
ATOM     14  C   UNL     1     -11.447  15.755  69.171  0.00  0.00    +0.028 C 
ATOM     15  C   UNL     1      -9.414  15.079  68.081  0.00  0.00    +0.148 C 
ATOM     16  O   UNL     1      -8.686  14.900  69.268  0.00  0.00    -0.224 OA
ATOM     17  C   UNL     1      -8.585  14.265  67.094  0.00  0.00    +0.040 C 
ATOM     18  C   UNL     1     -12.578  13.567  65.313  0.00  0.00    +0.229 A 
ATOM     19  O   UNL     1     -12.837  12.232  64.967  0.00  0.00    -0.283 OA
ATOM     20  C   UNL     1     -10.808  14.882  68.141  0.00  0.00    +0.094 C 
ATOM     21  C   UNL     1      -8.686  12.850  67.649  0.00  0.00    +0.071 C 
ENDROOT
BRANCH  12  22
ATOM     22  C   UNL     1      -9.886  18.682  68.237  0.00  0.00    +0.072 C 
BRANCH  22  23
ATOM     23  C   UNL     1      -8.853  19.678  68.584  0.00  0.00    +0.016 C 
ATOM     24  C   UNL     1      -8.154  20.298  67.350  0.00  0.00    +0.001 C 
ATOM     25  C   UNL     1      -7.407  19.516  68.452  0.00  0.00    +0.001 C 
ENDBRANCH  22  23
ENDBRANCH  12  22
TORSDOF 2
ENDMDL
MODEL 6
REMARK VINA RESULT:      -6.7      2.945      5.738
REMARK  Name = 
REMARK  2 active torsions:
REMARK  status: ('A' for Active; 'I' for Inactive)
REMARK    1  A    between atoms: N_19  and  C_20
REMARK    2  A    between atoms: C_20  and  C_21
REMARK                            x       y       z     vdW  Elec       q    Type
REMARK                         _______ _______ _______ _____ _____    ______ ____
ROOT
ATOM      1  O   UNL     1      -9.915  16.136  69.876  0.00  0.00    -0.292 OA
ATOM      2  C   UNL     1      -9.885  15.521  69.156  0.00  0.00    +0.191 C 
ATOM      3  C   UNL     1     -10.894  15.997  67.978  0.00  0.00    +0.228 C 
ATOM      4  O   UNL     1     -12.116  15.852  68.916  0.00  0.00    -0.468 OA
ATOM      5  C   UNL     1     -12.026  14.606  69.469  0.00  0.00    +0.173 A 
ATOM      6  C   UNL     1     -11.776  13.782  68.396  0.00  0.00    +0.017 A 
ATOM      7  C   UNL     1     -11.209  12.512  68.546  0.00  0.00    -0.021 A 
ATOM      8  C   UNL     1     -11.664  11.844  69.679  0.00  0.00    -0.001 A 
ATOM      9  C   UNL     1     -12.375  12.544  70.652  0.00  0.00    +0.045 A 
ATOM     10  C   UNL     1     -11.140  11.887  67.230  0.00  0.00    +0.045 C 
ATOM     11  C   UNL     1      -9.856  12.497  66.406  0.00  0.00    +0.090 C 
ATOM     12  N   UNL     1     -10.757  12.843  65.176  0.00  0.00    -0.271 NA
ATOM     13  C   UNL     1     -11.125  14.103  64.993  0.00  0.00    +0.073 C 
ATOM     14  C   UNL     1     -11.924  14.738  66.112  0.00  0.00    +0.028 C 
ATOM     15  C   UNL     1      -9.827  14.004  67.030  0.00  0.00    +0.148 C 
ATOM     16  O   UNL     1      -9.033  14.762  66.155  0.00  0.00    -0.224 OA
ATOM     17  C   UNL     1      -8.842  13.715  68.157  0.00  0.00    +0.040 C 
ATOM     18  C   UNL     1     -12.547  13.927  70.574  0.00  0.00    +0.229 A 
ATOM     19  O   UNL     1     -12.435  14.688  71.747  0.00  0.00    -0.283 OA
ATOM     20  C   UNL     1     -11.107  14.506  67.340  0.00  0.00    +0.094 C 
ATOM     21  C   UNL     1      -8.522  15.105  68.694  0.00  0.00    +0.071 C 
ENDROOT
BRANCH  12  22
ATOM     22  C   UNL     1     -11.282  11.696  64.624  0.00  0.00    +0.072 C 
BRANCH  22  23
ATOM     23  C   UNL     1     -10.692  11.128  63.396  0.00  0.00    +0.016 C 
ATOM     24  C   UNL     1      -9.610  10.057  63.670  0.00  0.00    +0.001 C 
ATOM     25  C   UNL     1      -9.342  11.363  62.890  0.00  0.00    +0.001 C 
ENDBRANCH  22  23
ENDBRANCH  12  22
TORSDOF 2
ENDMDL
MODEL 7
REMARK VINA RESULT:      -6.7      2.309      4.090
REMARK  Name = 
REMARK  2 active torsions:
REMARK  status: ('A' for Active; 'I' for Inactive)
REMARK    1  A    between atoms: N_19  and  C_20
REMARK    2  A    between atoms: C_20  and  C_21
REMARK                            x       y       z     vdW  Elec       q    Type
REMARK                         _______ _______ _______ _____ _____    ______ ____
ROOT
ATOM      1  O   UNL     1      -8.810  16.467  65.838  0.00  0.00    -0.292 OA
ATOM      2  C   UNL     1      -9.328  15.717  66.098  0.00  0.00    +0.191 C 
ATOM      3  C   UNL     1      -9.997  15.983  67.552  0.00  0.00    +0.228 C 
ATOM      4  O   UNL     1      -8.603  16.081  68.217  0.00  0.00    -0.468 OA
ATOM      5  C   UNL     1      -7.913  14.971  67.818  0.00  0.00    +0.173 A 
ATOM      6  C   UNL     1      -8.795  13.937  68.028  0.00  0.00    +0.017 A 
ATOM      7  C   UNL     1      -8.665  12.702  67.382  0.00  0.00    -0.021 A 
ATOM      8  C   UNL     1      -7.340  12.298  67.245  0.00  0.00    -0.001 A 
ATOM      9  C   UNL     1      -6.313  13.209  67.485  0.00  0.00    +0.045 A 
ATOM     10  C   UNL     1      -9.718  11.820  67.873  0.00  0.00    +0.045 C 
ATOM     11  C   UNL     1     -11.133  12.197  67.128  0.00  0.00    +0.090 C 
ATOM     12  N   UNL     1     -11.870  12.321  68.503  0.00  0.00    -0.271 NA
ATOM     13  C   UNL     1     -12.116  13.531  68.984  0.00  0.00    +0.073 C 
ATOM     14  C   UNL     1     -10.910  14.412  69.234  0.00  0.00    +0.028 C 
ATOM     15  C   UNL     1     -10.903  13.798  66.910  0.00  0.00    +0.148 C 
ATOM     16  O   UNL     1     -12.173  14.330  66.634  0.00  0.00    -0.224 OA
ATOM     17  C   UNL     1     -10.304  13.705  65.511  0.00  0.00    +0.040 C 
ATOM     18  C   UNL     1      -6.581  14.553  67.753  0.00  0.00    +0.229 A 
ATOM     19  O   UNL     1      -5.760  15.532  67.172  0.00  0.00    -0.283 OA
ATOM     20  C   UNL     1     -10.159  14.402  67.943  0.00  0.00    +0.094 C 
ATOM     21  C   UNL     1     -10.258  15.162  65.064  0.00  0.00    +0.071 C 
ENDROOT
BRANCH  12  22
ATOM     22  C   UNL     1     -11.886  11.107  69.152  0.00  0.00    +0.072 C 
BRANCH  22  23
ATOM     23  C   UNL     1     -12.008  11.057  70.622  0.00  0.00    +0.016 C 
ATOM     24  C   UNL     1     -11.605   9.691  71.228  0.00  0.00    +0.001 C 
ATOM     25  C   UNL     1     -13.008  10.317  71.388  0.00  0.00    +0.001 C 
ENDBRANCH  22  23
ENDBRANCH  12  22
TORSDOF 2
ENDMDL
MODEL 8
REMARK VINA RESULT:      -6.5      2.642      4.078
REMARK  Name = 
REMARK  2 active torsions:
REMARK  status: ('A' for Active; 'I' for Inactive)
REMARK    1  A    between atoms: N_19  and  C_20
REMARK    2  A    between atoms: C_20  and  C_21
REMARK                            x       y       z     vdW  Elec       q    Type
REMARK                         _______ _______ _______ _____ _____    ______ ____
ROOT
ATOM      1  O   UNL     1      -5.946  20.327  66.166  0.00  0.00    -0.292 OA
ATOM      2  C   UNL     1      -6.506  19.594  66.384  0.00  0.00    +0.191 C 
ATOM      3  C   UNL     1      -7.951  20.132  66.890  0.00  0.00    +0.228 C 
ATOM      4  O   UNL     1      -7.302  20.846  68.101  0.00  0.00    -0.468 OA
ATOM      5  C   UNL     1      -6.509  19.915  68.711  0.00  0.00    +0.173 A 
ATOM      6  C   UNL     1      -7.316  18.805  68.812  0.00  0.00    +0.017 A 
ATOM      7  C   UNL     1      -6.797  17.518  68.988  0.00  0.00    -0.021 A 
ATOM      8  C   UNL     1      -5.687  17.490  69.828  0.00  0.00    -0.001 A 
ATOM      9  C   UNL     1      -5.054  18.683  70.174  0.00  0.00    +0.045 A 
ATOM     10  C   UNL     1      -7.916  16.591  69.120  0.00  0.00    +0.045 C 
ATOM     11  C   UNL     1      -8.532  16.271  67.631  0.00  0.00    +0.090 C 
ATOM     12  N   UNL     1      -9.977  16.635  68.107  0.00  0.00    -0.271 NA
ATOM     13  C   UNL     1     -10.481  17.811  67.762  0.00  0.00    +0.073 C 
ATOM     14  C   UNL     1      -9.717  19.032  68.232  0.00  0.00    +0.028 C 
ATOM     15  C   UNL     1      -8.226  17.697  66.900  0.00  0.00    +0.148 C 
ATOM     16  O   UNL     1      -9.031  17.715  65.750  0.00  0.00    -0.224 OA
ATOM     17  C   UNL     1      -6.871  17.312  66.315  0.00  0.00    +0.040 C 
ATOM     18  C   UNL     1      -5.439  19.901  69.610  0.00  0.00    +0.229 A 
ATOM     19  O   UNL     1      -4.443  20.817  69.241  0.00  0.00    -0.283 OA
ATOM     20  C   UNL     1      -8.315  18.802  67.770  0.00  0.00    +0.094 C 
ATOM     21  C   UNL     1      -6.559  18.479  65.385  0.00  0.00    +0.071 C 
ENDROOT
BRANCH  12  22
ATOM     22  C   UNL     1     -10.397  15.763  69.086  0.00  0.00    +0.072 C 
BRANCH  22  23
ATOM     23  C   UNL     1     -11.726  15.931  69.706  0.00  0.00    +0.016 C 
ATOM     24  C   UNL     1     -11.688  15.938  71.253  0.00  0.00    +0.001 C 
ATOM     25  C   UNL     1     -12.488  14.911  70.423  0.00  0.00    +0.001 C 
ENDBRANCH  22  23
ENDBRANCH  12  22
TORSDOF 2
ENDMDL
MODEL 9
REMARK VINA RESULT:      -6.4      2.508      5.503
REMARK  Name = 
REMARK  2 active torsions:
REMARK  status: ('A' for Active; 'I' for Inactive)
REMARK    1  A    between atoms: N_19  and  C_20
REMARK    2  A    between atoms: C_20  and  C_21
REMARK                            x       y       z     vdW  Elec       q    Type
REMARK                         _______ _______ _______ _____ _____    ______ ____
ROOT
ATOM      1  O   UNL     1     -12.161  12.597  67.655  0.00  0.00    -0.292 OA
ATOM      2  C   UNL     1     -11.692  13.399  67.843  0.00  0.00    +0.191 C 
ATOM      3  C   UNL     1     -11.763  14.395  66.564  0.00  0.00    +0.228 C 
ATOM      4  O   UNL     1     -11.000  13.378  65.682  0.00  0.00    -0.468 OA
ATOM      5  C   UNL     1      -9.886  13.023  66.389  0.00  0.00    +0.173 A 
ATOM      6  C   UNL     1      -9.362  14.224  66.810  0.00  0.00    +0.017 A 
ATOM      7  C   UNL     1      -8.477  14.314  67.890  0.00  0.00    -0.021 A 
ATOM      8  C   UNL     1      -7.578  13.254  67.947  0.00  0.00    -0.001 A 
ATOM      9  C   UNL     1      -7.792  12.126  67.156  0.00  0.00    +0.045 A 
ATOM     10  C   UNL     1      -8.070  15.709  68.027  0.00  0.00    +0.045 C 
ATOM     11  C   UNL     1      -9.264  16.551  68.778  0.00  0.00    +0.090 C 
ATOM     12  N   UNL     1      -9.273  17.628  67.643  0.00  0.00    -0.271 NA
ATOM     13  C   UNL     1     -10.242  17.589  66.740  0.00  0.00    +0.073 C 
ATOM     14  C   UNL     1     -10.345  16.320  65.920  0.00  0.00    +0.028 C 
ATOM     15  C   UNL     1     -10.560  15.720  68.238  0.00  0.00    +0.148 C 
ATOM     16  O   UNL     1     -11.670  16.545  68.481  0.00  0.00    -0.224 OA
ATOM     17  C   UNL     1     -10.648  14.744  69.407  0.00  0.00    +0.040 C 
ATOM     18  C   UNL     1      -8.949  11.985  66.388  0.00  0.00    +0.229 A 
ATOM     19  O   UNL     1      -9.571  10.729  66.330  0.00  0.00    -0.283 OA
ATOM     20  C   UNL     1     -10.400  15.220  66.930  0.00  0.00    +0.094 C 
ATOM     21  C   UNL     1     -11.979  14.042  69.164  0.00  0.00    +0.071 C 
ENDROOT
BRANCH  12  22
ATOM     22  C   UNL     1      -8.067  18.289  67.596  0.00  0.00    +0.072 C 
BRANCH  22  23
ATOM     23  C   UNL     1      -7.801  19.411  68.517  0.00  0.00    +0.016 C 
ATOM     24  C   UNL     1      -6.711  20.384  68.007  0.00  0.00    +0.001 C 
ATOM     25  C   UNL     1      -6.605  19.602  69.334  0.00  0.00    +0.001 C 
ENDBRANCH  22  23
ENDBRANCH  12  22
TORSDOF 2
ENDMDL
