MODEL 1
REMARK VINA RESULT:      -6.3      0.000      0.000
REMARK  Name = 
REMARK  13 active torsions:
REMARK  status: ('A' for Active; 'I' for Inactive)
REMARK    1  A    between atoms: C_2  and  C_3
REMARK    2  A    between atoms: C_3  and  C_4
REMARK    3  A    between atoms: C_4  and  C_5
REMARK    4  A    between atoms: C_5  and  C_6
REMARK    5  A    between atoms: C_6  and  C_8
REMARK    6  A    between atoms: C_9  and  C_10
REMARK    7  A    between atoms: C_16  and  C_17
REMARK    8  A    between atoms: C_17  and  C_18
REMARK    9  A    between atoms: C_18  and  C_19
REMARK   10  A    between atoms: C_19  and  C_20
REMARK   11  A    between atoms: C_20  and  C_21
REMARK   12  A    between atoms: C_21  and  C_22
REMARK   13  A    between atoms: C_22  and  C_23
REMARK                            x       y       z     vdW  Elec       q    Type
REMARK                         _______ _______ _______ _____ _____    ______ ____
ROOT
ATOM      1  C   UNL     1     -11.038  14.904  66.565  0.00  0.00    +0.059 C 
ATOM      2  C   UNL     1     -11.026  13.217  66.513  0.00  0.00    +0.064 C 
ATOM      3  C   UNL     1     -12.092  13.396  65.336  0.00  0.00    +0.153 C 
ATOM      4  O   UNL     1     -13.179  13.928  65.466  0.00  0.00    -0.296 OA
ATOM      5  C   UNL     1     -11.180  13.881  64.330  0.00  0.00    +0.098 C 
ATOM      6  C   UNL     1     -10.146  14.880  65.114  0.00  0.00    +0.164 C 
ATOM      7  O   UNL     1     -10.894  16.093  64.602  0.00  0.00    -0.222 OA
ENDROOT
BRANCH   1   9
ATOM      8  C   UNL     1      -9.625  15.870  68.365  0.00  0.00    +0.002 C 
ATOM      9  C   UNL     1      -9.726  14.950  67.447  0.00  0.00    -0.026 C 
BRANCH   8  10
ATOM     10  C   UNL     1     -10.802  16.990  68.387  0.00  0.00    +0.174 C 
ATOM     11  O   UNL     1     -11.263  16.540  69.769  0.00  0.00    -0.218 OA
BRANCH  10  12
ATOM     12  C   UNL     1      -9.786  18.111  69.060  0.00  0.00    +0.037 C 
BRANCH  12  13
ATOM     13  C   UNL     1      -9.371  18.869  67.815  0.00  0.00    +0.003 C 
BRANCH  13  14
ATOM     14  C   UNL     1     -10.481  19.738  67.325  0.00  0.00    +0.000 C 
BRANCH  14  16
ATOM     15  C   UNL     1     -10.539  19.704  65.929  0.00  0.00    +0.000 C 
ATOM     16  C   UNL     1     -10.408  19.706  65.791  0.00  0.00    +0.000 C 
ENDBRANCH  14  16
ENDBRANCH  13  14
ENDBRANCH  12  13
ENDBRANCH  10  12
ENDBRANCH   8  10
ENDBRANCH   1   9
BRANCH   2  17
ATOM     17  C   UNL     1     -12.114  13.073  67.719  0.00  0.00    +0.008 C 
BRANCH  17  18
ATOM     18  C   UNL     1     -11.376  12.186  68.735  0.00  0.00    +0.000 C 
BRANCH  18  19
ATOM     19  C   UNL     1     -12.021  11.830  69.894  0.00  0.00    +0.000 C 
BRANCH  19  20
ATOM     20  C   UNL     1     -12.506  12.276  71.089  0.00  0.00    +0.001 C 
BRANCH  20  21
ATOM     21  C   UNL     1     -12.665  13.791  71.226  0.00  0.00    +0.012 C 
BRANCH  21  22
ATOM     22  C   UNL     1     -13.319  14.064  72.578  0.00  0.00    +0.114 C 
BRANCH  22  23
ATOM     23  C   UNL     1     -13.612  15.535  72.541  0.00  0.00    +0.365 C 
ATOM     24  O   UNL     1     -14.841  15.841  71.944  0.00  0.00    -0.246 OA
ATOM     25  O   UNL     1     -13.424  16.115  73.656  0.00  0.00    -0.246 OA
ENDBRANCH  22  23
ENDBRANCH  21  22
ENDBRANCH  20  21
ENDBRANCH  19  20
ENDBRANCH  18  19
ENDBRANCH  17  18
ENDBRANCH   2  17
TORSDOF 13
ENDMDL
MODEL 2
REMARK VINA RESULT:      -6.2      1.936      5.456
REMARK  Name = 
REMARK  13 active torsions:
REMARK  status: ('A' for Active; 'I' for Inactive)
REMARK    1  A    between atoms: C_2  and  C_3
REMARK    2  A    between atoms: C_3  and  C_4
REMARK    3  A    between atoms: C_4  and  C_5
REMARK    4  A    between atoms: C_5  and  C_6
REMARK    5  A    between atoms: C_6  and  C_8
REMARK    6  A    between atoms: C_9  and  C_10
REMARK    7  A    between atoms: C_16  and  C_17
REMARK    8  A    between atoms: C_17  and  C_18
REMARK    9  A    between atoms: C_18  and  C_19
REMARK   10  A    between atoms: C_19  and  C_20
REMARK   11  A    between atoms: C_20  and  C_21
REMARK   12  A    between atoms: C_21  and  C_22
REMARK   13  A    between atoms: C_22  and  C_23
REMARK                            x       y       z     vdW  Elec       q    Type
REMARK                         _______ _______ _______ _____ _____    ______ ____
ROOT
ATOM      1  C   UNL     1     -11.242  13.277  66.352  0.00  0.00    +0.059 C 
ATOM      2  C   UNL     1     -11.313  14.944  66.601  0.00  0.00    +0.064 C 
ATOM      3  C   UNL     1     -10.910  15.040  65.057  0.00  0.00    +0.153 C 
ATOM      4  O   UNL     1      -9.876  14.604  64.586  0.00  0.00    -0.296 OA
ATOM      5  C   UNL     1     -12.174  14.616  64.508  0.00  0.00    +0.098 C 
ATOM      6  C   UNL     1     -12.705  13.419  65.491  0.00  0.00    +0.164 C 
ATOM      7  O   UNL     1     -12.254  12.371  64.497  0.00  0.00    -0.222 OA
ENDROOT
BRANCH   1   9
ATOM      8  C   UNL     1     -11.607  11.958  68.425  0.00  0.00    +0.002 C 
ATOM      9  C   UNL     1     -11.994  12.978  67.710  0.00  0.00    -0.026 C 
BRANCH   8  10
ATOM     10  C   UNL     1     -10.490  10.993  67.746  0.00  0.00    +0.174 C 
ATOM     11  O   UNL     1      -9.410  11.504  68.694  0.00  0.00    -0.218 OA
BRANCH  10  12
ATOM     12  C   UNL     1     -10.858   9.758  68.786  0.00  0.00    +0.037 C 
BRANCH  12  13
ATOM     13  C   UNL     1     -11.261  10.557  70.009  0.00  0.00    +0.003 C 
BRANCH  13  14
ATOM     14  C   UNL     1     -11.811   9.666  71.072  0.00  0.00    +0.000 C 
BRANCH  14  16
ATOM     15  C   UNL     1     -12.858  10.418  71.612  0.00  0.00    +0.000 C 
ATOM     16  C   UNL     1     -13.042  10.385  71.643  0.00  0.00    +0.000 C 
ENDBRANCH  14  16
ENDBRANCH  13  14
ENDBRANCH  12  13
ENDBRANCH  10  12
ENDBRANCH   8  10
ENDBRANCH   1   9
BRANCH   2  17
ATOM     17  C   UNL     1      -9.793  15.022  67.187  0.00  0.00    +0.008 C 
BRANCH  17  18
ATOM     18  C   UNL     1      -9.811  16.325  68.002  0.00  0.00    +0.000 C 
BRANCH  18  19
ATOM     19  C   UNL     1     -10.527  16.362  69.174  0.00  0.00    +0.000 C 
BRANCH  19  20
ATOM     20  C   UNL     1     -10.894  15.662  70.285  0.00  0.00    +0.001 C 
BRANCH  20  21
ATOM     21  C   UNL     1     -12.396  15.440  70.473  0.00  0.00    +0.012 C 
BRANCH  21  22
ATOM     22  C   UNL     1     -12.574  14.150  71.270  0.00  0.00    +0.114 C 
BRANCH  22  23
ATOM     23  C   UNL     1     -13.611  14.504  72.294  0.00  0.00    +0.365 C 
ATOM     24  O   UNL     1     -14.250  15.724  72.037  0.00  0.00    -0.246 OA
ATOM     25  O   UNL     1     -14.409  13.551  72.556  0.00  0.00    -0.246 OA
ENDBRANCH  22  23
ENDBRANCH  21  22
ENDBRANCH  20  21
ENDBRANCH  19  20
ENDBRANCH  18  19
ENDBRANCH  17  18
ENDBRANCH   2  17
TORSDOF 13
ENDMDL
MODEL 3
REMARK VINA RESULT:      -6.2      3.788      7.241
REMARK  Name = 
REMARK  13 active torsions:
REMARK  status: ('A' for Active; 'I' for Inactive)
REMARK    1  A    between atoms: C_2  and  C_3
REMARK    2  A    between atoms: C_3  and  C_4
REMARK    3  A    between atoms: C_4  and  C_5
REMARK    4  A    between atoms: C_5  and  C_6
REMARK    5  A    between atoms: C_6  and  C_8
REMARK    6  A    between atoms: C_9  and  C_10
REMARK    7  A    between atoms: C_16  and  C_17
REMARK    8  A    between atoms: C_17  and  C_18
REMARK    9  A    between atoms: C_18  and  C_19
REMARK   10  A    between atoms: C_19  and  C_20
REMARK   11  A    between atoms: C_20  and  C_21
REMARK   12  A    between atoms: C_21  and  C_22
REMARK   13  A    between atoms: C_22  and  C_23
REMARK                            x       y       z     vdW  Elec       q    Type
REMARK                         _______ _______ _______ _____ _____    ______ ____
ROOT
ATOM      1  C   UNL     1      -9.688  17.515  66.815  0.00  0.00    +0.059 C 
ATOM      2  C   UNL     1      -8.618  18.320  67.841  0.00  0.00    +0.064 C 
ATOM      3  C   UNL     1      -8.113  19.037  66.505  0.00  0.00    +0.153 C 
ATOM      4  O   UNL     1      -7.621  18.457  65.554  0.00  0.00    -0.296 OA
ATOM      5  C   UNL     1      -9.262  19.884  66.302  0.00  0.00    +0.098 C 
ATOM      6  C   UNL     1     -10.561  18.973  66.703  0.00  0.00    +0.164 C 
ATOM      7  O   UNL     1     -10.860  18.714  65.242  0.00  0.00    -0.222 OA
ENDROOT
BRANCH   1   9
ATOM      8  C   UNL     1     -11.010  15.778  68.002  0.00  0.00    +0.002 C 
ATOM      9  C   UNL     1     -10.566  17.005  68.026  0.00  0.00    -0.026 C 
BRANCH   8  10
ATOM     10  C   UNL     1     -10.749  14.953  66.627  0.00  0.00    +0.174 C 
ATOM     11  O   UNL     1      -9.926  13.902  67.364  0.00  0.00    -0.218 OA
BRANCH  10  12
ATOM     12  C   UNL     1     -12.130  14.064  66.845  0.00  0.00    +0.037 C 
BRANCH  12  13
ATOM     13  C   UNL     1     -11.944  13.020  65.763  0.00  0.00    +0.003 C 
BRANCH  13  14
ATOM     14  C   UNL     1     -12.093  13.624  64.407  0.00  0.00    +0.000 C 
BRANCH  14  16
ATOM     15  C   UNL     1     -12.028  12.574  63.488  0.00  0.00    +0.000 C 
ATOM     16  C   UNL     1     -12.155  12.452  63.417  0.00  0.00    +0.000 C 
ENDBRANCH  14  16
ENDBRANCH  13  14
ENDBRANCH  12  13
ENDBRANCH  10  12
ENDBRANCH   8  10
ENDBRANCH   1   9
BRANCH   2  17
ATOM     17  C   UNL     1      -7.526  17.109  67.817  0.00  0.00    +0.008 C 
BRANCH  17  18
ATOM     18  C   UNL     1      -6.923  17.170  69.229  0.00  0.00    +0.000 C 
BRANCH  18  19
ATOM     19  C   UNL     1      -5.885  18.038  69.469  0.00  0.00    +0.000 C 
BRANCH  19  20
ATOM     20  C   UNL     1      -5.268  19.184  69.064  0.00  0.00    +0.001 C 
BRANCH  20  21
ATOM     21  C   UNL     1      -5.689  20.465  69.786  0.00  0.00    +0.012 C 
BRANCH  21  22
ATOM     22  C   UNL     1      -5.651  20.183  71.285  0.00  0.00    +0.114 C 
BRANCH  22  23
ATOM     23  C   UNL     1      -4.370  20.822  71.736  0.00  0.00    +0.365 C 
ATOM     24  O   UNL     1      -4.555  22.081  72.320  0.00  0.00    -0.246 OA
ATOM     25  O   UNL     1      -3.629  20.044  72.413  0.00  0.00    -0.246 OA
ENDBRANCH  22  23
ENDBRANCH  21  22
ENDBRANCH  20  21
ENDBRANCH  19  20
ENDBRANCH  18  19
ENDBRANCH  17  18
ENDBRANCH   2  17
TORSDOF 13
ENDMDL
MODEL 4
REMARK VINA RESULT:      -6.2      2.023      6.216
REMARK  Name = 
REMARK  13 active torsions:
REMARK  status: ('A' for Active; 'I' for Inactive)
REMARK    1  A    between atoms: C_2  and  C_3
REMARK    2  A    between atoms: C_3  and  C_4
REMARK    3  A    between atoms: C_4  and  C_5
REMARK    4  A    between atoms: C_5  and  C_6
REMARK    5  A    between atoms: C_6  and  C_8
REMARK    6  A    between atoms: C_9  and  C_10
REMARK    7  A    between atoms: C_16  and  C_17
REMARK    8  A    between atoms: C_17  and  C_18
REMARK    9  A    between atoms: C_18  and  C_19
REMARK   10  A    between atoms: C_19  and  C_20
REMARK   11  A    between atoms: C_20  and  C_21
REMARK   12  A    between atoms: C_21  and  C_22
REMARK   13  A    between atoms: C_22  and  C_23
REMARK                            x       y       z     vdW  Elec       q    Type
REMARK                         _______ _______ _______ _____ _____    ______ ____
ROOT
ATOM      1  C   UNL     1     -10.001  17.468  68.200  0.00  0.00    +0.059 C 
ATOM      2  C   UNL     1      -9.094  17.078  66.832  0.00  0.00    +0.064 C 
ATOM      3  C   UNL     1      -9.546  18.518  66.307  0.00  0.00    +0.153 C 
ATOM      4  O   UNL     1     -10.701  18.851  66.117  0.00  0.00    -0.296 OA
ATOM      5  C   UNL     1      -8.716  19.306  67.185  0.00  0.00    +0.098 C 
ATOM      6  C   UNL     1      -8.750  18.540  68.632  0.00  0.00    +0.164 C 
ATOM      7  O   UNL     1      -9.755  19.541  69.163  0.00  0.00    -0.222 OA
ENDROOT
BRANCH   1   9
ATOM      8  C   UNL     1     -10.164  15.458  69.651  0.00  0.00    +0.002 C 
ATOM      9  C   UNL     1      -9.366  16.286  69.037  0.00  0.00    -0.026 C 
BRANCH   8  10
ATOM     10  C   UNL     1     -11.743  15.840  69.630  0.00  0.00    +0.174 C 
ATOM     11  O   UNL     1     -12.137  14.409  69.978  0.00  0.00    -0.218 OA
BRANCH  10  12
ATOM     12  C   UNL     1     -11.712  16.252  71.234  0.00  0.00    +0.037 C 
BRANCH  12  13
ATOM     13  C   UNL     1     -12.291  14.990  71.839  0.00  0.00    +0.003 C 
BRANCH  13  14
ATOM     14  C   UNL     1     -13.252  15.315  72.934  0.00  0.00    +0.000 C 
BRANCH  14  16
ATOM     15  C   UNL     1     -12.447  15.290  74.077  0.00  0.00    +0.000 C 
ATOM     16  C   UNL     1     -12.422  15.408  74.222  0.00  0.00    +0.000 C 
ENDBRANCH  14  16
ENDBRANCH  13  14
ENDBRANCH  12  13
ENDBRANCH  10  12
ENDBRANCH   8  10
ENDBRANCH   1   9
BRANCH   2  17
ATOM     17  C   UNL     1     -10.313  16.246  66.139  0.00  0.00    +0.008 C 
BRANCH  17  18
ATOM     18  C   UNL     1      -9.613  14.966  65.651  0.00  0.00    +0.000 C 
BRANCH  18  19
ATOM     19  C   UNL     1      -9.804  13.800  66.351  0.00  0.00    +0.000 C 
BRANCH  19  20
ATOM     20  C   UNL     1     -10.728  12.973  66.920  0.00  0.00    +0.001 C 
BRANCH  20  21
ATOM     21  C   UNL     1     -11.536  12.103  65.955  0.00  0.00    +0.012 C 
BRANCH  21  22
ATOM     22  C   UNL     1     -12.610  12.988  65.328  0.00  0.00    +0.114 C 
BRANCH  22  23
ATOM     23  C   UNL     1     -12.319  12.915  63.859  0.00  0.00    +0.365 C 
ATOM     24  O   UNL     1     -12.926  11.823  63.226  0.00  0.00    -0.246 OA
ATOM     25  O   UNL     1     -12.490  14.019  63.254  0.00  0.00    -0.246 OA
ENDBRANCH  22  23
ENDBRANCH  21  22
ENDBRANCH  20  21
ENDBRANCH  19  20
ENDBRANCH  18  19
ENDBRANCH  17  18
ENDBRANCH   2  17
TORSDOF 13
ENDMDL
MODEL 5
REMARK VINA RESULT:      -6.1      2.980      4.775
REMARK  Name = 
REMARK  13 active torsions:
REMARK  status: ('A' for Active; 'I' for Inactive)
REMARK    1  A    between atoms: C_2  and  C_3
REMARK    2  A    between atoms: C_3  and  C_4
REMARK    3  A    between atoms: C_4  and  C_5
REMARK    4  A    between atoms: C_5  and  C_6
REMARK    5  A    between atoms: C_6  and  C_8
REMARK    6  A    between atoms: C_9  and  C_10
REMARK    7  A    between atoms: C_16  and  C_17
REMARK    8  A    between atoms: C_17  and  C_18
REMARK    9  A    between atoms: C_18  and  C_19
REMARK   10  A    between atoms: C_19  and  C_20
REMARK   11  A    between atoms: C_20  and  C_21
REMARK   12  A    between atoms: C_21  and  C_22
REMARK   13  A    between atoms: C_22  and  C_23
REMARK                            x       y       z     vdW  Elec       q    Type
REMARK                         _______ _______ _______ _____ _____    ______ ____
ROOT
ATOM      1  C   UNL     1     -11.170  13.865  66.995  0.00  0.00    +0.059 C 
ATOM      2  C   UNL     1     -10.546  12.320  66.726  0.00  0.00    +0.064 C 
ATOM      3  C   UNL     1     -11.385  12.382  65.367  0.00  0.00    +0.153 C 
ATOM      4  O   UNL     1     -12.596  12.497  65.310  0.00  0.00    -0.296 OA
ATOM      5  C   UNL     1     -10.549  13.329  64.674  0.00  0.00    +0.098 C 
ATOM      6  C   UNL     1     -10.093  14.426  65.801  0.00  0.00    +0.164 C 
ATOM      7  O   UNL     1     -11.125  15.410  65.294  0.00  0.00    -0.222 OA
ENDROOT
BRANCH   1   9
ATOM      8  C   UNL     1     -10.593  14.447  69.340  0.00  0.00    +0.002 C 
ATOM      9  C   UNL     1     -10.135  14.150  68.156  0.00  0.00    -0.026 C 
BRANCH   8  10
ATOM     10  C   UNL     1     -12.200  14.663  69.450  0.00  0.00    +0.174 C 
ATOM     11  O   UNL     1     -12.327  13.517  70.448  0.00  0.00    -0.218 OA
BRANCH  10  12
ATOM     12  C   UNL     1     -12.015  15.753  70.683  0.00  0.00    +0.037 C 
BRANCH  12  13
ATOM     13  C   UNL     1     -12.554  14.934  71.839  0.00  0.00    +0.003 C 
BRANCH  13  14
ATOM     14  C   UNL     1     -13.125  15.817  72.898  0.00  0.00    +0.000 C 
BRANCH  14  16
ATOM     15  C   UNL     1     -12.410  15.444  74.039  0.00  0.00    +0.000 C 
ATOM     16  C   UNL     1     -12.459  15.396  74.216  0.00  0.00    +0.000 C 
ENDBRANCH  14  16
ENDBRANCH  13  14
ENDBRANCH  12  13
ENDBRANCH  10  12
ENDBRANCH   8  10
ENDBRANCH   1   9
BRANCH   2  17
ATOM     17  C   UNL     1     -11.700  11.590  67.616  0.00  0.00    +0.008 C 
BRANCH  17  18
ATOM     18  C   UNL     1     -11.018  10.282  68.047  0.00  0.00    +0.000 C 
BRANCH  18  19
ATOM     19  C   UNL     1     -10.594  10.153  69.347  0.00  0.00    +0.000 C 
BRANCH  19  20
ATOM     20  C   UNL     1     -10.988   9.999  70.643  0.00  0.00    +0.001 C 
BRANCH  20  21
ATOM     21  C   UNL     1     -12.498   9.969  70.888  0.00  0.00    +0.012 C 
BRANCH  21  22
ATOM     22  C   UNL     1     -12.757   9.018  72.053  0.00  0.00    +0.114 C 
BRANCH  22  23
ATOM     23  C   UNL     1     -14.113   8.451  71.756  0.00  0.00    +0.365 C 
ATOM     24  O   UNL     1     -14.073   7.125  71.306  0.00  0.00    -0.246 OA
ATOM     25  O   UNL     1     -14.960   8.654  72.681  0.00  0.00    -0.246 OA
ENDBRANCH  22  23
ENDBRANCH  21  22
ENDBRANCH  20  21
ENDBRANCH  19  20
ENDBRANCH  18  19
ENDBRANCH  17  18
ENDBRANCH   2  17
TORSDOF 13
ENDMDL
MODEL 6
REMARK VINA RESULT:      -6.0      2.128      5.843
REMARK  Name = 
REMARK  13 active torsions:
REMARK  status: ('A' for Active; 'I' for Inactive)
REMARK    1  A    between atoms: C_2  and  C_3
REMARK    2  A    between atoms: C_3  and  C_4
REMARK    3  A    between atoms: C_4  and  C_5
REMARK    4  A    between atoms: C_5  and  C_6
REMARK    5  A    between atoms: C_6  and  C_8
REMARK    6  A    between atoms: C_9  and  C_10
REMARK    7  A    between atoms: C_16  and  C_17
REMARK    8  A    between atoms: C_17  and  C_18
REMARK    9  A    between atoms: C_18  and  C_19
REMARK   10  A    between atoms: C_19  and  C_20
REMARK   11  A    between atoms: C_20  and  C_21
REMARK   12  A    between atoms: C_21  and  C_22
REMARK   13  A    between atoms: C_22  and  C_23
REMARK                            x       y       z     vdW  Elec       q    Type
REMARK                         _______ _______ _______ _____ _____    ______ ____
ROOT
ATOM      1  C   UNL     1     -10.812  13.335  67.557  0.00  0.00    +0.059 C 
ATOM      2  C   UNL     1      -9.993  13.728  66.135  0.00  0.00    +0.064 C 
ATOM      3  C   UNL     1      -9.444  12.229  66.215  0.00  0.00    +0.153 C 
ATOM      4  O   UNL     1      -8.768  11.790  67.128  0.00  0.00    -0.296 OA
ATOM      5  C   UNL     1     -10.670  11.561  65.855  0.00  0.00    +0.098 C 
ATOM      6  C   UNL     1     -11.864  12.395  66.602  0.00  0.00    +0.164 C 
ATOM      7  O   UNL     1     -11.953  11.343  67.687  0.00  0.00    -0.222 OA
ENDROOT
BRANCH   1   9
ATOM      8  C   UNL     1     -11.793  15.432  68.457  0.00  0.00    +0.002 C 
ATOM      9  C   UNL     1     -11.743  14.608  67.447  0.00  0.00    -0.026 C 
BRANCH   8  10
ATOM     10  C   UNL     1     -11.012  14.961  69.802  0.00  0.00    +0.174 C 
ATOM     11  O   UNL     1     -11.006  16.385  70.348  0.00  0.00    -0.218 OA
BRANCH  10  12
ATOM     12  C   UNL     1     -12.442  14.641  70.574  0.00  0.00    +0.037 C 
BRANCH  12  13
ATOM     13  C   UNL     1     -12.349  15.631  71.718  0.00  0.00    +0.003 C 
BRANCH  13  14
ATOM     14  C   UNL     1     -13.244  15.233  72.843  0.00  0.00    +0.000 C 
BRANCH  14  16
ATOM     15  C   UNL     1     -12.523  15.537  74.001  0.00  0.00    +0.000 C 
ATOM     16  C   UNL     1     -12.433  15.433  74.131  0.00  0.00    +0.000 C 
ENDBRANCH  14  16
ENDBRANCH  13  14
ENDBRANCH  12  13
ENDBRANCH  10  12
ENDBRANCH   8  10
ENDBRANCH   1   9
BRANCH   2  17
ATOM     17  C   UNL     1      -8.745  14.417  66.926  0.00  0.00    +0.008 C 
BRANCH  17  18
ATOM     18  C   UNL     1      -8.605  15.775  66.219  0.00  0.00    +0.000 C 
BRANCH  18  19
ATOM     19  C   UNL     1      -8.564  16.917  66.980  0.00  0.00    +0.000 C 
BRANCH  19  20
ATOM     20  C   UNL     1      -8.370  17.421  68.232  0.00  0.00    +0.001 C 
BRANCH  20  21
ATOM     21  C   UNL     1      -9.063  18.751  68.535  0.00  0.00    +0.012 C 
BRANCH  21  22
ATOM     22  C   UNL     1      -8.913  19.639  67.303  0.00  0.00    +0.114 C 
BRANCH  22  23
ATOM     23  C   UNL     1     -10.328  19.913  66.887  0.00  0.00    +0.365 C 
ATOM     24  O   UNL     1     -10.527  19.822  65.504  0.00  0.00    -0.246 OA
ATOM     25  O   UNL     1     -11.188  19.278  67.573  0.00  0.00    -0.246 OA
ENDBRANCH  22  23
ENDBRANCH  21  22
ENDBRANCH  20  21
ENDBRANCH  19  20
ENDBRANCH  18  19
ENDBRANCH  17  18
ENDBRANCH   2  17
TORSDOF 13
ENDMDL
MODEL 7
REMARK VINA RESULT:      -6.0      2.093      6.460
REMARK  Name = 
REMARK  13 active torsions:
REMARK  status: ('A' for Active; 'I' for Inactive)
REMARK    1  A    between atoms: C_2  and  C_3
REMARK    2  A    between atoms: C_3  and  C_4
REMARK    3  A    between atoms: C_4  and  C_5
REMARK    4  A    between atoms: C_5  and  C_6
REMARK    5  A    between atoms: C_6  and  C_8
REMARK    6  A    between atoms: C_9  and  C_10
REMARK    7  A    between atoms: C_16  and  C_17
REMARK    8  A    between atoms: C_17  and  C_18
REMARK    9  A    between atoms: C_18  and  C_19
REMARK   10  A    between atoms: C_19  and  C_20
REMARK   11  A    between atoms: C_20  and  C_21
REMARK   12  A    between atoms: C_21  and  C_22
REMARK   13  A    between atoms: C_22  and  C_23
REMARK                            x       y       z     vdW  Elec       q    Type
REMARK                         _______ _______ _______ _____ _____    ______ ____
ROOT
ATOM      1  C   UNL     1     -11.478  13.870  67.328  0.00  0.00    +0.059 C 
ATOM      2  C   UNL     1     -10.565  14.540  68.579  0.00  0.00    +0.064 C 
ATOM      3  C   UNL     1     -11.559  13.732  69.535  0.00  0.00    +0.153 C 
ATOM      4  O   UNL     1     -12.762  13.909  69.585  0.00  0.00    -0.296 OA
ATOM      5  C   UNL     1     -11.047  12.412  69.264  0.00  0.00    +0.098 C 
ATOM      6  C   UNL     1     -10.710  12.387  67.662  0.00  0.00    +0.164 C 
ATOM      7  O   UNL     1     -11.990  11.629  67.381  0.00  0.00    -0.222 OA
ENDROOT
BRANCH   1   9
ATOM      8  C   UNL     1     -10.798  14.525  65.030  0.00  0.00    +0.002 C 
ATOM      9  C   UNL     1     -10.397  14.261  66.243  0.00  0.00    -0.026 C 
BRANCH   8  10
ATOM     10  C   UNL     1     -12.370  14.251  64.723  0.00  0.00    +0.174 C 
ATOM     11  O   UNL     1     -12.489  15.557  63.945  0.00  0.00    -0.218 OA
BRANCH  10  12
ATOM     12  C   UNL     1     -12.002  13.425  63.335  0.00  0.00    +0.037 C 
BRANCH  12  13
ATOM     13  C   UNL     1     -11.976  12.009  63.872  0.00  0.00    +0.003 C 
BRANCH  13  14
ATOM     14  C   UNL     1     -10.805  11.256  63.337  0.00  0.00    +0.000 C 
BRANCH  14  16
ATOM     15  C   UNL     1     -10.289  10.608  64.463  0.00  0.00    +0.000 C 
ATOM     16  C   UNL     1     -10.120  10.607  64.548  0.00  0.00    +0.000 C 
ENDBRANCH  14  16
ENDBRANCH  13  14
ENDBRANCH  12  13
ENDBRANCH  10  12
ENDBRANCH   8  10
ENDBRANCH   1   9
BRANCH   2  17
ATOM     17  C   UNL     1     -11.409  15.935  68.582  0.00  0.00    +0.008 C 
BRANCH  17  18
ATOM     18  C   UNL     1     -10.402  16.938  69.169  0.00  0.00    +0.000 C 
BRANCH  18  19
ATOM     19  C   UNL     1      -9.129  16.976  68.654  0.00  0.00    +0.000 C 
BRANCH  19  20
ATOM     20  C   UNL     1      -8.212  17.736  67.991  0.00  0.00    +0.001 C 
BRANCH  20  21
ATOM     21  C   UNL     1      -8.580  19.206  67.783  0.00  0.00    +0.012 C 
BRANCH  21  22
ATOM     22  C   UNL     1      -8.748  19.431  66.283  0.00  0.00    +0.114 C 
BRANCH  22  23
ATOM     23  C   UNL     1     -10.230  19.334  66.072  0.00  0.00    +0.365 C 
ATOM     24  O   UNL     1     -10.629  18.125  65.489  0.00  0.00    -0.246 OA
ATOM     25  O   UNL     1     -10.908  19.661  67.095  0.00  0.00    -0.246 OA
ENDBRANCH  22  23
ENDBRANCH  21  22
ENDBRANCH  20  21
ENDBRANCH  19  20
ENDBRANCH  18  19
ENDBRANCH  17  18
ENDBRANCH   2  17
TORSDOF 13
ENDMDL
MODEL 8
REMARK VINA RESULT:      -5.9      2.546      5.355
REMARK  Name = 
REMARK  13 active torsions:
REMARK  status: ('A' for Active; 'I' for Inactive)
REMARK    1  A    between atoms: C_2  and  C_3
REMARK    2  A    between atoms: C_3  and  C_4
REMARK    3  A    between atoms: C_4  and  C_5
REMARK    4  A    between atoms: C_5  and  C_6
REMARK    5  A    between atoms: C_6  and  C_8
REMARK    6  A    between atoms: C_9  and  C_10
REMARK    7  A    between atoms: C_16  and  C_17
REMARK    8  A    between atoms: C_17  and  C_18
REMARK    9  A    between atoms: C_18  and  C_19
REMARK   10  A    between atoms: C_19  and  C_20
REMARK   11  A    between atoms: C_20  and  C_21
REMARK   12  A    between atoms: C_21  and  C_22
REMARK   13  A    between atoms: C_22  and  C_23
REMARK                            x       y       z     vdW  Elec       q    Type
REMARK                         _______ _______ _______ _____ _____    ______ ____
ROOT
ATOM      1  C   UNL     1     -11.068  13.001  66.252  0.00  0.00    +0.059 C 
ATOM      2  C   UNL     1     -11.626  14.508  66.765  0.00  0.00    +0.064 C 
ATOM      3  C   UNL     1     -11.157  15.006  65.320  0.00  0.00    +0.153 C 
ATOM      4  O   UNL     1     -10.010  14.960  64.914  0.00  0.00    -0.296 OA
ATOM      5  C   UNL     1     -12.205  14.376  64.556  0.00  0.00    +0.098 C 
ATOM      6  C   UNL     1     -12.445  12.914  65.253  0.00  0.00    +0.164 C 
ATOM      7  O   UNL     1     -11.644  12.237  64.162  0.00  0.00    -0.222 OA
ENDROOT
BRANCH   1   9
ATOM      8  C   UNL     1     -11.140  11.351  68.108  0.00  0.00    +0.002 C 
ATOM      9  C   UNL     1     -11.800  12.255  67.438  0.00  0.00    -0.026 C 
BRANCH   8  10
ATOM     10  C   UNL     1      -9.671  10.965  67.529  0.00  0.00    +0.174 C 
ATOM     11  O   UNL     1      -9.093  10.878  68.937  0.00  0.00    -0.218 OA
BRANCH  10  12
ATOM     12  C   UNL     1     -10.038   9.350  67.549  0.00  0.00    +0.037 C 
BRANCH  12  13
ATOM     13  C   UNL     1     -10.002   9.055  66.063  0.00  0.00    +0.003 C 
BRANCH  13  14
ATOM     14  C   UNL     1      -9.094  10.001  65.353  0.00  0.00    +0.000 C 
BRANCH  14  16
ATOM     15  C   UNL     1      -9.220   9.806  63.974  0.00  0.00    +0.000 C 
ATOM     16  C   UNL     1      -9.195   9.658  63.860  0.00  0.00    +0.000 C 
ENDBRANCH  14  16
ENDBRANCH  13  14
ENDBRANCH  12  13
ENDBRANCH  10  12
ENDBRANCH   8  10
ENDBRANCH   1   9
BRANCH   2  17
ATOM     17  C   UNL     1     -10.237  14.871  67.538  0.00  0.00    +0.008 C 
BRANCH  17  18
ATOM     18  C   UNL     1     -10.660  16.018  68.470  0.00  0.00    +0.000 C 
BRANCH  18  19
ATOM     19  C   UNL     1     -11.800  15.874  69.222  0.00  0.00    +0.000 C 
BRANCH  19  20
ATOM     20  C   UNL     1     -12.448  15.097  70.137  0.00  0.00    +0.001 C 
BRANCH  20  21
ATOM     21  C   UNL     1     -11.742  14.911  71.481  0.00  0.00    +0.012 C 
BRANCH  21  22
ATOM     22  C   UNL     1     -11.911  16.206  72.272  0.00  0.00    +0.114 C 
BRANCH  22  23
ATOM     23  C   UNL     1     -12.958  15.866  73.291  0.00  0.00    +0.365 C 
ATOM     24  O   UNL     1     -12.673  16.367  74.567  0.00  0.00    -0.246 OA
ATOM     25  O   UNL     1     -14.142  16.105  72.898  0.00  0.00    -0.246 OA
ENDBRANCH  22  23
ENDBRANCH  21  22
ENDBRANCH  20  21
ENDBRANCH  19  20
ENDBRANCH  18  19
ENDBRANCH  17  18
ENDBRANCH   2  17
TORSDOF 13
ENDMDL
MODEL 9
REMARK VINA RESULT:      -5.8      2.761      3.227
REMARK  Name = 
REMARK  13 active torsions:
REMARK  status: ('A' for Active; 'I' for Inactive)
REMARK    1  A    between atoms: C_2  and  C_3
REMARK    2  A    between atoms: C_3  and  C_4
REMARK    3  A    between atoms: C_4  and  C_5
REMARK    4  A    between atoms: C_5  and  C_6
REMARK    5  A    between atoms: C_6  and  C_8
REMARK    6  A    between atoms: C_9  and  C_10
REMARK    7  A    between atoms: C_16  and  C_17
REMARK    8  A    between atoms: C_17  and  C_18
REMARK    9  A    between atoms: C_18  and  C_19
REMARK   10  A    between atoms: C_19  and  C_20
REMARK   11  A    between atoms: C_20  and  C_21
REMARK   12  A    between atoms: C_21  and  C_22
REMARK   13  A    between atoms: C_22  and  C_23
REMARK                            x       y       z     vdW  Elec       q    Type
REMARK                         _______ _______ _______ _____ _____    ______ ____
ROOT
ATOM      1  C   UNL     1     -10.992  14.678  66.521  0.00  0.00    +0.059 C 
ATOM      2  C   UNL     1     -10.970  12.997  66.375  0.00  0.00    +0.064 C 
ATOM      3  C   UNL     1     -12.080  13.231  65.249  0.00  0.00    +0.153 C 
ATOM      4  O   UNL     1     -13.166  13.745  65.449  0.00  0.00    -0.296 OA
ATOM      5  C   UNL     1     -11.210  13.779  64.239  0.00  0.00    +0.098 C 
ATOM      6  C   UNL     1     -10.155  14.743  65.039  0.00  0.00    +0.164 C 
ATOM      7  O   UNL     1     -10.930  15.975  64.624  0.00  0.00    -0.222 OA
ENDROOT
BRANCH   1   9
ATOM      8  C   UNL     1      -9.637  15.290  68.511  0.00  0.00    +0.002 C 
ATOM      9  C   UNL     1      -9.649  14.687  67.355  0.00  0.00    -0.026 C 
BRANCH   8  10
ATOM     10  C   UNL     1     -10.977  16.125  68.894  0.00  0.00    +0.174 C 
ATOM     11  O   UNL     1     -10.728  15.924  70.385  0.00  0.00    -0.218 OA
BRANCH  10  12
ATOM     12  C   UNL     1     -10.136  17.552  68.917  0.00  0.00    +0.037 C 
BRANCH  12  13
ATOM     13  C   UNL     1     -10.715  18.217  67.685  0.00  0.00    +0.003 C 
BRANCH  13  14
ATOM     14  C   UNL     1      -9.703  19.093  67.026  0.00  0.00    +0.000 C 
BRANCH  14  16
ATOM     15  C   UNL     1     -10.395  19.668  65.956  0.00  0.00    +0.000 C 
ATOM     16  C   UNL     1     -10.443  19.845  65.911  0.00  0.00    +0.000 C 
ENDBRANCH  14  16
ENDBRANCH  13  14
ENDBRANCH  12  13
ENDBRANCH  10  12
ENDBRANCH   8  10
ENDBRANCH   1   9
BRANCH   2  17
ATOM     17  C   UNL     1     -12.011  12.776  67.610  0.00  0.00    +0.008 C 
BRANCH  17  18
ATOM     18  C   UNL     1     -11.292  11.730  68.476  0.00  0.00    +0.000 C 
BRANCH  18  19
ATOM     19  C   UNL     1     -12.020  11.020  69.399  0.00  0.00    +0.000 C 
BRANCH  19  20
ATOM     20  C   UNL     1     -12.261  10.827  70.727  0.00  0.00    +0.001 C 
BRANCH  20  21
ATOM     21  C   UNL     1     -12.205   9.379  71.217  0.00  0.00    +0.012 C 
BRANCH  21  22
ATOM     22  C   UNL     1     -13.277   9.215  72.291  0.00  0.00    +0.114 C 
BRANCH  22  23
ATOM     23  C   UNL     1     -14.175   8.147  71.738  0.00  0.00    +0.365 C 
ATOM     24  O   UNL     1     -13.548   6.900  71.626  0.00  0.00    -0.246 OA
ATOM     25  O   UNL     1     -15.312   8.102  72.302  0.00  0.00    -0.246 OA
ENDBRANCH  22  23
ENDBRANCH  21  22
ENDBRANCH  20  21
ENDBRANCH  19  20
ENDBRANCH  18  19
ENDBRANCH  17  18
ENDBRANCH   2  17
TORSDOF 13
ENDMDL
