MODEL 1
REMARK VINA RESULT:      -5.4      0.000      0.000
REMARK  Name = 
REMARK  1 active torsions:
REMARK  status: ('A' for Active; 'I' for Inactive)
REMARK    1  A    between atoms: C_6  and  N_7
REMARK                            x       y       z     vdW  Elec       q    Type
REMARK                         _______ _______ _______ _____ _____    ______ ____
ROOT
ATOM      1  N   UNL     1     -12.059  11.435  67.802  0.00  0.00    -0.128 NA
ATOM      2  C   UNL     1     -11.776  12.837  67.756  0.00  0.00    +0.091 A 
ATOM      3  C   UNL     1     -11.316  13.494  68.891  0.00  0.00    +0.032 A 
ATOM      4  C   UNL     1     -10.691  14.726  68.733  0.00  0.00    +0.094 A 
ATOM      5 CL   UNL     1     -10.558  15.843  70.089  0.00  0.00    -0.079 Cl
ATOM      6  C   UNL     1     -10.523  15.254  67.459  0.00  0.00    +0.179 A 
ATOM      7  C   UNL     1     -11.098  14.644  66.358  0.00  0.00    +0.094 A 
ATOM      8 CL   UNL     1     -11.095  15.527  64.841  0.00  0.00    -0.079 Cl
ATOM      9  C   UNL     1     -11.629  13.377  66.484  0.00  0.00    +0.032 A 
ENDROOT
BRANCH   6  10
ATOM     10  N   UNL     1      -9.393  16.117  67.294  0.00  0.00    -0.069 NA
ATOM     11  C   UNL     1      -9.677  17.371  67.091  0.00  0.00    +0.439 C 
ATOM     12  N   UNL     1     -10.798  18.111  67.582  0.00  0.00    -0.060 NA
ATOM     13  C   UNL     1     -10.731  19.490  67.112  0.00  0.00    +0.251 C 
ATOM     14  C   UNL     1      -9.400  19.579  66.419  0.00  0.00    +0.251 C 
ATOM     15  N   UNL     1      -9.096  18.188  66.093  0.00  0.00    -0.060 NA
ENDBRANCH   6  10
TORSDOF 1
ENDMDL
MODEL 2
REMARK VINA RESULT:      -5.1      1.662      2.498
REMARK  Name = 
REMARK  1 active torsions:
REMARK  status: ('A' for Active; 'I' for Inactive)
REMARK    1  A    between atoms: C_6  and  N_7
REMARK                            x       y       z     vdW  Elec       q    Type
REMARK                         _______ _______ _______ _____ _____    ______ ____
ROOT
ATOM      1  N   UNL     1     -11.923  13.307  69.551  0.00  0.00    -0.128 NA
ATOM      2  C   UNL     1     -11.278  13.648  68.319  0.00  0.00    +0.091 A 
ATOM      3  C   UNL     1     -12.035  13.998  67.208  0.00  0.00    +0.032 A 
ATOM      4  C   UNL     1     -11.411  14.683  66.173  0.00  0.00    +0.094 A 
ATOM      5 CL   UNL     1     -12.114  14.701  64.558  0.00  0.00    -0.079 Cl
ATOM      6  C   UNL     1     -10.066  15.017  66.282  0.00  0.00    +0.179 A 
ATOM      7  C   UNL     1      -9.303  14.550  67.338  0.00  0.00    +0.094 A 
ATOM      8 CL   UNL     1      -7.564  14.763  67.245  0.00  0.00    -0.079 Cl
ATOM      9  C   UNL     1      -9.928  13.961  68.418  0.00  0.00    +0.032 A 
ENDROOT
BRANCH   6  10
ATOM     10  N   UNL     1      -9.663  16.191  65.568  0.00  0.00    -0.069 NA
ATOM     11  C   UNL     1      -9.966  17.319  66.140  0.00  0.00    +0.439 C 
ATOM     12  N   UNL     1     -10.064  17.600  67.539  0.00  0.00    -0.060 NA
ATOM     13  C   UNL     1     -10.432  18.996  67.744  0.00  0.00    +0.251 C 
ATOM     14  C   UNL     1     -10.405  19.591  66.364  0.00  0.00    +0.251 C 
ATOM     15  N   UNL     1     -10.558  18.430  65.492  0.00  0.00    -0.060 NA
ENDBRANCH   6  10
TORSDOF 1
ENDMDL
MODEL 3
REMARK VINA RESULT:      -5.1      3.053      5.186
REMARK  Name = 
REMARK  1 active torsions:
REMARK  status: ('A' for Active; 'I' for Inactive)
REMARK    1  A    between atoms: C_6  and  N_7
REMARK                            x       y       z     vdW  Elec       q    Type
REMARK                         _______ _______ _______ _____ _____    ______ ____
ROOT
ATOM      1  N   UNL     1     -12.103  15.983  70.207  0.00  0.00    -0.128 NA
ATOM      2  C   UNL     1     -11.677  14.992  69.268  0.00  0.00    +0.091 A 
ATOM      3  C   UNL     1     -11.940  13.648  69.503  0.00  0.00    +0.032 A 
ATOM      4  C   UNL     1     -11.873  12.764  68.433  0.00  0.00    +0.094 A 
ATOM      5 CL   UNL     1     -11.670  11.036  68.709  0.00  0.00    -0.079 Cl
ATOM      6  C   UNL     1     -11.570  13.243  67.164  0.00  0.00    +0.179 A 
ATOM      7  C   UNL     1     -11.189  14.560  66.976  0.00  0.00    +0.094 A 
ATOM      8 CL   UNL     1     -10.537  15.005  65.408  0.00  0.00    -0.079 Cl
ATOM      9  C   UNL     1     -11.350  15.466  68.004  0.00  0.00    +0.032 A 
ENDROOT
BRANCH   6  10
ATOM     10  N   UNL     1     -12.114  12.489  66.075  0.00  0.00    -0.069 NA
ATOM     11  C   UNL     1     -11.237  11.912  65.306  0.00  0.00    +0.439 C 
ATOM     12  N   UNL     1      -9.949  11.404  65.665  0.00  0.00    -0.060 NA
ATOM     13  C   UNL     1      -9.291  10.838  64.494  0.00  0.00    +0.251 C 
ATOM     14  C   UNL     1     -10.338  10.901  63.416  0.00  0.00    +0.251 C 
ATOM     15  N   UNL     1     -11.249  11.938  63.891  0.00  0.00    -0.060 NA
ENDBRANCH   6  10
TORSDOF 1
ENDMDL
MODEL 4
REMARK VINA RESULT:      -5.1      2.776      4.784
REMARK  Name = 
REMARK  1 active torsions:
REMARK  status: ('A' for Active; 'I' for Inactive)
REMARK    1  A    between atoms: C_6  and  N_7
REMARK                            x       y       z     vdW  Elec       q    Type
REMARK                         _______ _______ _______ _____ _____    ______ ____
ROOT
ATOM      1  N   UNL     1     -11.687  16.127  70.859  0.00  0.00    -0.128 NA
ATOM      2  C   UNL     1     -11.625  15.613  69.525  0.00  0.00    +0.091 A 
ATOM      3  C   UNL     1     -11.084  16.385  68.504  0.00  0.00    +0.032 A 
ATOM      4  C   UNL     1     -10.682  15.747  67.336  0.00  0.00    +0.094 A 
ATOM      5 CL   UNL     1     -10.492  16.657  65.839  0.00  0.00    -0.079 Cl
ATOM      6  C   UNL     1     -10.808  14.368  67.227  0.00  0.00    +0.179 A 
ATOM      7  C   UNL     1     -11.462  13.637  68.203  0.00  0.00    +0.094 A 
ATOM      8 CL   UNL     1     -11.841  11.960  67.851  0.00  0.00    -0.079 Cl
ATOM      9  C   UNL     1     -11.772  14.237  69.406  0.00  0.00    +0.032 A 
ENDROOT
BRANCH   6  10
ATOM     10  N   UNL     1      -9.860  13.729  66.364  0.00  0.00    -0.069 NA
ATOM     11  C   UNL     1     -10.365  13.165  65.306  0.00  0.00    +0.439 C 
ATOM     12  N   UNL     1     -11.523  13.559  64.564  0.00  0.00    -0.060 NA
ATOM     13  C   UNL     1     -11.736  12.645  63.448  0.00  0.00    +0.251 C 
ATOM     14  C   UNL     1     -10.531  11.746  63.472  0.00  0.00    +0.251 C 
ATOM     15  N   UNL     1     -10.049  11.865  64.845  0.00  0.00    -0.060 NA
ENDBRANCH   6  10
TORSDOF 1
ENDMDL
MODEL 5
REMARK VINA RESULT:      -5.0      1.987      2.669
REMARK  Name = 
REMARK  1 active torsions:
REMARK  status: ('A' for Active; 'I' for Inactive)
REMARK    1  A    between atoms: C_6  and  N_7
REMARK                            x       y       z     vdW  Elec       q    Type
REMARK                         _______ _______ _______ _____ _____    ______ ____
ROOT
ATOM      1  N   UNL     1     -12.315  14.139  64.536  0.00  0.00    -0.128 NA
ATOM      2  C   UNL     1     -11.500  14.239  65.708  0.00  0.00    +0.091 A 
ATOM      3  C   UNL     1     -10.179  14.658  65.606  0.00  0.00    +0.032 A 
ATOM      4  C   UNL     1      -9.541  15.114  66.754  0.00  0.00    +0.094 A 
ATOM      5 CL   UNL     1      -7.782  15.160  66.842  0.00  0.00    -0.079 Cl
ATOM      6  C   UNL     1     -10.237  15.159  67.956  0.00  0.00    +0.179 A 
ATOM      7  C   UNL     1     -11.507  14.621  68.060  0.00  0.00    +0.094 A 
ATOM      8 CL   UNL     1     -12.191  14.448  69.667  0.00  0.00    -0.079 Cl
ATOM      9  C   UNL     1     -12.188  14.263  66.915  0.00  0.00    +0.032 A 
ENDROOT
BRANCH   6  10
ATOM     10  N   UNL     1      -9.803  16.163  68.881  0.00  0.00    -0.069 NA
ATOM     11  C   UNL     1      -9.927  17.390  68.467  0.00  0.00    +0.439 C 
ATOM     12  N   UNL     1     -10.915  17.926  67.582  0.00  0.00    -0.060 NA
ATOM     13  C   UNL     1     -10.684  19.352  67.381  0.00  0.00    +0.251 C 
ATOM     14  C   UNL     1      -9.567  19.682  68.331  0.00  0.00    +0.251 C 
ATOM     15  N   UNL     1      -8.931  18.390  68.567  0.00  0.00    -0.060 NA
ENDBRANCH   6  10
TORSDOF 1
ENDMDL
MODEL 6
REMARK VINA RESULT:      -5.0      2.821      3.866
REMARK  Name = 
REMARK  1 active torsions:
REMARK  status: ('A' for Active; 'I' for Inactive)
REMARK    1  A    between atoms: C_6  and  N_7
REMARK                            x       y       z     vdW  Elec       q    Type
REMARK                         _______ _______ _______ _____ _____    ______ ____
ROOT
ATOM      1  N   UNL     1     -13.187  12.562  64.627  0.00  0.00    -0.128 NA
ATOM      2  C   UNL     1     -12.017  13.130  65.224  0.00  0.00    +0.091 A 
ATOM      3  C   UNL     1     -11.808  14.503  65.183  0.00  0.00    +0.032 A 
ATOM      4  C   UNL     1     -10.901  15.060  66.077  0.00  0.00    +0.094 A 
ATOM      5 CL   UNL     1     -10.192  16.641  65.764  0.00  0.00    -0.079 Cl
ATOM      6  C   UNL     1     -10.250  14.244  66.994  0.00  0.00    +0.179 A 
ATOM      7  C   UNL     1     -10.379  12.867  66.935  0.00  0.00    +0.094 A 
ATOM      8 CL   UNL     1      -9.298  11.902  67.926  0.00  0.00    -0.079 Cl
ATOM      9  C   UNL     1     -11.348  12.311  66.126  0.00  0.00    +0.032 A 
ENDROOT
BRANCH   6  10
ATOM     10  N   UNL     1      -9.868  14.878  68.220  0.00  0.00    -0.069 NA
ATOM     11  C   UNL     1     -10.830  15.051  69.078  0.00  0.00    +0.439 C 
ATOM     12  N   UNL     1     -11.987  14.235  69.283  0.00  0.00    -0.060 NA
ATOM     13  C   UNL     1     -12.812  14.794  70.346  0.00  0.00    +0.251 C 
ATOM     14  C   UNL     1     -11.995  15.936  70.885  0.00  0.00    +0.251 C 
ATOM     15  N   UNL     1     -11.088  16.250  69.785  0.00  0.00    -0.060 NA
ENDBRANCH   6  10
TORSDOF 1
ENDMDL
MODEL 7
REMARK VINA RESULT:      -5.0      2.724      5.283
REMARK  Name = 
REMARK  1 active torsions:
REMARK  status: ('A' for Active; 'I' for Inactive)
REMARK    1  A    between atoms: C_6  and  N_7
REMARK                            x       y       z     vdW  Elec       q    Type
REMARK                         _______ _______ _______ _____ _____    ______ ____
ROOT
ATOM      1  N   UNL     1      -7.253  14.772  67.478  0.00  0.00    -0.128 NA
ATOM      2  C   UNL     1      -8.655  15.001  67.306  0.00  0.00    +0.091 A 
ATOM      3  C   UNL     1      -9.133  15.550  66.122  0.00  0.00    +0.032 A 
ATOM      4  C   UNL     1     -10.483  15.405  65.824  0.00  0.00    +0.094 A 
ATOM      5 CL   UNL     1     -11.264  16.477  64.665  0.00  0.00    -0.079 Cl
ATOM      6  C   UNL     1     -11.308  14.705  66.696  0.00  0.00    +0.179 A 
ATOM      7  C   UNL     1     -10.839  14.277  67.925  0.00  0.00    +0.094 A 
ATOM      8 CL   UNL     1     -12.014  13.673  69.081  0.00  0.00    -0.079 Cl
ATOM      9  C   UNL     1      -9.486  14.322  68.188  0.00  0.00    +0.032 A 
ENDROOT
BRANCH   6  10
ATOM     10  N   UNL     1     -12.437  14.062  66.092  0.00  0.00    -0.069 NA
ATOM     11  C   UNL     1     -12.150  13.192  65.169  0.00  0.00    +0.439 C 
ATOM     12  N   UNL     1     -10.994  12.356  65.072  0.00  0.00    -0.060 NA
ATOM     13  C   UNL     1     -11.073  11.529  63.874  0.00  0.00    +0.251 C 
ATOM     14  C   UNL     1     -12.441  11.813  63.320  0.00  0.00    +0.251 C 
ATOM     15  N   UNL     1     -12.780  13.107  63.904  0.00  0.00    -0.060 NA
ENDBRANCH   6  10
TORSDOF 1
ENDMDL
MODEL 8
REMARK VINA RESULT:      -5.0      2.410      4.484
REMARK  Name = 
REMARK  1 active torsions:
REMARK  status: ('A' for Active; 'I' for Inactive)
REMARK    1  A    between atoms: C_6  and  N_7
REMARK                            x       y       z     vdW  Elec       q    Type
REMARK                         _______ _______ _______ _____ _____    ______ ____
ROOT
ATOM      1  N   UNL     1      -8.497  17.012  65.854  0.00  0.00    -0.128 NA
ATOM      2  C   UNL     1      -9.121  15.741  66.062  0.00  0.00    +0.091 A 
ATOM      3  C   UNL     1      -8.609  14.859  67.006  0.00  0.00    +0.032 A 
ATOM      4  C   UNL     1      -9.428  13.832  67.461  0.00  0.00    +0.094 A 
ATOM      5 CL   UNL     1      -8.732  12.402  68.220  0.00  0.00    -0.079 Cl
ATOM      6  C   UNL     1     -10.728  13.726  66.984  0.00  0.00    +0.179 A 
ATOM      7  C   UNL     1     -11.174  14.537  65.955  0.00  0.00    +0.094 A 
ATOM      8 CL   UNL     1     -12.715  14.141  65.213  0.00  0.00    -0.079 Cl
ATOM      9  C   UNL     1     -10.414  15.621  65.568  0.00  0.00    +0.032 A 
ENDROOT
BRANCH   6  10
ATOM     10  N   UNL     1     -11.667  13.123  67.883  0.00  0.00    -0.069 NA
ATOM     11  C   UNL     1     -11.962  13.831  68.933  0.00  0.00    +0.439 C 
ATOM     12  N   UNL     1     -12.008  15.256  69.052  0.00  0.00    -0.060 NA
ATOM     13  C   UNL     1     -12.381  15.633  70.410  0.00  0.00    +0.251 C 
ATOM     14  C   UNL     1     -12.710  14.327  71.078  0.00  0.00    +0.251 C 
ATOM     15  N   UNL     1     -12.005  13.344  70.261  0.00  0.00    -0.060 NA
ENDBRANCH   6  10
TORSDOF 1
ENDMDL
MODEL 9
REMARK VINA RESULT:      -5.0      3.801      6.194
REMARK  Name = 
REMARK  1 active torsions:
REMARK  status: ('A' for Active; 'I' for Inactive)
REMARK    1  A    between atoms: C_6  and  N_7
REMARK                            x       y       z     vdW  Elec       q    Type
REMARK                         _______ _______ _______ _____ _____    ______ ____
ROOT
ATOM      1  N   UNL     1     -12.556  14.505  63.910  0.00  0.00    -0.128 NA
ATOM      2  C   UNL     1     -11.939  13.763  64.967  0.00  0.00    +0.091 A 
ATOM      3  C   UNL     1     -12.184  14.102  66.293  0.00  0.00    +0.032 A 
ATOM      4  C   UNL     1     -11.905  13.161  67.277  0.00  0.00    +0.094 A 
ATOM      5 CL   UNL     1     -11.681  13.658  68.952  0.00  0.00    -0.079 Cl
ATOM      6  C   UNL     1     -11.413  11.913  66.916  0.00  0.00    +0.179 A 
ATOM      7  C   UNL     1     -11.060  11.642  65.605  0.00  0.00    +0.094 A 
ATOM      8 CL   UNL     1     -10.174  10.161  65.287  0.00  0.00    -0.079 Cl
ATOM      9  C   UNL     1     -11.426  12.523  64.608  0.00  0.00    +0.032 A 
ENDROOT
BRANCH   6  10
ATOM     10  N   UNL     1     -11.738  10.841  67.808  0.00  0.00    -0.069 NA
ATOM     11  C   UNL     1     -10.724  10.297  68.414  0.00  0.00    +0.439 C 
ATOM     12  N   UNL     1      -9.497  10.916  68.810  0.00  0.00    -0.060 NA
ATOM     13  C   UNL     1      -8.630   9.940  69.459  0.00  0.00    +0.251 C 
ATOM     14  C   UNL     1      -9.481   8.705  69.567  0.00  0.00    +0.251 C 
ATOM     15  N   UNL     1     -10.497   8.905  68.537  0.00  0.00    -0.060 NA
ENDBRANCH   6  10
TORSDOF 1
ENDMDL
