MODEL 1
REMARK VINA RESULT:      -6.1      0.000      0.000
REMARK  Name = 
REMARK  2 active torsions:
REMARK  status: ('A' for Active; 'I' for Inactive)
REMARK    1  A    between atoms: S_2  and  C_5
REMARK    2  A    between atoms: C_11  and  S_12
REMARK                            x       y       z     vdW  Elec       q    Type
REMARK                         _______ _______ _______ _____ _____    ______ ____
ROOT
ATOM      1  C   UNL     1     -12.441  14.783  71.054  0.00  0.00    +0.127 A 
ATOM      2  C   UNL     1     -12.129  13.551  70.498  0.00  0.00    +0.041 A 
ATOM      3  C   UNL     1     -11.585  13.391  69.250  0.00  0.00    +0.138 A 
ATOM      4  C   UNL     1     -11.091  14.506  68.595  0.00  0.00    +0.087 A 
ATOM      5 CL   UNL     1     -10.063  14.297  67.187  0.00  0.00    -0.080 Cl
ATOM      6  C   UNL     1     -11.192  15.739  69.224  0.00  0.00    +0.071 A 
ATOM      7 CL   UNL     1     -10.822  17.166  68.276  0.00  0.00    -0.081 Cl
ATOM      8  C   UNL     1     -11.954  15.893  70.372  0.00  0.00    +0.032 A 
ENDROOT
BRANCH   1  10
ATOM      9  N   UNL     1     -13.496  15.974  73.383  0.00  0.00    +0.039 NA
ATOM     10  S   UNL     1     -13.870  14.915  72.072  0.00  0.00    +0.094 S 
ATOM     11  O   UNL     1     -15.030  15.485  71.328  0.00  0.00    -0.150 OA
ATOM     12  O   UNL     1     -14.136  13.551  72.622  0.00  0.00    -0.150 OA
ENDBRANCH   1  10
BRANCH   3  13
ATOM     13  S   UNL     1     -11.614  11.834  68.430  0.00  0.00    +0.094 S 
ATOM     14  O   UNL     1     -12.496  10.888  69.195  0.00  0.00    -0.150 OA
ATOM     15  O   UNL     1     -12.068  11.946  67.018  0.00  0.00    -0.150 OA
ATOM     16  N   UNL     1      -9.999  11.203  68.541  0.00  0.00    +0.039 NA
ENDBRANCH   3  13
TORSDOF 2
ENDMDL
MODEL 2
REMARK VINA RESULT:      -6.1      4.453      6.246
REMARK  Name = 
REMARK  2 active torsions:
REMARK  status: ('A' for Active; 'I' for Inactive)
REMARK    1  A    between atoms: S_2  and  C_5
REMARK    2  A    between atoms: C_11  and  S_12
REMARK                            x       y       z     vdW  Elec       q    Type
REMARK                         _______ _______ _______ _____ _____    ______ ____
ROOT
ATOM      1  C   UNL     1     -11.345  13.997  66.078  0.00  0.00    +0.127 A 
ATOM      2  C   UNL     1     -10.672  15.210  66.088  0.00  0.00    +0.041 A 
ATOM      3  C   UNL     1     -10.654  16.066  67.158  0.00  0.00    +0.138 A 
ATOM      4  C   UNL     1     -11.120  15.608  68.380  0.00  0.00    +0.087 A 
ATOM      5 CL   UNL     1     -10.772  16.525  69.836  0.00  0.00    -0.080 Cl
ATOM      6  C   UNL     1     -11.606  14.311  68.456  0.00  0.00    +0.071 A 
ATOM      7 CL   UNL     1     -12.442  13.843  69.924  0.00  0.00    -0.081 Cl
ATOM      8  C   UNL     1     -11.823  13.563  67.309  0.00  0.00    +0.032 A 
ENDROOT
BRANCH   1  10
ATOM      9  N   UNL     1     -10.914  12.647  63.639  0.00  0.00    +0.039 NA
ATOM     10  S   UNL     1     -12.106  13.463  64.583  0.00  0.00    +0.094 S 
ATOM     11  O   UNL     1     -13.227  12.515  64.841  0.00  0.00    -0.150 OA
ATOM     12  O   UNL     1     -12.532  14.694  63.852  0.00  0.00    -0.150 OA
ENDBRANCH   1  10
BRANCH   3  13
ATOM     13  S   UNL     1     -10.171  17.749  66.979  0.00  0.00    +0.094 S 
ATOM     14  O   UNL     1     -10.161  18.108  65.521  0.00  0.00    -0.150 OA
ATOM     15  O   UNL     1     -11.050  18.674  67.741  0.00  0.00    -0.150 OA
ATOM     16  N   UNL     1      -8.522  17.833  67.519  0.00  0.00    +0.039 NA
ENDBRANCH   3  13
TORSDOF 2
ENDMDL
MODEL 3
REMARK VINA RESULT:      -5.9      4.506      6.107
REMARK  Name = 
REMARK  2 active torsions:
REMARK  status: ('A' for Active; 'I' for Inactive)
REMARK    1  A    between atoms: S_2  and  C_5
REMARK    2  A    between atoms: C_11  and  S_12
REMARK                            x       y       z     vdW  Elec       q    Type
REMARK                         _______ _______ _______ _____ _____    ______ ____
ROOT
ATOM      1  C   UNL     1     -11.145  13.609  66.049  0.00  0.00    +0.127 A 
ATOM      2  C   UNL     1     -10.462  14.804  66.214  0.00  0.00    +0.041 A 
ATOM      3  C   UNL     1     -10.376  15.479  67.404  0.00  0.00    +0.138 A 
ATOM      4  C   UNL     1     -10.777  14.832  68.561  0.00  0.00    +0.087 A 
ATOM      5 CL   UNL     1     -10.340  15.505  70.123  0.00  0.00    -0.080 Cl
ATOM      6  C   UNL     1     -11.269  13.539  68.458  0.00  0.00    +0.071 A 
ATOM      7 CL   UNL     1     -12.026  12.842  69.877  0.00  0.00    -0.081 Cl
ATOM      8  C   UNL     1     -11.557  12.983  67.220  0.00  0.00    +0.032 A 
ENDROOT
BRANCH   1  10
ATOM      9  N   UNL     1     -12.522  14.844  63.919  0.00  0.00    +0.039 NA
ATOM     10  S   UNL     1     -11.993  13.320  64.534  0.00  0.00    +0.094 S 
ATOM     11  O   UNL     1     -11.107  12.688  63.515  0.00  0.00    -0.150 OA
ATOM     12  O   UNL     1     -13.195  12.496  64.863  0.00  0.00    -0.150 OA
ENDBRANCH   1  10
BRANCH   3  13
ATOM     13  S   UNL     1      -9.889  17.168  67.469  0.00  0.00    +0.094 S 
ATOM     14  O   UNL     1     -10.997  17.981  68.076  0.00  0.00    -0.150 OA
ATOM     15  O   UNL     1      -8.623  17.364  68.224  0.00  0.00    -0.150 OA
ATOM     16  N   UNL     1      -9.743  17.688  65.817  0.00  0.00    +0.039 NA
ENDBRANCH   3  13
TORSDOF 2
ENDMDL
MODEL 4
REMARK VINA RESULT:      -5.7      2.892      3.537
REMARK  Name = 
REMARK  2 active torsions:
REMARK  status: ('A' for Active; 'I' for Inactive)
REMARK    1  A    between atoms: S_2  and  C_5
REMARK    2  A    between atoms: C_11  and  S_12
REMARK                            x       y       z     vdW  Elec       q    Type
REMARK                         _______ _______ _______ _____ _____    ______ ____
ROOT
ATOM      1  C   UNL     1     -13.026  14.139  71.482  0.00  0.00    +0.127 A 
ATOM      2  C   UNL     1     -12.434  14.242  70.232  0.00  0.00    +0.041 A 
ATOM      3  C   UNL     1     -11.852  13.191  69.572  0.00  0.00    +0.138 A 
ATOM      4  C   UNL     1     -12.068  11.909  70.048  0.00  0.00    +0.087 A 
ATOM      5 CL   UNL     1     -11.664  10.532  69.037  0.00  0.00    -0.080 Cl
ATOM      6  C   UNL     1     -12.845  11.751  71.188  0.00  0.00    +0.071 A 
ATOM      7 CL   UNL     1     -12.878  10.165  71.933  0.00  0.00    -0.081 Cl
ATOM      8  C   UNL     1     -13.216  12.845  71.954  0.00  0.00    +0.032 A 
ENDROOT
BRANCH   1  10
ATOM      9  N   UNL     1     -12.398  14.855  74.137  0.00  0.00    +0.039 NA
ATOM     10  S   UNL     1     -12.876  15.487  72.604  0.00  0.00    +0.094 S 
ATOM     11  O   UNL     1     -11.843  16.465  72.159  0.00  0.00    -0.150 OA
ATOM     12  O   UNL     1     -14.237  16.089  72.740  0.00  0.00    -0.150 OA
ENDBRANCH   1  10
BRANCH   3  13
ATOM     13  S   UNL     1     -10.752  13.451  68.223  0.00  0.00    +0.094 S 
ATOM     14  O   UNL     1     -10.449  14.918  68.107  0.00  0.00    -0.150 OA
ATOM     15  O   UNL     1      -9.497  12.666  68.356  0.00  0.00    -0.150 OA
ATOM     16  N   UNL     1     -11.638  13.016  66.793  0.00  0.00    +0.039 NA
ENDBRANCH   3  13
TORSDOF 2
ENDMDL
MODEL 5
REMARK VINA RESULT:      -5.7      2.042      2.404
REMARK  Name = 
REMARK  2 active torsions:
REMARK  status: ('A' for Active; 'I' for Inactive)
REMARK    1  A    between atoms: S_2  and  C_5
REMARK    2  A    between atoms: C_11  and  S_12
REMARK                            x       y       z     vdW  Elec       q    Type
REMARK                         _______ _______ _______ _____ _____    ______ ____
ROOT
ATOM      1  C   UNL     1     -11.486  15.044  69.804  0.00  0.00    +0.127 A 
ATOM      2  C   UNL     1     -11.446  14.066  68.821  0.00  0.00    +0.041 A 
ATOM      3  C   UNL     1     -11.302  14.331  67.484  0.00  0.00    +0.138 A 
ATOM      4  C   UNL     1     -10.933  15.609  67.098  0.00  0.00    +0.087 A 
ATOM      5 CL   UNL     1     -10.378  15.890  65.456  0.00  0.00    -0.080 Cl
ATOM      6  C   UNL     1     -10.751  16.569  68.084  0.00  0.00    +0.071 A 
ATOM      7 CL   UNL     1     -10.562  18.234  67.570  0.00  0.00    -0.081 Cl
ATOM      8  C   UNL     1     -11.133  16.325  69.394  0.00  0.00    +0.032 A 
ENDROOT
BRANCH   1  10
ATOM      9  N   UNL     1     -11.696  15.326  72.602  0.00  0.00    +0.039 NA
ATOM     10  S   UNL     1     -12.544  14.808  71.191  0.00  0.00    +0.094 S 
ATOM     11  O   UNL     1     -13.795  15.610  71.076  0.00  0.00    -0.150 OA
ATOM     12  O   UNL     1     -12.793  13.339  71.298  0.00  0.00    -0.150 OA
ENDBRANCH   1  10
BRANCH   3  13
ATOM     13  S   UNL     1     -11.689  13.125  66.262  0.00  0.00    +0.094 S 
ATOM     14  O   UNL     1     -10.508  12.945  65.351  0.00  0.00    -0.150 OA
ATOM     15  O   UNL     1     -12.092  11.824  66.859  0.00  0.00    -0.150 OA
ATOM     16  N   UNL     1     -12.958  13.813  65.296  0.00  0.00    +0.039 NA
ENDBRANCH   3  13
TORSDOF 2
ENDMDL
MODEL 6
REMARK VINA RESULT:      -5.6      5.082      6.705
REMARK  Name = 
REMARK  2 active torsions:
REMARK  status: ('A' for Active; 'I' for Inactive)
REMARK    1  A    between atoms: S_2  and  C_5
REMARK    2  A    between atoms: C_11  and  S_12
REMARK                            x       y       z     vdW  Elec       q    Type
REMARK                         _______ _______ _______ _____ _____    ______ ____
ROOT
ATOM      1  C   UNL     1     -10.455  14.079  65.142  0.00  0.00    +0.127 A 
ATOM      2  C   UNL     1     -10.383  15.464  65.117  0.00  0.00    +0.041 A 
ATOM      3  C   UNL     1      -9.861  16.221  66.134  0.00  0.00    +0.138 A 
ATOM      4  C   UNL     1      -9.147  15.584  67.135  0.00  0.00    +0.087 A 
ATOM      5 CL   UNL     1      -8.159  16.534  68.231  0.00  0.00    -0.080 Cl
ATOM      6  C   UNL     1      -9.014  14.203  67.074  0.00  0.00    +0.071 A 
ATOM      7 CL   UNL     1      -8.356  13.389  68.479  0.00  0.00    -0.081 Cl
ATOM      8  C   UNL     1      -9.749  13.457  66.165  0.00  0.00    +0.032 A 
ENDROOT
BRANCH   1  10
ATOM      9  N   UNL     1     -11.264  12.161  63.239  0.00  0.00    +0.039 NA
ATOM     10  S   UNL     1     -11.846  13.290  64.407  0.00  0.00    +0.094 S 
ATOM     11  O   UNL     1     -12.656  12.546  65.413  0.00  0.00    -0.150 OA
ATOM     12  O   UNL     1     -12.620  14.354  63.697  0.00  0.00    -0.150 OA
ENDBRANCH   1  10
BRANCH   3  13
ATOM     13  S   UNL     1     -10.183  17.947  66.251  0.00  0.00    +0.094 S 
ATOM     14  O   UNL     1     -11.028  18.373  65.084  0.00  0.00    -0.150 OA
ATOM     15  O   UNL     1     -10.840  18.315  67.533  0.00  0.00    -0.150 OA
ATOM     16  N   UNL     1      -8.646  18.735  66.062  0.00  0.00    +0.039 NA
ENDBRANCH   3  13
TORSDOF 2
ENDMDL
MODEL 7
REMARK VINA RESULT:      -5.5      4.916      5.209
REMARK  Name = 
REMARK  2 active torsions:
REMARK  status: ('A' for Active; 'I' for Inactive)
REMARK    1  A    between atoms: S_2  and  C_5
REMARK    2  A    between atoms: C_11  and  S_12
REMARK                            x       y       z     vdW  Elec       q    Type
REMARK                         _______ _______ _______ _____ _____    ______ ____
ROOT
ATOM      1  C   UNL     1     -10.294  15.420  67.634  0.00  0.00    +0.127 A 
ATOM      2  C   UNL     1     -11.191  14.986  66.669  0.00  0.00    +0.041 A 
ATOM      3  C   UNL     1     -11.172  13.731  66.116  0.00  0.00    +0.138 A 
ATOM      4  C   UNL     1     -10.384  12.759  66.708  0.00  0.00    +0.087 A 
ATOM      5 CL   UNL     1     -10.616  11.074  66.271  0.00  0.00    -0.080 Cl
ATOM      6  C   UNL     1      -9.629  13.107  67.819  0.00  0.00    +0.071 A 
ATOM      7 CL   UNL     1      -8.435  11.955  68.383  0.00  0.00    -0.081 Cl
ATOM      8  C   UNL     1      -9.496  14.433  68.202  0.00  0.00    +0.032 A 
ENDROOT
BRANCH   1  10
ATOM      9  N   UNL     1      -9.162  17.430  66.010  0.00  0.00    +0.039 NA
ATOM     10  S   UNL     1      -9.755  17.095  67.596  0.00  0.00    +0.094 S 
ATOM     11  O   UNL     1     -10.869  18.041  67.889  0.00  0.00    -0.150 OA
ATOM     12  O   UNL     1      -8.620  17.205  68.562  0.00  0.00    -0.150 OA
ENDBRANCH   1  10
BRANCH   3  13
ATOM     13  S   UNL     1     -12.026  13.376  64.618  0.00  0.00    +0.094 S 
ATOM     14  O   UNL     1     -11.059  12.800  63.623  0.00  0.00    -0.150 OA
ATOM     15  O   UNL     1     -13.174  12.455  64.826  0.00  0.00    -0.150 OA
ATOM     16  N   UNL     1     -12.535  14.910  63.982  0.00  0.00    +0.039 NA
ENDBRANCH   3  13
TORSDOF 2
ENDMDL
MODEL 8
REMARK VINA RESULT:      -5.5      4.738      5.356
REMARK  Name = 
REMARK  2 active torsions:
REMARK  status: ('A' for Active; 'I' for Inactive)
REMARK    1  A    between atoms: S_2  and  C_5
REMARK    2  A    between atoms: C_11  and  S_12
REMARK                            x       y       z     vdW  Elec       q    Type
REMARK                         _______ _______ _______ _____ _____    ______ ____
ROOT
ATOM      1  C   UNL     1      -9.968  16.421  66.982  0.00  0.00    +0.127 A 
ATOM      2  C   UNL     1     -10.885  15.419  66.700  0.00  0.00    +0.041 A 
ATOM      3  C   UNL     1     -10.546  14.104  66.507  0.00  0.00    +0.138 A 
ATOM      4  C   UNL     1      -9.268  13.694  66.845  0.00  0.00    +0.087 A 
ATOM      5 CL   UNL     1      -8.915  11.978  66.969  0.00  0.00    -0.080 Cl
ATOM      6  C   UNL     1      -8.380  14.639  67.340  0.00  0.00    +0.071 A 
ATOM      7 CL   UNL     1      -6.699  14.170  67.497  0.00  0.00    -0.081 Cl
ATOM      8  C   UNL     1      -8.684  15.992  67.299  0.00  0.00    +0.032 A 
ENDROOT
BRANCH   1  10
ATOM      9  N   UNL     1      -8.694  18.761  66.057  0.00  0.00    +0.039 NA
ATOM     10  S   UNL     1     -10.235  18.026  66.311  0.00  0.00    +0.094 S 
ATOM     11  O   UNL     1     -10.945  17.967  65.001  0.00  0.00    -0.150 OA
ATOM     12  O   UNL     1     -10.972  18.810  67.347  0.00  0.00    -0.150 OA
ENDBRANCH   1  10
BRANCH   3  13
ATOM     13  S   UNL     1     -11.654  12.975  65.735  0.00  0.00    +0.094 S 
ATOM     14  O   UNL     1     -11.007  12.411  64.502  0.00  0.00    -0.150 OA
ATOM     15  O   UNL     1     -12.077  11.882  66.651  0.00  0.00    -0.150 OA
ATOM     16  N   UNL     1     -13.005  13.924  65.195  0.00  0.00    +0.039 NA
ENDBRANCH   3  13
TORSDOF 2
ENDMDL
MODEL 9
REMARK VINA RESULT:      -5.5      2.922      3.429
REMARK  Name = 
REMARK  2 active torsions:
REMARK  status: ('A' for Active; 'I' for Inactive)
REMARK    1  A    between atoms: S_2  and  C_5
REMARK    2  A    between atoms: C_11  and  S_12
REMARK                            x       y       z     vdW  Elec       q    Type
REMARK                         _______ _______ _______ _____ _____    ______ ____
ROOT
ATOM      1  C   UNL     1     -12.824  14.461  70.718  0.00  0.00    +0.127 A 
ATOM      2  C   UNL     1     -12.310  15.226  69.681  0.00  0.00    +0.041 A 
ATOM      3  C   UNL     1     -11.373  14.774  68.789  0.00  0.00    +0.138 A 
ATOM      4  C   UNL     1     -11.092  13.419  68.753  0.00  0.00    +0.087 A 
ATOM      5 CL   UNL     1     -10.196  12.758  67.396  0.00  0.00    -0.080 Cl
ATOM      6  C   UNL     1     -11.756  12.584  69.641  0.00  0.00    +0.071 A 
ATOM      7 CL   UNL     1     -11.192  10.930  69.775  0.00  0.00    -0.081 Cl
ATOM      8  C   UNL     1     -12.515  13.106  70.677  0.00  0.00    +0.032 A 
ENDROOT
BRANCH   1  10
ATOM      9  N   UNL     1     -11.954  16.399  72.573  0.00  0.00    +0.039 NA
ATOM     10  S   UNL     1     -13.198  15.248  72.247  0.00  0.00    +0.094 S 
ATOM     11  O   UNL     1     -14.501  15.970  72.194  0.00  0.00    -0.150 OA
ATOM     12  O   UNL     1     -13.153  14.188  73.300  0.00  0.00    -0.150 OA
ENDBRANCH   1  10
BRANCH   3  13
ATOM     13  S   UNL     1     -10.447  15.888  67.788  0.00  0.00    +0.094 S 
ATOM     14  O   UNL     1      -8.983  15.703  68.067  0.00  0.00    -0.150 OA
ATOM     15  O   UNL     1     -10.730  15.716  66.339  0.00  0.00    -0.150 OA
ATOM     16  N   UNL     1     -10.858  17.483  68.341  0.00  0.00    +0.039 NA
ENDBRANCH   3  13
TORSDOF 2
ENDMDL
