MODEL 1
REMARK VINA RESULT:      -6.4      0.000      0.000
REMARK  Name = 
REMARK  10 active torsions:
REMARK  status: ('A' for Active; 'I' for Inactive)
REMARK    1  A    between atoms: O_2  and  C_3
REMARK    2  A    between atoms: C_5  and  C_6
REMARK    3  A    between atoms: N_8  and  C_9
REMARK    4  A    between atoms: C_9  and  C_10
REMARK    5  A    between atoms: C_13  and  O_14
REMARK    6  A    between atoms: O_14  and  C_15
REMARK    7  A    between atoms: C_15  and  C_16
REMARK    8  A    between atoms: C_16  and  N_17
REMARK    9  A    between atoms: C_23  and  O_24
REMARK   10  A    between atoms: C_26  and  O_27
REMARK                            x       y       z     vdW  Elec       q    Type
REMARK                         _______ _______ _______ _____ _____    ______ ____
ROOT
ATOM      1  C   UNL     1     -10.993  11.058  67.963  0.00  0.00    +0.265 C 
ATOM      2  N   UNL     1     -12.038  11.761  67.285  0.00  0.00    -0.197 NA
ATOM      3  O   UNL     1     -10.272  10.326  67.229  0.00  0.00    -0.268 OA
ENDROOT
BRANCH   1   8
ATOM      4  C   UNL     1     -11.482   8.897  70.979  0.00  0.00    +0.176 A 
ATOM      5  C   UNL     1     -12.600   9.573  71.451  0.00  0.00    +0.206 A 
ATOM      6  C   UNL     1     -12.735  10.932  71.192  0.00  0.00    +0.176 A 
ATOM      7  C   UNL     1     -11.916  11.487  70.222  0.00  0.00    +0.045 A 
ATOM      8  C   UNL     1     -11.275  10.642  69.343  0.00  0.00    +0.061 A 
ATOM      9  C   UNL     1     -10.908   9.398  69.822  0.00  0.00    +0.045 A 
BRANCH   6  10
ATOM     10  O   UNL     1     -13.437  11.692  72.104  0.00  0.00    -0.468 OA
ATOM     11  C   UNL     1     -13.509  13.094  72.097  0.00  0.00    +0.253 C 
ENDBRANCH   6  10
BRANCH   4  13
ATOM     12  C   UNL     1     -11.505   6.625  70.112  0.00  0.00    +0.253 C 
ATOM     13  O   UNL     1     -11.450   7.517  71.207  0.00  0.00    -0.468 OA
ENDBRANCH   4  13
BRANCH   5  14
ATOM     14  O   UNL     1     -13.285   9.025  72.526  0.00  0.00    -0.465 OA
ATOM     15  C   UNL     1     -14.497   8.359  72.239  0.00  0.00    +0.253 C 
ENDBRANCH   5  14
ENDBRANCH   1   8
BRANCH   2  16
ATOM     16  C   UNL     1     -11.611  12.602  66.169  0.00  0.00    +0.142 C 
BRANCH  16  17
ATOM     17  C   UNL     1     -10.806  13.736  66.720  0.00  0.00    -0.000 A 
ATOM     18  C   UNL     1      -9.639  14.103  66.060  0.00  0.00    +0.001 A 
ATOM     19  C   UNL     1      -9.221  15.427  66.001  0.00  0.00    +0.037 A 
ATOM     20  C   UNL     1     -10.053  16.440  66.460  0.00  0.00    +0.139 A 
ATOM     21  C   UNL     1     -10.988  16.051  67.412  0.00  0.00    +0.037 A 
ATOM     22  C   UNL     1     -11.397  14.726  67.493  0.00  0.00    +0.001 A 
BRANCH  20  23
ATOM     23  O   UNL     1     -10.174  17.644  65.759  0.00  0.00    -0.474 OA
BRANCH  23  24
ATOM     24  C   UNL     1     -10.326  18.891  66.394  0.00  0.00    +0.223 C 
BRANCH  24  25
ATOM     25  C   UNL     1      -8.990  19.611  66.443  0.00  0.00    +0.120 C 
BRANCH  25  26
ATOM     26  N   UNL     1      -8.563  19.617  67.837  0.00  0.00    -0.267 NA
ATOM     27  C   UNL     1      -7.521  18.638  68.081  0.00  0.00    +0.090 C 
ATOM     28  C   UNL     1      -9.689  19.419  68.720  0.00  0.00    +0.090 C 
ENDBRANCH  25  26
ENDBRANCH  24  25
ENDBRANCH  23  24
ENDBRANCH  20  23
ENDBRANCH  16  17
ENDBRANCH   2  16
TORSDOF 10
ENDMDL
MODEL 2
REMARK VINA RESULT:      -6.2      2.067      4.540
REMARK  Name = 
REMARK  10 active torsions:
REMARK  status: ('A' for Active; 'I' for Inactive)
REMARK    1  A    between atoms: O_2  and  C_3
REMARK    2  A    between atoms: C_5  and  C_6
REMARK    3  A    between atoms: N_8  and  C_9
REMARK    4  A    between atoms: C_9  and  C_10
REMARK    5  A    between atoms: C_13  and  O_14
REMARK    6  A    between atoms: O_14  and  C_15
REMARK    7  A    between atoms: C_15  and  C_16
REMARK    8  A    between atoms: C_16  and  N_17
REMARK    9  A    between atoms: C_23  and  O_24
REMARK   10  A    between atoms: C_26  and  O_27
REMARK                            x       y       z     vdW  Elec       q    Type
REMARK                         _______ _______ _______ _____ _____    ______ ____
ROOT
ATOM      1  C   UNL     1     -12.404  13.987  70.524  0.00  0.00    +0.265 C 
ATOM      2  N   UNL     1     -11.191  14.729  70.678  0.00  0.00    -0.197 NA
ATOM      3  O   UNL     1     -13.400  14.449  71.147  0.00  0.00    -0.268 OA
ENDROOT
BRANCH   1   8
ATOM      4  C   UNL     1     -12.519  10.317  71.241  0.00  0.00    +0.176 A 
ATOM      5  C   UNL     1     -11.285  10.028  70.672  0.00  0.00    +0.206 A 
ATOM      6  C   UNL     1     -10.825  10.801  69.613  0.00  0.00    +0.176 A 
ATOM      7  C   UNL     1     -11.464  12.006  69.370  0.00  0.00    +0.045 A 
ATOM      8  C   UNL     1     -12.264  12.535  70.359  0.00  0.00    +0.061 A 
ATOM      9  C   UNL     1     -12.928  11.639  71.176  0.00  0.00    +0.045 A 
BRANCH   6  10
ATOM     10  O   UNL     1      -9.987  10.201  68.697  0.00  0.00    -0.468 OA
ATOM     11  C   UNL     1     -10.339   9.868  67.380  0.00  0.00    +0.253 C 
ENDBRANCH   6  10
BRANCH   4  13
ATOM     12  C   UNL     1     -14.056   8.763  72.308  0.00  0.00    +0.253 C 
ATOM     13  O   UNL     1     -12.883   9.550  72.353  0.00  0.00    -0.468 OA
ENDBRANCH   4  13
BRANCH   5  14
ATOM     14  O   UNL     1     -10.778   8.746  70.836  0.00  0.00    -0.465 OA
ATOM     15  C   UNL     1      -9.679   8.602  71.712  0.00  0.00    +0.253 C 
ENDBRANCH   5  14
ENDBRANCH   1   8
BRANCH   2  16
ATOM     16  C   UNL     1     -11.269  16.146  70.327  0.00  0.00    +0.142 C 
BRANCH  16  17
ATOM     17  C   UNL     1     -10.323  16.398  69.196  0.00  0.00    -0.000 A 
ATOM     18  C   UNL     1      -9.690  15.310  68.606  0.00  0.00    +0.001 A 
ATOM     19  C   UNL     1      -9.400  15.284  67.247  0.00  0.00    +0.037 A 
ATOM     20  C   UNL     1      -9.890  16.281  66.413  0.00  0.00    +0.139 A 
ATOM     21  C   UNL     1     -10.171  17.490  67.038  0.00  0.00    +0.037 A 
ATOM     22  C   UNL     1     -10.441  17.528  68.400  0.00  0.00    +0.001 A 
BRANCH  20  23
ATOM     23  O   UNL     1     -10.394  15.974  65.145  0.00  0.00    -0.474 OA
BRANCH  23  24
ATOM     24  C   UNL     1     -10.727  14.665  64.747  0.00  0.00    +0.223 C 
BRANCH  24  25
ATOM     25  C   UNL     1     -12.205  14.593  64.400  0.00  0.00    +0.120 C 
BRANCH  25  26
ATOM     26  N   UNL     1     -12.615  13.207  64.584  0.00  0.00    -0.267 NA
ATOM     27  C   UNL     1     -12.068  12.645  65.804  0.00  0.00    +0.090 C 
ATOM     28  C   UNL     1     -12.262  12.409  63.433  0.00  0.00    +0.090 C 
ENDBRANCH  25  26
ENDBRANCH  24  25
ENDBRANCH  23  24
ENDBRANCH  20  23
ENDBRANCH  16  17
ENDBRANCH   2  16
TORSDOF 10
ENDMDL
MODEL 3
REMARK VINA RESULT:      -6.1      2.759      3.898
REMARK  Name = 
REMARK  10 active torsions:
REMARK  status: ('A' for Active; 'I' for Inactive)
REMARK    1  A    between atoms: O_2  and  C_3
REMARK    2  A    between atoms: C_5  and  C_6
REMARK    3  A    between atoms: N_8  and  C_9
REMARK    4  A    between atoms: C_9  and  C_10
REMARK    5  A    between atoms: C_13  and  O_14
REMARK    6  A    between atoms: O_14  and  C_15
REMARK    7  A    between atoms: C_15  and  C_16
REMARK    8  A    between atoms: C_16  and  N_17
REMARK    9  A    between atoms: C_23  and  O_24
REMARK   10  A    between atoms: C_26  and  O_27
REMARK                            x       y       z     vdW  Elec       q    Type
REMARK                         _______ _______ _______ _____ _____    ______ ____
ROOT
ATOM      1  C   UNL     1     -10.822  10.187  68.196  0.00  0.00    +0.265 C 
ATOM      2  N   UNL     1     -11.755  11.192  67.790  0.00  0.00    -0.197 NA
ATOM      3  O   UNL     1     -10.646   9.249  67.369  0.00  0.00    -0.268 OA
ENDROOT
BRANCH   1   8
ATOM      4  C   UNL     1      -9.597   8.937  71.504  0.00  0.00    +0.176 A 
ATOM      5  C   UNL     1     -10.838   8.502  71.953  0.00  0.00    +0.206 A 
ATOM      6  C   UNL     1     -11.986   9.154  71.521  0.00  0.00    +0.176 A 
ATOM      7  C   UNL     1     -11.873  10.004  70.432  0.00  0.00    +0.045 A 
ATOM      8  C   UNL     1     -10.754   9.904  69.635  0.00  0.00    +0.061 A 
ATOM      9  C   UNL     1      -9.574   9.534  70.253  0.00  0.00    +0.045 A 
BRANCH   6  10
ATOM     10  O   UNL     1     -13.076   9.161  72.365  0.00  0.00    -0.468 OA
ATOM     11  C   UNL     1     -14.267   8.449  72.149  0.00  0.00    +0.253 C 
ENDBRANCH   6  10
BRANCH   4  13
ATOM     12  C   UNL     1      -7.220   8.447  71.355  0.00  0.00    +0.253 C 
ATOM     13  O   UNL     1      -8.491   8.186  71.915  0.00  0.00    -0.468 OA
ENDBRANCH   4  13
BRANCH   5  14
ATOM     14  O   UNL     1     -10.883   7.778  73.136  0.00  0.00    -0.465 OA
ATOM     15  C   UNL     1     -11.008   6.376  73.022  0.00  0.00    +0.253 C 
ENDBRANCH   5  14
ENDBRANCH   1   8
BRANCH   2  16
ATOM     16  C   UNL     1     -11.475  11.831  66.505  0.00  0.00    +0.142 C 
BRANCH  16  17
ATOM     17  C   UNL     1     -11.025  13.232  66.770  0.00  0.00    -0.000 A 
ATOM     18  C   UNL     1     -11.971  14.168  67.171  0.00  0.00    +0.001 A 
ATOM     19  C   UNL     1     -11.658  15.186  68.063  0.00  0.00    +0.037 A 
ATOM     20  C   UNL     1     -10.427  15.191  68.708  0.00  0.00    +0.139 A 
ATOM     21  C   UNL     1      -9.410  14.513  68.046  0.00  0.00    +0.037 A 
ATOM     22  C   UNL     1      -9.715  13.507  67.137  0.00  0.00    +0.001 A 
BRANCH  20  23
ATOM     23  O   UNL     1     -10.325  15.530  70.060  0.00  0.00    -0.474 OA
BRANCH  23  24
ATOM     24  C   UNL     1     -11.395  16.070  70.800  0.00  0.00    +0.223 C 
BRANCH  24  25
ATOM     25  C   UNL     1     -11.716  15.166  71.977  0.00  0.00    +0.120 C 
BRANCH  25  26
ATOM     26  N   UNL     1     -12.731  15.847  72.770  0.00  0.00    -0.267 NA
ATOM     27  C   UNL     1     -12.528  15.638  74.191  0.00  0.00    +0.090 C 
ATOM     28  C   UNL     1     -14.058  15.443  72.363  0.00  0.00    +0.090 C 
ENDBRANCH  25  26
ENDBRANCH  24  25
ENDBRANCH  23  24
ENDBRANCH  20  23
ENDBRANCH  16  17
ENDBRANCH   2  16
TORSDOF 10
ENDMDL
MODEL 4
REMARK VINA RESULT:      -6.0      3.271      5.904
REMARK  Name = 
REMARK  10 active torsions:
REMARK  status: ('A' for Active; 'I' for Inactive)
REMARK    1  A    between atoms: O_2  and  C_3
REMARK    2  A    between atoms: C_5  and  C_6
REMARK    3  A    between atoms: N_8  and  C_9
REMARK    4  A    between atoms: C_9  and  C_10
REMARK    5  A    between atoms: C_13  and  O_14
REMARK    6  A    between atoms: O_14  and  C_15
REMARK    7  A    between atoms: C_15  and  C_16
REMARK    8  A    between atoms: C_16  and  N_17
REMARK    9  A    between atoms: C_23  and  O_24
REMARK   10  A    between atoms: C_26  and  O_27
REMARK                            x       y       z     vdW  Elec       q    Type
REMARK                         _______ _______ _______ _____ _____    ______ ____
ROOT
ATOM      1  C   UNL     1     -10.606  16.829  65.458  0.00  0.00    +0.265 C 
ATOM      2  N   UNL     1     -10.604  17.856  66.453  0.00  0.00    -0.197 NA
ATOM      3  O   UNL     1     -11.232  17.108  64.398  0.00  0.00    -0.268 OA
ENDROOT
BRANCH   1   8
ATOM      4  C   UNL     1     -10.788  13.092  65.514  0.00  0.00    +0.176 A 
ATOM      5  C   UNL     1     -11.523  13.009  66.690  0.00  0.00    +0.206 A 
ATOM      6  C   UNL     1     -11.372  13.993  67.660  0.00  0.00    +0.176 A 
ATOM      7  C   UNL     1     -10.735  15.167  67.292  0.00  0.00    +0.045 A 
ATOM      8  C   UNL     1     -10.597  15.445  65.949  0.00  0.00    +0.061 A 
ATOM      9  C   UNL     1     -10.444  14.368  65.097  0.00  0.00    +0.045 A 
BRANCH   6  10
ATOM     10  O   UNL     1     -11.579  13.635  68.975  0.00  0.00    -0.468 OA
ATOM     11  C   UNL     1     -12.320  14.380  69.906  0.00  0.00    +0.253 C 
ENDBRANCH   6  10
BRANCH   4  13
ATOM     12  C   UNL     1     -11.888  12.415  63.454  0.00  0.00    +0.253 C 
ATOM     13  O   UNL     1     -11.049  12.112  64.550  0.00  0.00    -0.468 OA
ENDBRANCH   4  13
BRANCH   5  14
ATOM     14  O   UNL     1     -12.004  11.763  67.069  0.00  0.00    -0.465 OA
ATOM     15  C   UNL     1     -11.048  10.806  67.474  0.00  0.00    +0.253 C 
ENDBRANCH   5  14
ENDBRANCH   1   8
BRANCH   2  16
ATOM     16  C   UNL     1     -10.103  19.158  66.016  0.00  0.00    +0.142 C 
BRANCH  16  17
ATOM     17  C   UNL     1      -9.261  19.725  67.115  0.00  0.00    -0.000 A 
ATOM     18  C   UNL     1      -9.385  19.187  68.391  0.00  0.00    +0.001 A 
ATOM     19  C   UNL     1      -8.298  19.090  69.250  0.00  0.00    +0.037 A 
ATOM     20  C   UNL     1      -7.019  19.377  68.789  0.00  0.00    +0.139 A 
ATOM     21  C   UNL     1      -6.964  20.234  67.696  0.00  0.00    +0.037 A 
ATOM     22  C   UNL     1      -8.054  20.353  66.843  0.00  0.00    +0.001 A 
BRANCH  20  23
ATOM     23  O   UNL     1      -5.926  18.588  69.160  0.00  0.00    -0.474 OA
BRANCH  23  24
ATOM     24  C   UNL     1      -6.051  17.247  69.572  0.00  0.00    +0.223 C 
BRANCH  24  25
ATOM     25  C   UNL     1      -5.691  16.320  68.425  0.00  0.00    +0.120 C 
BRANCH  25  26
ATOM     26  N   UNL     1      -6.941  15.936  67.782  0.00  0.00    -0.267 NA
ATOM     27  C   UNL     1      -7.035  14.498  67.612  0.00  0.00    +0.090 C 
ATOM     28  C   UNL     1      -7.105  16.626  66.523  0.00  0.00    +0.090 C 
ENDBRANCH  25  26
ENDBRANCH  24  25
ENDBRANCH  23  24
ENDBRANCH  20  23
ENDBRANCH  16  17
ENDBRANCH   2  16
TORSDOF 10
ENDMDL
MODEL 5
REMARK VINA RESULT:      -6.0      1.639      2.760
REMARK  Name = 
REMARK  10 active torsions:
REMARK  status: ('A' for Active; 'I' for Inactive)
REMARK    1  A    between atoms: O_2  and  C_3
REMARK    2  A    between atoms: C_5  and  C_6
REMARK    3  A    between atoms: N_8  and  C_9
REMARK    4  A    between atoms: C_9  and  C_10
REMARK    5  A    between atoms: C_13  and  O_14
REMARK    6  A    between atoms: O_14  and  C_15
REMARK    7  A    between atoms: C_15  and  C_16
REMARK    8  A    between atoms: C_16  and  N_17
REMARK    9  A    between atoms: C_23  and  O_24
REMARK   10  A    between atoms: C_26  and  O_27
REMARK                            x       y       z     vdW  Elec       q    Type
REMARK                         _______ _______ _______ _____ _____    ______ ____
ROOT
ATOM      1  C   UNL     1     -11.403  11.721  67.695  0.00  0.00    +0.265 C 
ATOM      2  N   UNL     1     -12.132  12.332  66.627  0.00  0.00    -0.197 NA
ATOM      3  O   UNL     1     -11.142  10.495  67.537  0.00  0.00    -0.268 OA
ENDROOT
BRANCH   1   8
ATOM      4  C   UNL     1     -12.579  11.908  71.242  0.00  0.00    +0.176 A 
ATOM      5  C   UNL     1     -13.049  13.213  71.161  0.00  0.00    +0.206 A 
ATOM      6  C   UNL     1     -12.439  14.105  70.287  0.00  0.00    +0.176 A 
ATOM      7  C   UNL     1     -11.597  13.582  69.318  0.00  0.00    +0.045 A 
ATOM      8  C   UNL     1     -11.669  12.234  69.044  0.00  0.00    +0.061 A 
ATOM      9  C   UNL     1     -11.994  11.397  70.095  0.00  0.00    +0.045 A 
BRANCH   6  10
ATOM     10  O   UNL     1     -12.459  15.443  70.618  0.00  0.00    -0.468 OA
ATOM     11  C   UNL     1     -11.563  16.069  71.498  0.00  0.00    +0.253 C 
ENDBRANCH   6  10
BRANCH   4  13
ATOM     12  C   UNL     1     -13.232   9.650  71.863  0.00  0.00    +0.253 C 
ATOM     13  O   UNL     1     -13.290  11.045  72.082  0.00  0.00    -0.468 OA
ENDBRANCH   4  13
BRANCH   5  14
ATOM     14  O   UNL     1     -13.762  13.715  72.240  0.00  0.00    -0.465 OA
ATOM     15  C   UNL     1     -14.939  14.440  71.947  0.00  0.00    +0.253 C 
ENDBRANCH   5  14
ENDBRANCH   1   8
BRANCH   2  16
ATOM     16  C   UNL     1     -11.528  12.213  65.301  0.00  0.00    +0.142 C 
BRANCH  16  17
ATOM     17  C   UNL     1     -10.808  13.490  65.002  0.00  0.00    -0.000 A 
ATOM     18  C   UNL     1     -11.532  14.549  64.466  0.00  0.00    +0.001 A 
ATOM     19  C   UNL     1     -11.234  15.869  64.782  0.00  0.00    +0.037 A 
ATOM     20  C   UNL     1     -10.307  16.154  65.778  0.00  0.00    +0.139 A 
ATOM     21  C   UNL     1      -9.369  15.156  66.014  0.00  0.00    +0.037 A 
ATOM     22  C   UNL     1      -9.650  13.837  65.682  0.00  0.00    +0.001 A 
BRANCH  20  23
ATOM     23  O   UNL     1     -10.531  17.184  66.695  0.00  0.00    -0.474 OA
BRANCH  23  24
ATOM     24  C   UNL     1     -10.328  18.544  66.389  0.00  0.00    +0.223 C 
BRANCH  24  25
ATOM     25  C   UNL     1     -10.100  19.332  67.668  0.00  0.00    +0.120 C 
BRANCH  25  26
ATOM     26  N   UNL     1      -8.687  19.684  67.702  0.00  0.00    -0.267 NA
ATOM     27  C   UNL     1      -8.118  19.746  66.369  0.00  0.00    +0.090 C 
ATOM     28  C   UNL     1      -7.950  18.772  68.546  0.00  0.00    +0.090 C 
ENDBRANCH  25  26
ENDBRANCH  24  25
ENDBRANCH  23  24
ENDBRANCH  20  23
ENDBRANCH  16  17
ENDBRANCH   2  16
TORSDOF 10
ENDMDL
MODEL 6
REMARK VINA RESULT:      -6.0      3.575      8.946
REMARK  Name = 
REMARK  10 active torsions:
REMARK  status: ('A' for Active; 'I' for Inactive)
REMARK    1  A    between atoms: O_2  and  C_3
REMARK    2  A    between atoms: C_5  and  C_6
REMARK    3  A    between atoms: N_8  and  C_9
REMARK    4  A    between atoms: C_9  and  C_10
REMARK    5  A    between atoms: C_13  and  O_14
REMARK    6  A    between atoms: O_14  and  C_15
REMARK    7  A    between atoms: C_15  and  C_16
REMARK    8  A    between atoms: C_16  and  N_17
REMARK    9  A    between atoms: C_23  and  O_24
REMARK   10  A    between atoms: C_26  and  O_27
REMARK                            x       y       z     vdW  Elec       q    Type
REMARK                         _______ _______ _______ _____ _____    ______ ____
ROOT
ATOM      1  C   UNL     1      -9.773  17.954  66.395  0.00  0.00    +0.265 C 
ATOM      2  N   UNL     1      -9.409  16.701  65.809  0.00  0.00    -0.197 NA
ATOM      3  O   UNL     1     -10.489  18.700  65.669  0.00  0.00    -0.268 OA
ENDROOT
BRANCH   1   8
ATOM      4  C   UNL     1      -7.173  20.270  67.765  0.00  0.00    +0.176 A 
ATOM      5  C   UNL     1      -6.390  19.273  68.336  0.00  0.00    +0.206 A 
ATOM      6  C   UNL     1      -6.995  18.108  68.790  0.00  0.00    +0.176 A 
ATOM      7  C   UNL     1      -8.295  17.855  68.381  0.00  0.00    +0.045 A 
ATOM      8  C   UNL     1      -8.792  18.558  67.305  0.00  0.00    +0.061 A 
ATOM      9  C   UNL     1      -8.331  19.850  67.132  0.00  0.00    +0.045 A 
BRANCH   6  10
ATOM     10  O   UNL     1      -6.399  17.443  69.840  0.00  0.00    -0.468 OA
ATOM     11  C   UNL     1      -5.866  16.146  69.774  0.00  0.00    +0.253 C 
ENDBRANCH   6  10
BRANCH   4  13
ATOM     12  C   UNL     1      -5.877  21.305  65.986  0.00  0.00    +0.253 C 
ATOM     13  O   UNL     1      -6.489  21.380  67.258  0.00  0.00    -0.468 OA
ENDBRANCH   4  13
BRANCH   5  14
ATOM     14  O   UNL     1      -5.157  19.636  68.859  0.00  0.00    -0.465 OA
ATOM     15  C   UNL     1      -4.013  19.103  68.224  0.00  0.00    +0.253 C 
ENDBRANCH   5  14
ENDBRANCH   1   8
BRANCH   2  16
ATOM     16  C   UNL     1     -10.522  15.872  65.349  0.00  0.00    +0.142 C 
BRANCH  16  17
ATOM     17  C   UNL     1     -10.506  14.597  66.129  0.00  0.00    -0.000 A 
ATOM     18  C   UNL     1      -9.557  14.446  67.133  0.00  0.00    +0.001 A 
ATOM     19  C   UNL     1      -9.833  13.740  68.298  0.00  0.00    +0.037 A 
ATOM     20  C   UNL     1     -11.129  13.310  68.559  0.00  0.00    +0.139 A 
ATOM     21  C   UNL     1     -11.931  13.138  67.438  0.00  0.00    +0.037 A 
ATOM     22  C   UNL     1     -11.650  13.823  66.262  0.00  0.00    +0.001 A 
BRANCH  20  23
ATOM     23  O   UNL     1     -11.671  13.400  69.845  0.00  0.00    -0.474 OA
BRANCH  23  24
ATOM     24  C   UNL     1     -12.673  14.327  70.193  0.00  0.00    +0.223 C 
BRANCH  24  25
ATOM     25  C   UNL     1     -12.129  15.316  71.209  0.00  0.00    +0.120 C 
BRANCH  25  26
ATOM     26  N   UNL     1     -13.273  15.847  71.938  0.00  0.00    -0.267 NA
ATOM     27  C   UNL     1     -13.011  15.923  73.363  0.00  0.00    +0.090 C 
ATOM     28  C   UNL     1     -14.462  15.074  71.662  0.00  0.00    +0.090 C 
ENDBRANCH  25  26
ENDBRANCH  24  25
ENDBRANCH  23  24
ENDBRANCH  20  23
ENDBRANCH  16  17
ENDBRANCH   2  16
TORSDOF 10
ENDMDL
MODEL 7
REMARK VINA RESULT:      -6.0      1.743      2.507
REMARK  Name = 
REMARK  10 active torsions:
REMARK  status: ('A' for Active; 'I' for Inactive)
REMARK    1  A    between atoms: O_2  and  C_3
REMARK    2  A    between atoms: C_5  and  C_6
REMARK    3  A    between atoms: N_8  and  C_9
REMARK    4  A    between atoms: C_9  and  C_10
REMARK    5  A    between atoms: C_13  and  O_14
REMARK    6  A    between atoms: O_14  and  C_15
REMARK    7  A    between atoms: C_15  and  C_16
REMARK    8  A    between atoms: C_16  and  N_17
REMARK    9  A    between atoms: C_23  and  O_24
REMARK   10  A    between atoms: C_26  and  O_27
REMARK                            x       y       z     vdW  Elec       q    Type
REMARK                         _______ _______ _______ _____ _____    ______ ____
ROOT
ATOM      1  C   UNL     1     -11.022  10.905  67.810  0.00  0.00    +0.265 C 
ATOM      2  N   UNL     1     -11.938  11.823  67.208  0.00  0.00    -0.197 NA
ATOM      3  O   UNL     1     -10.550  10.028  67.034  0.00  0.00    -0.268 OA
ENDROOT
BRANCH   1   8
ATOM      4  C   UNL     1     -11.377   8.925  70.965  0.00  0.00    +0.176 A 
ATOM      5  C   UNL     1     -12.517   9.583  71.411  0.00  0.00    +0.206 A 
ATOM      6  C   UNL     1     -12.713  10.915  71.069  0.00  0.00    +0.176 A 
ATOM      7  C   UNL     1     -11.931  11.441  70.052  0.00  0.00    +0.045 A 
ATOM      8  C   UNL     1     -11.267  10.568  69.218  0.00  0.00    +0.061 A 
ATOM      9  C   UNL     1     -10.841   9.374  69.769  0.00  0.00    +0.045 A 
BRANCH   6  10
ATOM     10  O   UNL     1     -13.434  11.703  71.941  0.00  0.00    -0.468 OA
ATOM     11  C   UNL     1     -13.332  13.100  72.037  0.00  0.00    +0.253 C 
ENDBRANCH   6  10
BRANCH   4  13
ATOM     12  C   UNL     1     -11.617   6.596  70.307  0.00  0.00    +0.253 C 
ATOM     13  O   UNL     1     -11.284   7.565  71.280  0.00  0.00    -0.468 OA
ENDBRANCH   4  13
BRANCH   5  14
ATOM     14  O   UNL     1     -13.163   9.078  72.531  0.00  0.00    -0.465 OA
ATOM     15  C   UNL     1     -14.400   8.429  72.316  0.00  0.00    +0.253 C 
ENDBRANCH   5  14
ENDBRANCH   1   8
BRANCH   2  16
ATOM     16  C   UNL     1     -11.435  12.543  66.040  0.00  0.00    +0.142 C 
BRANCH  16  17
ATOM     17  C   UNL     1     -11.558  14.010  66.308  0.00  0.00    -0.000 A 
ATOM     18  C   UNL     1     -11.736  14.431  67.621  0.00  0.00    +0.001 A 
ATOM     19  C   UNL     1     -11.192  15.623  68.084  0.00  0.00    +0.037 A 
ATOM     20  C   UNL     1     -10.312  16.343  67.284  0.00  0.00    +0.139 A 
ATOM     21  C   UNL     1     -10.443  16.126  65.918  0.00  0.00    +0.037 A 
ATOM     22  C   UNL     1     -11.004  14.946  65.446  0.00  0.00    +0.001 A 
BRANCH  20  23
ATOM     23  O   UNL     1      -9.171  16.940  67.828  0.00  0.00    -0.474 OA
BRANCH  23  24
ATOM     24  C   UNL     1      -8.313  16.279  68.729  0.00  0.00    +0.223 C 
BRANCH  24  25
ATOM     25  C   UNL     1      -7.401  15.330  67.970  0.00  0.00    +0.120 C 
BRANCH  25  26
ATOM     26  N   UNL     1      -7.681  13.988  68.465  0.00  0.00    -0.267 NA
ATOM     27  C   UNL     1      -6.584  13.474  69.263  0.00  0.00    +0.090 C 
ATOM     28  C   UNL     1      -8.002  13.095  67.375  0.00  0.00    +0.090 C 
ENDBRANCH  25  26
ENDBRANCH  24  25
ENDBRANCH  23  24
ENDBRANCH  20  23
ENDBRANCH  16  17
ENDBRANCH   2  16
TORSDOF 10
ENDMDL
MODEL 8
REMARK VINA RESULT:      -5.8      2.858      5.258
REMARK  Name = 
REMARK  10 active torsions:
REMARK  status: ('A' for Active; 'I' for Inactive)
REMARK    1  A    between atoms: O_2  and  C_3
REMARK    2  A    between atoms: C_5  and  C_6
REMARK    3  A    between atoms: N_8  and  C_9
REMARK    4  A    between atoms: C_9  and  C_10
REMARK    5  A    between atoms: C_13  and  O_14
REMARK    6  A    between atoms: O_14  and  C_15
REMARK    7  A    between atoms: C_15  and  C_16
REMARK    8  A    between atoms: C_16  and  N_17
REMARK    9  A    between atoms: C_23  and  O_24
REMARK   10  A    between atoms: C_26  and  O_27
REMARK                            x       y       z     vdW  Elec       q    Type
REMARK                         _______ _______ _______ _____ _____    ______ ____
ROOT
ATOM      1  C   UNL     1     -12.053  12.789  69.999  0.00  0.00    +0.265 C 
ATOM      2  N   UNL     1     -11.269  13.343  68.938  0.00  0.00    -0.197 NA
ATOM      3  O   UNL     1     -12.193  13.533  71.009  0.00  0.00    -0.268 OA
ENDROOT
BRANCH   1   8
ATOM      4  C   UNL     1     -12.716   9.341  71.292  0.00  0.00    +0.176 A 
ATOM      5  C   UNL     1     -11.384   8.945  71.313  0.00  0.00    +0.206 A 
ATOM      6  C   UNL     1     -10.497   9.487  70.390  0.00  0.00    +0.176 A 
ATOM      7  C   UNL     1     -10.901  10.617  69.696  0.00  0.00    +0.045 A 
ATOM      8  C   UNL     1     -11.974  11.334  70.178  0.00  0.00    +0.061 A 
ATOM      9  C   UNL     1     -12.966  10.622  70.826  0.00  0.00    +0.045 A 
BRANCH   6  10
ATOM     10  O   UNL     1      -9.423   8.715  70.002  0.00  0.00    -0.468 OA
ATOM     11  C   UNL     1      -8.075   9.045  70.216  0.00  0.00    +0.253 C 
ENDBRANCH   6  10
BRANCH   4  13
ATOM     12  C   UNL     1     -14.678   8.064  71.950  0.00  0.00    +0.253 C 
ATOM     13  O   UNL     1     -13.533   8.816  72.299  0.00  0.00    -0.468 OA
ENDBRANCH   4  13
BRANCH   5  14
ATOM     14  O   UNL     1     -11.078   7.725  71.899  0.00  0.00    -0.465 OA
ATOM     15  C   UNL     1     -10.344   7.763  73.105  0.00  0.00    +0.253 C 
ENDBRANCH   5  14
ENDBRANCH   1   8
BRANCH   2  16
ATOM     16  C   UNL     1     -11.719  14.637  68.430  0.00  0.00    +0.142 C 
BRANCH  16  17
ATOM     17  C   UNL     1     -11.702  14.582  66.935  0.00  0.00    -0.000 A 
ATOM     18  C   UNL     1     -10.531  14.930  66.272  0.00  0.00    +0.001 A 
ATOM     19  C   UNL     1     -10.148  14.304  65.092  0.00  0.00    +0.037 A 
ATOM     20  C   UNL     1     -10.847  13.193  64.635  0.00  0.00    +0.139 A 
ATOM     21  C   UNL     1     -12.164  13.104  65.071  0.00  0.00    +0.037 A 
ATOM     22  C   UNL     1     -12.561  13.743  66.239  0.00  0.00    +0.001 A 
BRANCH  20  23
ATOM     23  O   UNL     1     -10.175  12.093  64.095  0.00  0.00    -0.474 OA
BRANCH  23  24
ATOM     24  C   UNL     1     -10.382  10.772  64.538  0.00  0.00    +0.223 C 
BRANCH  24  25
ATOM     25  C   UNL     1      -9.638  10.544  65.843  0.00  0.00    +0.120 C 
BRANCH  25  26
ATOM     26  N   UNL     1      -9.316   9.124  65.904  0.00  0.00    -0.267 NA
ATOM     27  C   UNL     1     -10.308   8.384  66.661  0.00  0.00    +0.090 C 
ATOM     28  C   UNL     1      -7.989   8.920  66.436  0.00  0.00    +0.090 C 
ENDBRANCH  25  26
ENDBRANCH  24  25
ENDBRANCH  23  24
ENDBRANCH  20  23
ENDBRANCH  16  17
ENDBRANCH   2  16
TORSDOF 10
ENDMDL
MODEL 9
REMARK VINA RESULT:      -5.7      3.187      6.001
REMARK  Name = 
REMARK  10 active torsions:
REMARK  status: ('A' for Active; 'I' for Inactive)
REMARK    1  A    between atoms: O_2  and  C_3
REMARK    2  A    between atoms: C_5  and  C_6
REMARK    3  A    between atoms: N_8  and  C_9
REMARK    4  A    between atoms: C_9  and  C_10
REMARK    5  A    between atoms: C_13  and  O_14
REMARK    6  A    between atoms: O_14  and  C_15
REMARK    7  A    between atoms: C_15  and  C_16
REMARK    8  A    between atoms: C_16  and  N_17
REMARK    9  A    between atoms: C_23  and  O_24
REMARK   10  A    between atoms: C_26  and  O_27
REMARK                            x       y       z     vdW  Elec       q    Type
REMARK                         _______ _______ _______ _____ _____    ______ ____
ROOT
ATOM      1  C   UNL     1     -10.472  16.658  65.564  0.00  0.00    +0.265 C 
ATOM      2  N   UNL     1     -10.487  17.633  66.610  0.00  0.00    -0.197 NA
ATOM      3  O   UNL     1     -11.068  16.996  64.504  0.00  0.00    -0.268 OA
ENDROOT
BRANCH   1   8
ATOM      4  C   UNL     1     -10.891  12.941  65.470  0.00  0.00    +0.176 A 
ATOM      5  C   UNL     1     -11.466  12.836  66.731  0.00  0.00    +0.206 A 
ATOM      6  C   UNL     1     -11.121  13.754  67.716  0.00  0.00    +0.176 A 
ATOM      7  C   UNL     1     -10.463  14.908  67.318  0.00  0.00    +0.045 A 
ATOM      8  C   UNL     1     -10.489  15.251  65.985  0.00  0.00    +0.061 A 
ATOM      9  C   UNL     1     -10.523  14.215  65.070  0.00  0.00    +0.045 A 
BRANCH   6  10
ATOM     10  O   UNL     1     -11.172  13.337  69.029  0.00  0.00    -0.468 OA
ATOM     11  C   UNL     1     -12.129  13.751  69.969  0.00  0.00    +0.253 C 
ENDBRANCH   6  10
BRANCH   4  13
ATOM     12  C   UNL     1     -12.197  12.478  63.472  0.00  0.00    +0.253 C 
ATOM     13  O   UNL     1     -11.344  12.033  64.507  0.00  0.00    -0.468 OA
ENDBRANCH   4  13
BRANCH   5  14
ATOM     14  O   UNL     1     -11.973  11.603  67.114  0.00  0.00    -0.465 OA
ATOM     15  C   UNL     1     -11.032  10.593  67.420  0.00  0.00    +0.253 C 
ENDBRANCH   5  14
ENDBRANCH   1   8
BRANCH   2  16
ATOM     16  C   UNL     1      -9.962  18.950  66.253  0.00  0.00    +0.142 C 
BRANCH  16  17
ATOM     17  C   UNL     1      -9.010  19.378  67.324  0.00  0.00    -0.000 A 
ATOM     18  C   UNL     1      -8.550  18.422  68.223  0.00  0.00    +0.001 A 
ATOM     19  C   UNL     1      -7.262  18.471  68.744  0.00  0.00    +0.037 A 
ATOM     20  C   UNL     1      -6.346  19.389  68.246  0.00  0.00    +0.139 A 
ATOM     21  C   UNL     1      -6.901  20.522  67.663  0.00  0.00    +0.037 A 
ATOM     22  C   UNL     1      -8.194  20.488  67.158  0.00  0.00    +0.001 A 
BRANCH  20  23
ATOM     23  O   UNL     1      -5.013  19.028  68.027  0.00  0.00    -0.474 OA
BRANCH  23  24
ATOM     24  C   UNL     1      -4.143  19.764  67.200  0.00  0.00    +0.223 C 
BRANCH  24  25
ATOM     25  C   UNL     1      -3.940  19.033  65.885  0.00  0.00    +0.120 C 
BRANCH  25  26
ATOM     26  N   UNL     1      -4.667  19.781  64.867  0.00  0.00    -0.267 NA
ATOM     27  C   UNL     1      -5.822  19.046  64.386  0.00  0.00    +0.090 C 
ATOM     28  C   UNL     1      -3.792  20.156  63.781  0.00  0.00    +0.090 C 
ENDBRANCH  25  26
ENDBRANCH  24  25
ENDBRANCH  23  24
ENDBRANCH  20  23
ENDBRANCH  16  17
ENDBRANCH   2  16
TORSDOF 10
ENDMDL
