MODEL 1
REMARK VINA RESULT:      -6.1      0.000      0.000
REMARK  Name = 
REMARK  0 active torsions:
REMARK  status: ('A' for Active; 'I' for Inactive)
REMARK                            x       y       z     vdW  Elec       q    Type
REMARK                         _______ _______ _______ _____ _____    ______ ____
ROOT
ATOM      1  C   UNL     1     -12.512  12.299  63.657  0.00  0.00    +0.119 A 
ATOM      2  N   UNL     1     -12.905  12.692  64.855  0.00  0.00    -0.241 NA
ATOM      3  C   UNL     1     -11.982  13.238  65.646  0.00  0.00    +0.099 A 
ATOM      4  C   UNL     1     -10.639  13.125  65.299  0.00  0.00    +0.099 A 
ATOM      5  C   UNL     1      -9.789  14.084  65.843  0.00  0.00    +0.016 A 
ATOM      6  C   UNL     1     -10.307  14.860  66.870  0.00  0.00    -0.023 A 
ATOM      7  C   UNL     1      -9.530  15.999  67.681  0.00  0.00    +0.040 C 
ATOM      8  C   UNL     1     -10.860  16.875  68.020  0.00  0.00    +0.093 C 
ATOM      9  N   UNL     1     -11.728  16.464  68.908  0.00  0.00    -0.217 NA
ATOM     10  C   UNL     1     -11.656  15.445  69.822  0.00  0.00    +0.093 C 
ATOM     11  C   UNL     1     -10.801  14.236  69.108  0.00  0.00    +0.040 C 
ATOM     12  C   UNL     1      -9.464  15.136  69.040  0.00  0.00    +0.012 C 
ATOM     13  C   UNL     1     -11.346  14.509  67.618  0.00  0.00    -0.023 A 
ATOM     14  N   UNL     1     -10.281  12.472  64.199  0.00  0.00    -0.241 NA
ATOM     15  C   UNL     1     -12.209  13.622  66.966  0.00  0.00    +0.016 A 
ATOM     16  C   UNL     1     -11.250  11.842  63.507  0.00  0.00    +0.119 A 
ENDROOT
TORSDOF 0
ENDMDL
MODEL 2
REMARK VINA RESULT:      -5.9      1.845      5.253
REMARK  Name = 
REMARK  0 active torsions:
REMARK  status: ('A' for Active; 'I' for Inactive)
REMARK                            x       y       z     vdW  Elec       q    Type
REMARK                         _______ _______ _______ _____ _____    ______ ____
ROOT
ATOM      1  C   UNL     1     -10.122  19.696  67.005  0.00  0.00    +0.119 A 
ATOM      2  N   UNL     1      -9.944  18.750  66.101  0.00  0.00    -0.241 NA
ATOM      3  C   UNL     1     -10.198  17.497  66.478  0.00  0.00    +0.099 A 
ATOM      4  C   UNL     1     -10.368  17.218  67.831  0.00  0.00    +0.099 A 
ATOM      5  C   UNL     1     -11.092  16.066  68.125  0.00  0.00    +0.016 A 
ATOM      6  C   UNL     1     -11.319  15.190  67.074  0.00  0.00    -0.023 A 
ATOM      7  C   UNL     1     -12.088  13.790  67.156  0.00  0.00    +0.040 C 
ATOM      8  C   UNL     1     -12.613  13.816  65.614  0.00  0.00    +0.093 C 
ATOM      9  N   UNL     1     -11.789  13.608  64.620  0.00  0.00    -0.217 NA
ATOM     10  C   UNL     1     -10.495  13.156  64.611  0.00  0.00    +0.093 C 
ATOM     11  C   UNL     1      -9.779  13.765  65.961  0.00  0.00    +0.040 C 
ATOM     12  C   UNL     1     -10.749  12.920  66.934  0.00  0.00    +0.012 C 
ATOM     13  C   UNL     1     -10.591  15.154  65.963  0.00  0.00    -0.023 A 
ATOM     14  N   UNL     1     -10.268  18.185  68.736  0.00  0.00    -0.241 NA
ATOM     15  C   UNL     1      -9.977  16.378  65.678  0.00  0.00    +0.016 A 
ATOM     16  C   UNL     1      -9.892  19.404  68.302  0.00  0.00    +0.119 A 
ENDROOT
TORSDOF 0
ENDMDL
MODEL 3
REMARK VINA RESULT:      -5.9      1.724      5.089
REMARK  Name = 
REMARK  0 active torsions:
REMARK  status: ('A' for Active; 'I' for Inactive)
REMARK                            x       y       z     vdW  Elec       q    Type
REMARK                         _______ _______ _______ _____ _____    ______ ____
ROOT
ATOM      1  C   UNL     1     -13.148  15.436  71.427  0.00  0.00    +0.119 A 
ATOM      2  N   UNL     1     -12.594  15.936  70.337  0.00  0.00    -0.241 NA
ATOM      3  C   UNL     1     -12.122  15.067  69.444  0.00  0.00    +0.099 A 
ATOM      4  C   UNL     1     -11.988  13.729  69.805  0.00  0.00    +0.099 A 
ATOM      5  C   UNL     1     -11.975  12.816  68.754  0.00  0.00    +0.016 A 
ATOM      6  C   UNL     1     -11.815  13.340  67.480  0.00  0.00    -0.023 A 
ATOM      7  C   UNL     1     -11.732  12.507  66.117  0.00  0.00    +0.040 C 
ATOM      8  C   UNL     1     -12.343  13.691  65.180  0.00  0.00    +0.093 C 
ATOM      9  N   UNL     1     -11.633  14.750  64.887  0.00  0.00    -0.217 NA
ATOM     10  C   UNL     1     -10.301  15.012  65.074  0.00  0.00    +0.093 C 
ATOM     11  C   UNL     1      -9.877  14.289  66.489  0.00  0.00    +0.040 C 
ATOM     12  C   UNL     1     -10.166  12.817  65.897  0.00  0.00    +0.012 C 
ATOM     13  C   UNL     1     -11.288  14.532  67.224  0.00  0.00    -0.023 A 
ATOM     14  N   UNL     1     -12.317  13.326  71.027  0.00  0.00    -0.241 NA
ATOM     15  C   UNL     1     -11.431  15.427  68.289  0.00  0.00    +0.016 A 
ATOM     16  C   UNL     1     -12.674  14.271  71.918  0.00  0.00    +0.119 A 
ENDROOT
TORSDOF 0
ENDMDL
MODEL 4
REMARK VINA RESULT:      -5.8      1.019      2.438
REMARK  Name = 
REMARK  0 active torsions:
REMARK  status: ('A' for Active; 'I' for Inactive)
REMARK                            x       y       z     vdW  Elec       q    Type
REMARK                         _______ _______ _______ _____ _____    ______ ____
ROOT
ATOM      1  C   UNL     1     -11.253  11.853  63.570  0.00  0.00    +0.119 A 
ATOM      2  N   UNL     1     -10.388  12.792  63.910  0.00  0.00    -0.241 NA
ATOM      3  C   UNL     1     -10.709  13.562  64.949  0.00  0.00    +0.099 A 
ATOM      4  C   UNL     1     -12.010  13.529  65.442  0.00  0.00    +0.099 A 
ATOM      5  C   UNL     1     -12.168  13.937  66.763  0.00  0.00    +0.016 A 
ATOM      6  C   UNL     1     -11.088  14.583  67.346  0.00  0.00    -0.023 A 
ATOM      7  C   UNL     1     -11.028  15.178  68.830  0.00  0.00    +0.040 C 
ATOM      8  C   UNL     1      -9.419  14.992  69.001  0.00  0.00    +0.093 C 
ATOM      9  N   UNL     1      -8.581  15.772  68.369  0.00  0.00    -0.217 NA
ATOM     10  C   UNL     1      -8.795  16.931  67.670  0.00  0.00    +0.093 C 
ATOM     11  C   UNL     1     -10.252  16.766  66.924  0.00  0.00    +0.040 C 
ATOM     12  C   UNL     1     -11.036  16.710  68.333  0.00  0.00    +0.012 C 
ATOM     13  C   UNL     1     -10.121  15.183  66.663  0.00  0.00    -0.023 A 
ATOM     14  N   UNL     1     -12.924  12.748  64.877  0.00  0.00    -0.241 NA
ATOM     15  C   UNL     1      -9.953  14.650  65.380  0.00  0.00    +0.016 A 
ATOM     16  C   UNL     1     -12.569  12.086  63.759  0.00  0.00    +0.119 A 
ENDROOT
TORSDOF 0
ENDMDL
MODEL 5
REMARK VINA RESULT:      -5.7      2.240      5.113
REMARK  Name = 
REMARK  0 active torsions:
REMARK  status: ('A' for Active; 'I' for Inactive)
REMARK                            x       y       z     vdW  Elec       q    Type
REMARK                         _______ _______ _______ _____ _____    ______ ____
ROOT
ATOM      1  C   UNL     1      -7.942  17.510  66.488  0.00  0.00    +0.119 A 
ATOM      2  N   UNL     1      -7.993  16.214  66.736  0.00  0.00    -0.241 NA
ATOM      3  C   UNL     1      -9.055  15.552  66.280  0.00  0.00    +0.099 A 
ATOM      4  C   UNL     1     -10.156  16.269  65.820  0.00  0.00    +0.099 A 
ATOM      5  C   UNL     1     -10.992  15.596  64.933  0.00  0.00    +0.016 A 
ATOM      6  C   UNL     1     -10.803  14.226  64.823  0.00  0.00    -0.023 A 
ATOM      7  C   UNL     1     -11.650  13.224  63.907  0.00  0.00    +0.040 C 
ATOM      8  C   UNL     1     -10.440  12.154  63.698  0.00  0.00    +0.093 C 
ATOM      9  N   UNL     1     -10.063  11.367  64.673  0.00  0.00    -0.217 NA
ATOM     10  C   UNL     1     -10.643  11.108  65.888  0.00  0.00    +0.093 C 
ATOM     11  C   UNL     1     -11.327  12.518  66.388  0.00  0.00    +0.040 C 
ATOM     12  C   UNL     1     -12.375  12.519  65.161  0.00  0.00    +0.012 C 
ATOM     13  C   UNL     1     -10.207  13.479  65.745  0.00  0.00    -0.023 A 
ATOM     14  N   UNL     1     -10.152  17.597  65.845  0.00  0.00    -0.241 NA
ATOM     15  C   UNL     1      -9.307  14.204  66.531  0.00  0.00    +0.016 A 
ATOM     16  C   UNL     1      -9.099  18.204  66.427  0.00  0.00    +0.119 A 
ENDROOT
TORSDOF 0
ENDMDL
MODEL 6
REMARK VINA RESULT:      -5.7      2.147      4.850
REMARK  Name = 
REMARK  0 active torsions:
REMARK  status: ('A' for Active; 'I' for Inactive)
REMARK                            x       y       z     vdW  Elec       q    Type
REMARK                         _______ _______ _______ _____ _____    ______ ____
ROOT
ATOM      1  C   UNL     1      -9.596  18.616  66.499  0.00  0.00    +0.119 A 
ATOM      2  N   UNL     1     -10.435  17.837  65.841  0.00  0.00    -0.241 NA
ATOM      3  C   UNL     1     -10.160  16.533  65.818  0.00  0.00    +0.099 A 
ATOM      4  C   UNL     1      -8.905  16.097  66.235  0.00  0.00    +0.099 A 
ATOM      5  C   UNL     1      -8.833  14.772  66.655  0.00  0.00    +0.016 A 
ATOM      6  C   UNL     1      -9.921  13.966  66.355  0.00  0.00    -0.023 A 
ATOM      7  C   UNL     1     -10.069  12.409  66.693  0.00  0.00    +0.040 C 
ATOM      8  C   UNL     1     -11.694  12.433  66.802  0.00  0.00    +0.093 C 
ATOM      9  N   UNL     1     -12.438  12.544  65.731  0.00  0.00    -0.217 NA
ATOM     10  C   UNL     1     -12.110  12.457  64.403  0.00  0.00    +0.093 C 
ATOM     11  C   UNL     1     -10.608  13.111  64.249  0.00  0.00    +0.040 C 
ATOM     12  C   UNL     1      -9.943  11.953  65.153  0.00  0.00    +0.012 C 
ATOM     13  C   UNL     1     -10.799  14.226  65.394  0.00  0.00    -0.023 A 
ATOM     14  N   UNL     1      -7.991  16.970  66.641  0.00  0.00    -0.241 NA
ATOM     15  C   UNL     1     -10.890  15.590  65.098  0.00  0.00    +0.016 A 
ATOM     16  C   UNL     1      -8.288  18.279  66.528  0.00  0.00    +0.119 A 
ENDROOT
TORSDOF 0
ENDMDL
MODEL 7
REMARK VINA RESULT:      -5.7      2.228      4.844
REMARK  Name = 
REMARK  0 active torsions:
REMARK  status: ('A' for Active; 'I' for Inactive)
REMARK                            x       y       z     vdW  Elec       q    Type
REMARK                         _______ _______ _______ _____ _____    ______ ____
ROOT
ATOM      1  C   UNL     1      -9.877  19.639  67.784  0.00  0.00    +0.119 A 
ATOM      2  N   UNL     1     -10.313  18.589  68.456  0.00  0.00    -0.241 NA
ATOM      3  C   UNL     1     -10.487  17.460  67.769  0.00  0.00    +0.099 A 
ATOM      4  C   UNL     1     -10.470  17.504  66.378  0.00  0.00    +0.099 A 
ATOM      5  C   UNL     1     -10.164  16.306  65.738  0.00  0.00    +0.016 A 
ATOM      6  C   UNL     1     -10.188  15.161  66.521  0.00  0.00    -0.023 A 
ATOM      7  C   UNL     1      -9.911  13.666  66.023  0.00  0.00    +0.040 C 
ATOM      8  C   UNL     1      -9.344  13.134  67.453  0.00  0.00    +0.093 C 
ATOM      9  N   UNL     1     -10.151  12.931  68.463  0.00  0.00    -0.217 NA
ATOM     10  C   UNL     1     -11.520  12.901  68.520  0.00  0.00    +0.093 C 
ATOM     11  C   UNL     1     -12.057  14.024  67.445  0.00  0.00    +0.040 C 
ATOM     12  C   UNL     1     -11.447  13.210  66.193  0.00  0.00    +0.012 C 
ATOM     13  C   UNL     1     -10.844  15.058  67.671  0.00  0.00    -0.023 A 
ATOM     14  N   UNL     1     -10.291  18.656  65.743  0.00  0.00    -0.241 NA
ATOM     15  C   UNL     1     -11.023  16.291  68.305  0.00  0.00    +0.016 A 
ATOM     16  C   UNL     1     -10.240  19.776  66.491  0.00  0.00    +0.119 A 
ENDROOT
TORSDOF 0
ENDMDL
MODEL 8
REMARK VINA RESULT:      -5.7      2.857      5.136
REMARK  Name = 
REMARK  0 active torsions:
REMARK  status: ('A' for Active; 'I' for Inactive)
REMARK                            x       y       z     vdW  Elec       q    Type
REMARK                         _______ _______ _______ _____ _____    ______ ____
ROOT
ATOM      1  C   UNL     1     -14.301  14.899  72.067  0.00  0.00    +0.119 A 
ATOM      2  N   UNL     1     -13.432  15.770  71.585  0.00  0.00    -0.241 NA
ATOM      3  C   UNL     1     -12.488  15.297  70.773  0.00  0.00    +0.099 A 
ATOM      4  C   UNL     1     -12.294  13.921  70.686  0.00  0.00    +0.099 A 
ATOM      5  C   UNL     1     -11.685  13.466  69.520  0.00  0.00    +0.016 A 
ATOM      6  C   UNL     1     -11.094  14.428  68.714  0.00  0.00    -0.023 A 
ATOM      7  C   UNL     1     -10.304  14.165  67.348  0.00  0.00    +0.040 C 
ATOM      8  C   UNL     1     -10.653  15.613  66.691  0.00  0.00    +0.093 C 
ATOM      9  N   UNL     1     -10.076  16.704  67.124  0.00  0.00    -0.217 NA
ATOM     10  C   UNL     1      -9.013  16.877  67.971  0.00  0.00    +0.093 C 
ATOM     11  C   UNL     1      -9.110  15.677  69.093  0.00  0.00    +0.040 C 
ATOM     12  C   UNL     1      -8.869  14.533  67.982  0.00  0.00    +0.012 C 
ATOM     13  C   UNL     1     -10.718  15.629  69.139  0.00  0.00    -0.023 A 
ATOM     14  N   UNL     1     -13.035  13.091  71.412  0.00  0.00    -0.241 NA
ATOM     15  C   UNL     1     -11.446  16.061  70.252  0.00  0.00    +0.016 A 
ATOM     16  C   UNL     1     -13.888  13.635  72.300  0.00  0.00    +0.119 A 
ENDROOT
TORSDOF 0
ENDMDL
MODEL 9
REMARK VINA RESULT:      -5.6      1.347      5.067
REMARK  Name = 
REMARK  0 active torsions:
REMARK  status: ('A' for Active; 'I' for Inactive)
REMARK                            x       y       z     vdW  Elec       q    Type
REMARK                         _______ _______ _______ _____ _____    ______ ____
ROOT
ATOM      1  C   UNL     1     -11.621  14.825  71.449  0.00  0.00    +0.119 A 
ATOM      2  N   UNL     1     -11.994  13.957  70.526  0.00  0.00    -0.241 NA
ATOM      3  C   UNL     1     -11.838  14.320  69.254  0.00  0.00    +0.099 A 
ATOM      4  C   UNL     1     -11.557  15.652  68.959  0.00  0.00    +0.099 A 
ATOM      5  C   UNL     1     -10.933  15.883  67.735  0.00  0.00    +0.016 A 
ATOM      6  C   UNL     1     -10.914  14.824  66.840  0.00  0.00    -0.023 A 
ATOM      7  C   UNL     1     -10.296  14.843  65.364  0.00  0.00    +0.040 C 
ATOM      8  C   UNL     1      -9.936  13.255  65.332  0.00  0.00    +0.093 C 
ATOM      9  N   UNL     1     -10.878  12.354  65.213  0.00  0.00    -0.217 NA
ATOM     10  C   UNL     1     -12.206  12.487  64.904  0.00  0.00    +0.093 C 
ATOM     11  C   UNL     1     -12.707  13.897  65.588  0.00  0.00    +0.040 C 
ATOM     12  C   UNL     1     -11.735  14.773  64.644  0.00  0.00    +0.012 C 
ATOM     13  C   UNL     1     -11.754  13.797  66.881  0.00  0.00    -0.023 A 
ATOM     14  N   UNL     1     -11.457  16.550  69.932  0.00  0.00    -0.241 NA
ATOM     15  C   UNL     1     -12.261  13.563  68.164  0.00  0.00    +0.016 A 
ATOM     16  C   UNL     1     -11.743  16.143  71.184  0.00  0.00    +0.119 A 
ENDROOT
TORSDOF 0
ENDMDL
