MODEL 1
REMARK VINA RESULT:      -7.0      0.000      0.000
REMARK  Name = 
REMARK  7 active torsions:
REMARK  status: ('A' for Active; 'I' for Inactive)
REMARK    1  A    between atoms: C_12  and  O_13
REMARK    2  A    between atoms: O_13  and  C_14
REMARK    3  A    between atoms: C_20  and  O_21
REMARK    4  A    between atoms: O_21  and  C_22
REMARK    5  A    between atoms: C_22  and  C_24
REMARK    6  A    between atoms: C_31  and  O_32
REMARK    7  A    between atoms: O_32  and  C_33
REMARK                            x       y       z     vdW  Elec       q    Type
REMARK                         _______ _______ _______ _____ _____    ______ ____
ROOT
ATOM      1  C   UNL     1     -12.605  16.136  69.100  0.00  0.00    -0.006 C 
ATOM      2  C   UNL     1     -11.685  15.913  68.780  0.00  0.00    -0.005 C 
ATOM      3  C   UNL     1     -11.658  14.302  68.768  0.00  0.00    +0.194 C 
ATOM      4  C   UNL     1     -10.079  14.105  68.164  0.00  0.00    +0.128 C 
ATOM      5  C   UNL     1     -10.271  13.396  66.782  0.00  0.00    +0.197 C 
ATOM      6  C   UNL     1      -9.215  12.286  66.779  0.00  0.00    +0.052 C 
ATOM      7  C   UNL     1      -8.434  12.508  68.169  0.00  0.00    +0.044 C 
ATOM      8  C   UNL     1      -8.280  10.931  68.486  0.00  0.00    +0.004 C 
ATOM      9  C   UNL     1      -9.823  14.284  65.672  0.00  0.00    +0.205 C 
ATOM     10  O   UNL     1      -9.839  13.762  64.513  0.00  0.00    -0.288 OA
ATOM     11  C   UNL     1     -10.054  15.745  65.607  0.00  0.00    +0.012 C 
ATOM     12  C   UNL     1     -11.046  16.266  64.588  0.00  0.00    +0.034 C 
ATOM     13  C   UNL     1      -9.559  16.306  66.610  0.00  0.00    -0.028 C 
ATOM     14  C   UNL     1      -8.410  17.430  66.589  0.00  0.00    +0.022 C 
ATOM     15  C   UNL     1      -9.327  18.652  67.363  0.00  0.00    +0.004 C 
ATOM     16  C   UNL     1      -8.568  19.905  66.982  0.00  0.00    +0.000 C 
ATOM     17  C   UNL     1     -10.672  18.615  67.394  0.00  0.00    +0.000 C 
ATOM     18  C   UNL     1      -8.296  17.674  68.295  0.00  0.00    +0.005 C 
ATOM     19  C   UNL     1      -9.254  16.457  68.782  0.00  0.00    +0.005 C 
ATOM     20  C   UNL     1      -9.862  12.686  69.086  0.00  0.00    +0.177 C 
ATOM     21  C   UNL     1     -10.534  16.701  69.220  0.00  0.00    +0.026 C 
ENDROOT
BRANCH   5  22
ATOM     22  O   UNL     1     -11.416  12.865  66.406  0.00  0.00    -0.448 OA
BRANCH  22  23
ATOM     23  C   UNL     1     -11.510  12.114  65.229  0.00  0.00    +0.318 C 
ATOM     24  O   UNL     1     -11.168  10.894  65.150  0.00  0.00    -0.250 OA
ATOM     25  C   UNL     1     -12.737  12.412  64.408  0.00  0.00    +0.121 C 
ENDBRANCH  22  23
ENDBRANCH   5  22
BRANCH   3  26
ATOM     26  O   UNL     1     -11.131  14.307  70.212  0.00  0.00    -0.448 OA
BRANCH  26  27
ATOM     27  C   UNL     1     -11.994  14.402  71.251  0.00  0.00    +0.318 C 
ATOM     28  O   UNL     1     -12.726  13.416  71.545  0.00  0.00    -0.250 OA
ATOM     29  C   UNL     1     -11.504  15.154  72.457  0.00  0.00    +0.121 C 
ENDBRANCH  26  27
ENDBRANCH   3  26
BRANCH  20  30
ATOM     30  O   UNL     1     -10.714  11.682  68.345  0.00  0.00    -0.449 OA
BRANCH  30  31
ATOM     31  C   UNL     1     -11.443  10.979  69.227  0.00  0.00    +0.341 C 
ATOM     32  O   UNL     1     -12.450  10.643  68.592  0.00  0.00    -0.245 OA
BRANCH  31  33
ATOM     33  C   UNL     1     -11.432  10.390  70.524  0.00  0.00    +0.076 A 
ATOM     34  C   UNL     1     -10.468   9.408  70.725  0.00  0.00    +0.006 A 
ATOM     35  C   UNL     1     -10.558   8.455  71.685  0.00  0.00    +0.000 A 
ATOM     36  C   UNL     1     -11.734   8.274  72.333  0.00  0.00    +0.000 A 
ATOM     37  C   UNL     1     -12.858   8.932  71.877  0.00  0.00    +0.000 A 
ATOM     38  C   UNL     1     -12.614  10.157  71.244  0.00  0.00    +0.006 A 
ENDBRANCH  31  33
ENDBRANCH  30  31
ENDBRANCH  20  30
TORSDOF 7
ENDMDL
MODEL 2
REMARK VINA RESULT:      -6.9      2.258      7.161
REMARK  Name = 
REMARK  7 active torsions:
REMARK  status: ('A' for Active; 'I' for Inactive)
REMARK    1  A    between atoms: C_12  and  O_13
REMARK    2  A    between atoms: O_13  and  C_14
REMARK    3  A    between atoms: C_20  and  O_21
REMARK    4  A    between atoms: O_21  and  C_22
REMARK    5  A    between atoms: C_22  and  C_24
REMARK    6  A    between atoms: C_31  and  O_32
REMARK    7  A    between atoms: O_32  and  C_33
REMARK                            x       y       z     vdW  Elec       q    Type
REMARK                         _______ _______ _______ _____ _____    ______ ____
ROOT
ATOM      1  C   UNL     1      -6.183  12.038  67.008  0.00  0.00    -0.006 C 
ATOM      2  C   UNL     1      -7.048  11.892  67.486  0.00  0.00    -0.005 C 
ATOM      3  C   UNL     1      -7.899  13.223  67.169  0.00  0.00    +0.194 C 
ATOM      4  C   UNL     1      -9.321  12.788  67.996  0.00  0.00    +0.128 C 
ATOM      5  C   UNL     1     -10.413  12.691  66.879  0.00  0.00    +0.197 C 
ATOM      6  C   UNL     1     -11.621  13.425  67.469  0.00  0.00    +0.052 C 
ATOM      7  C   UNL     1     -11.129  13.826  68.949  0.00  0.00    +0.044 C 
ATOM      8  C   UNL     1     -11.838  15.279  68.933  0.00  0.00    +0.004 C 
ATOM      9  C   UNL     1     -10.906  11.290  66.750  0.00  0.00    +0.205 C 
ATOM     10  O   UNL     1     -11.872  11.122  65.940  0.00  0.00    -0.288 OA
ATOM     11  C   UNL     1     -10.056  10.080  66.832  0.00  0.00    +0.012 C 
ATOM     12  C   UNL     1      -9.813   9.292  65.562  0.00  0.00    +0.034 C 
ATOM     13  C   UNL     1      -9.455  10.048  67.929  0.00  0.00    -0.028 C 
ATOM     14  C   UNL     1      -9.583   8.894  69.040  0.00  0.00    +0.022 C 
ATOM     15  C   UNL     1      -7.932   8.445  69.040  0.00  0.00    +0.004 C 
ATOM     16  C   UNL     1      -7.979   7.066  69.661  0.00  0.00    +0.000 C 
ATOM     17  C   UNL     1      -7.120   8.734  68.005  0.00  0.00    +0.000 C 
ATOM     18  C   UNL     1      -8.486   9.562  70.194  0.00  0.00    +0.005 C 
ATOM     19  C   UNL     1      -8.235  11.003  69.489  0.00  0.00    +0.005 C 
ATOM     20  C   UNL     1      -9.616  14.413  68.421  0.00  0.00    +0.177 C 
ATOM     21  C   UNL     1      -7.070  11.258  68.805  0.00  0.00    +0.026 C 
ENDROOT
BRANCH   5  22
ATOM     22  O   UNL     1     -10.224  13.143  65.656  0.00  0.00    -0.448 OA
BRANCH  22  23
ATOM     23  C   UNL     1     -11.303  13.339  64.786  0.00  0.00    +0.318 C 
ATOM     24  O   UNL     1     -11.871  14.462  64.622  0.00  0.00    -0.250 OA
ATOM     25  C   UNL     1     -11.202  12.562  63.500  0.00  0.00    +0.121 C 
ENDBRANCH  22  23
ENDBRANCH   5  22
BRANCH   3  26
ATOM     26  O   UNL     1      -7.332  13.879  68.438  0.00  0.00    -0.448 OA
BRANCH  26  27
ATOM     27  C   UNL     1      -6.377  14.834  68.343  0.00  0.00    +0.318 C 
ATOM     28  O   UNL     1      -6.157  15.386  67.228  0.00  0.00    -0.250 OA
ATOM     29  C   UNL     1      -6.264  15.782  69.503  0.00  0.00    +0.121 C 
ENDBRANCH  26  27
ENDBRANCH   3  26
BRANCH  20  30
ATOM     30  O   UNL     1     -10.070  15.016  67.112  0.00  0.00    -0.449 OA
BRANCH  30  31
ATOM     31  C   UNL     1      -9.535  16.240  66.975  0.00  0.00    +0.341 C 
ATOM     32  O   UNL     1      -9.029  16.227  65.845  0.00  0.00    -0.245 OA
BRANCH  31  33
ATOM     33  C   UNL     1      -9.446  17.533  67.564  0.00  0.00    +0.076 A 
ATOM     34  C   UNL     1     -10.562  18.346  67.390  0.00  0.00    +0.006 A 
ATOM     35  C   UNL     1     -10.526  19.698  67.479  0.00  0.00    +0.000 A 
ATOM     36  C   UNL     1      -9.329  20.330  67.496  0.00  0.00    +0.000 A 
ATOM     37  C   UNL     1      -8.184  19.604  67.236  0.00  0.00    +0.000 A 
ATOM     38  C   UNL     1      -8.242  18.254  67.599  0.00  0.00    +0.006 A 
ENDBRANCH  31  33
ENDBRANCH  30  31
ENDBRANCH  20  30
TORSDOF 7
ENDMDL
MODEL 3
REMARK VINA RESULT:      -6.7      2.205      4.380
REMARK  Name = 
REMARK  7 active torsions:
REMARK  status: ('A' for Active; 'I' for Inactive)
REMARK    1  A    between atoms: C_12  and  O_13
REMARK    2  A    between atoms: O_13  and  C_14
REMARK    3  A    between atoms: C_20  and  O_21
REMARK    4  A    between atoms: O_21  and  C_22
REMARK    5  A    between atoms: C_22  and  C_24
REMARK    6  A    between atoms: C_31  and  O_32
REMARK    7  A    between atoms: O_32  and  C_33
REMARK                            x       y       z     vdW  Elec       q    Type
REMARK                         _______ _______ _______ _____ _____    ______ ____
ROOT
ATOM      1  C   UNL     1      -5.938  16.118  69.606  0.00  0.00    -0.006 C 
ATOM      2  C   UNL     1      -6.507  16.259  68.797  0.00  0.00    -0.005 C 
ATOM      3  C   UNL     1      -7.550  15.032  68.836  0.00  0.00    +0.194 C 
ATOM      4  C   UNL     1      -8.447  15.452  67.451  0.00  0.00    +0.128 C 
ATOM      5  C   UNL     1      -9.886  15.752  67.990  0.00  0.00    +0.197 C 
ATOM      6  C   UNL     1     -10.813  15.029  67.009  0.00  0.00    +0.052 C 
ATOM      7  C   UNL     1      -9.801  14.422  65.914  0.00  0.00    +0.044 C 
ATOM      8  C   UNL     1     -10.604  13.029  65.750  0.00  0.00    +0.004 C 
ATOM      9  C   UNL     1     -10.235  17.186  67.782  0.00  0.00    +0.205 C 
ATOM     10  O   UNL     1     -11.424  17.511  68.090  0.00  0.00    -0.288 OA
ATOM     11  C   UNL     1      -9.302  18.322  67.966  0.00  0.00    +0.012 C 
ATOM     12  C   UNL     1      -9.522  19.241  69.148  0.00  0.00    +0.034 C 
ATOM     13  C   UNL     1      -8.302  18.183  67.227  0.00  0.00    -0.028 C 
ATOM     14  C   UNL     1      -7.834  19.200  66.073  0.00  0.00    +0.022 C 
ATOM     15  C   UNL     1      -6.292  19.542  66.734  0.00  0.00    +0.004 C 
ATOM     16  C   UNL     1      -5.930  20.836  66.038  0.00  0.00    +0.000 C 
ATOM     17  C   UNL     1      -6.017  19.330  68.035  0.00  0.00    +0.000 C 
ATOM     18  C   UNL     1      -6.437  18.330  65.552  0.00  0.00    +0.005 C 
ATOM     19  C   UNL     1      -6.657  16.972  66.414  0.00  0.00    +0.005 C 
ATOM     20  C   UNL     1      -8.714  13.809  67.079  0.00  0.00    +0.177 C 
ATOM     21  C   UNL     1      -5.913  16.729  67.545  0.00  0.00    +0.026 C 
ENDROOT
BRANCH   5  22
ATOM     22  O   UNL     1     -10.269  15.441  69.211  0.00  0.00    -0.448 OA
BRANCH  22  23
ATOM     23  C   UNL     1     -11.622  15.462  69.569  0.00  0.00    +0.318 C 
ATOM     24  O   UNL     1     -12.440  14.541  69.261  0.00  0.00    -0.250 OA
ATOM     25  C   UNL     1     -11.883  16.013  70.946  0.00  0.00    +0.121 C 
ENDBRANCH  22  23
ENDBRANCH   5  22
BRANCH   3  26
ATOM     26  O   UNL     1      -6.584  14.193  67.984  0.00  0.00    -0.448 OA
BRANCH  26  27
ATOM     27  C   UNL     1      -5.765  13.291  68.573  0.00  0.00    +0.318 C 
ATOM     28  O   UNL     1      -6.153  12.681  69.610  0.00  0.00    -0.250 OA
ATOM     29  C   UNL     1      -4.951  12.427  67.651  0.00  0.00    +0.121 C 
ENDBRANCH  26  27
ENDBRANCH   3  26
BRANCH  20  30
ATOM     30  O   UNL     1      -9.730  13.399  68.119  0.00  0.00    -0.449 OA
BRANCH  30  31
ATOM     31  C   UNL     1      -9.666  12.071  68.306  0.00  0.00    +0.341 C 
ATOM     32  O   UNL     1      -8.566  11.750  67.839  0.00  0.00    -0.245 OA
BRANCH  31  33
ATOM     33  C   UNL     1     -10.305  10.960  68.927  0.00  0.00    +0.076 A 
ATOM     34  C   UNL     1     -11.444  11.264  69.665  0.00  0.00    +0.006 A 
ATOM     35  C   UNL     1     -11.932  10.471  70.651  0.00  0.00    +0.000 A 
ATOM     36  C   UNL     1     -11.170   9.458  71.127  0.00  0.00    +0.000 A 
ATOM     37  C   UNL     1      -9.851   9.370  70.731  0.00  0.00    +0.000 A 
ATOM     38  C   UNL     1      -9.576   9.885  69.459  0.00  0.00    +0.006 A 
ENDBRANCH  31  33
ENDBRANCH  30  31
ENDBRANCH  20  30
TORSDOF 7
ENDMDL
MODEL 4
REMARK VINA RESULT:      -6.6      2.502      4.823
REMARK  Name = 
REMARK  7 active torsions:
REMARK  status: ('A' for Active; 'I' for Inactive)
REMARK    1  A    between atoms: C_12  and  O_13
REMARK    2  A    between atoms: O_13  and  C_14
REMARK    3  A    between atoms: C_20  and  O_21
REMARK    4  A    between atoms: O_21  and  C_22
REMARK    5  A    between atoms: C_22  and  C_24
REMARK    6  A    between atoms: C_31  and  O_32
REMARK    7  A    between atoms: O_32  and  C_33
REMARK                            x       y       z     vdW  Elec       q    Type
REMARK                         _______ _______ _______ _____ _____    ______ ____
ROOT
ATOM      1  C   UNL     1      -5.934  15.981  69.110  0.00  0.00    -0.006 C 
ATOM      2  C   UNL     1      -6.526  16.248  68.351  0.00  0.00    -0.005 C 
ATOM      3  C   UNL     1      -7.604  15.054  68.260  0.00  0.00    +0.194 C 
ATOM      4  C   UNL     1      -8.537  15.686  66.984  0.00  0.00    +0.128 C 
ATOM      5  C   UNL     1      -9.946  15.943  67.615  0.00  0.00    +0.197 C 
ATOM      6  C   UNL     1     -10.928  15.389  66.580  0.00  0.00    +0.052 C 
ATOM      7  C   UNL     1      -9.974  14.915  65.373  0.00  0.00    +0.044 C 
ATOM      8  C   UNL     1     -10.825  13.580  65.049  0.00  0.00    +0.004 C 
ATOM      9  C   UNL     1     -10.258  17.401  67.621  0.00  0.00    +0.205 C 
ATOM     10  O   UNL     1     -11.425  17.710  68.018  0.00  0.00    -0.288 OA
ATOM     11  C   UNL     1      -9.285  18.476  67.924  0.00  0.00    +0.012 C 
ATOM     12  C   UNL     1      -9.435  19.226  69.231  0.00  0.00    +0.034 C 
ATOM     13  C   UNL     1      -8.316  18.417  67.135  0.00  0.00    -0.028 C 
ATOM     14  C   UNL     1      -7.859  19.573  66.116  0.00  0.00    +0.022 C 
ATOM     15  C   UNL     1      -6.286  19.780  66.757  0.00  0.00    +0.004 C 
ATOM     16  C   UNL     1      -5.909  21.150  66.234  0.00  0.00    +0.000 C 
ATOM     17  C   UNL     1      -5.971  19.382  68.004  0.00  0.00    +0.000 C 
ATOM     18  C   UNL     1      -6.509  18.750  65.424  0.00  0.00    +0.005 C 
ATOM     19  C   UNL     1      -6.739  17.291  66.098  0.00  0.00    +0.005 C 
ATOM     20  C   UNL     1      -8.866  14.119  66.398  0.00  0.00    +0.177 C 
ATOM     21  C   UNL     1      -5.963  16.874  67.154  0.00  0.00    +0.026 C 
ENDROOT
BRANCH   5  22
ATOM     22  O   UNL     1     -10.295  15.474  68.795  0.00  0.00    -0.448 OA
BRANCH  22  23
ATOM     23  C   UNL     1     -11.643  15.329  69.143  0.00  0.00    +0.318 C 
ATOM     24  O   UNL     1     -12.349  14.332  68.799  0.00  0.00    -0.250 OA
ATOM     25  C   UNL     1     -11.970  15.802  70.535  0.00  0.00    +0.121 C 
ENDBRANCH  22  23
ENDBRANCH   5  22
BRANCH   3  26
ATOM     26  O   UNL     1      -6.695  14.319  67.262  0.00  0.00    -0.448 OA
BRANCH  26  27
ATOM     27  C   UNL     1      -6.076  13.170  67.625  0.00  0.00    +0.318 C 
ATOM     28  O   UNL     1      -4.876  12.975  67.284  0.00  0.00    -0.250 OA
ATOM     29  C   UNL     1      -6.391  12.649  68.999  0.00  0.00    +0.121 C 
ENDBRANCH  26  27
ENDBRANCH   3  26
BRANCH  20  30
ATOM     30  O   UNL     1      -9.857  13.593  67.410  0.00  0.00    -0.449 OA
BRANCH  30  31
ATOM     31  C   UNL     1      -9.677  12.271  67.565  0.00  0.00    +0.341 C 
ATOM     32  O   UNL     1      -9.802  12.086  68.782  0.00  0.00    -0.245 OA
BRANCH  31  33
ATOM     33  C   UNL     1      -9.531  11.037  66.869  0.00  0.00    +0.076 A 
ATOM     34  C   UNL     1     -10.538  10.103  67.095  0.00  0.00    +0.006 A 
ATOM     35  C   UNL     1     -10.382   8.771  66.896  0.00  0.00    +0.000 A 
ATOM     36  C   UNL     1      -9.139   8.269  66.704  0.00  0.00    +0.000 A 
ATOM     37  C   UNL     1      -8.047   9.091  66.899  0.00  0.00    +0.000 A 
ATOM     38  C   UNL     1      -8.275  10.449  66.651  0.00  0.00    +0.006 A 
ENDBRANCH  31  33
ENDBRANCH  30  31
ENDBRANCH  20  30
TORSDOF 7
ENDMDL
MODEL 5
REMARK VINA RESULT:      -6.4      2.213      7.125
REMARK  Name = 
REMARK  7 active torsions:
REMARK  status: ('A' for Active; 'I' for Inactive)
REMARK    1  A    between atoms: C_12  and  O_13
REMARK    2  A    between atoms: O_13  and  C_14
REMARK    3  A    between atoms: C_20  and  O_21
REMARK    4  A    between atoms: O_21  and  C_22
REMARK    5  A    between atoms: C_22  and  C_24
REMARK    6  A    between atoms: C_31  and  O_32
REMARK    7  A    between atoms: O_32  and  C_33
REMARK                            x       y       z     vdW  Elec       q    Type
REMARK                         _______ _______ _______ _____ _____    ______ ____
ROOT
ATOM      1  C   UNL     1      -6.558  12.128  66.979  0.00  0.00    -0.006 C 
ATOM      2  C   UNL     1      -7.474  11.970  67.346  0.00  0.00    -0.005 C 
ATOM      3  C   UNL     1      -8.149  13.433  67.350  0.00  0.00    +0.194 C 
ATOM      4  C   UNL     1      -9.679  12.976  67.941  0.00  0.00    +0.128 C 
ATOM      5  C   UNL     1     -10.668  13.311  66.775  0.00  0.00    +0.197 C 
ATOM      6  C   UNL     1     -11.842  14.008  67.467  0.00  0.00    +0.052 C 
ATOM      7  C   UNL     1     -11.450  13.943  69.027  0.00  0.00    +0.044 C 
ATOM      8  C   UNL     1     -12.001  15.425  69.363  0.00  0.00    +0.004 C 
ATOM      9  C   UNL     1     -11.289  12.066  66.241  0.00  0.00    +0.205 C 
ATOM     10  O   UNL     1     -12.188  12.236  65.359  0.00  0.00    -0.288 OA
ATOM     11  C   UNL     1     -10.579  10.781  66.043  0.00  0.00    +0.012 C 
ATOM     12  C   UNL     1     -10.303  10.329  64.625  0.00  0.00    +0.034 C 
ATOM     13  C   UNL     1     -10.088  10.388  67.125  0.00  0.00    -0.028 C 
ATOM     14  C   UNL     1     -10.436   9.008  67.872  0.00  0.00    +0.022 C 
ATOM     15  C   UNL     1      -8.846   8.373  67.850  0.00  0.00    +0.004 C 
ATOM     16  C   UNL     1      -9.092   6.896  68.070  0.00  0.00    +0.000 C 
ATOM     17  C   UNL     1      -7.917   8.821  66.984  0.00  0.00    +0.000 C 
ATOM     18  C   UNL     1      -9.386   9.209  69.228  0.00  0.00    +0.005 C 
ATOM     19  C   UNL     1      -8.924  10.742  68.957  0.00  0.00    +0.005 C 
ATOM     20  C   UNL     1      -9.843  14.456  68.772  0.00  0.00    +0.177 C 
ATOM     21  C   UNL     1      -7.682  11.020  68.440  0.00  0.00    +0.026 C 
ENDROOT
BRANCH   5  22
ATOM     22  O   UNL     1     -10.322  14.041  65.734  0.00  0.00    -0.448 OA
BRANCH  22  23
ATOM     23  C   UNL     1     -11.226  14.934  65.148  0.00  0.00    +0.318 C 
ATOM     24  O   UNL     1     -10.939  16.142  64.882  0.00  0.00    -0.250 OA
ATOM     25  C   UNL     1     -12.103  14.315  64.093  0.00  0.00    +0.121 C 
ENDBRANCH  22  23
ENDBRANCH   5  22
BRANCH   3  26
ATOM     26  O   UNL     1      -7.637  13.658  68.782  0.00  0.00    -0.448 OA
BRANCH  26  27
ATOM     27  C   UNL     1      -6.469  14.308  68.993  0.00  0.00    +0.318 C 
ATOM     28  O   UNL     1      -6.183  15.319  68.291  0.00  0.00    -0.250 OA
ATOM     29  C   UNL     1      -6.028  14.440  70.424  0.00  0.00    +0.121 C 
ENDBRANCH  26  27
ENDBRANCH   3  26
BRANCH  20  30
ATOM     30  O   UNL     1     -10.110  15.433  67.649  0.00  0.00    -0.449 OA
BRANCH  30  31
ATOM     31  C   UNL     1      -9.490  16.594  67.913  0.00  0.00    +0.341 C 
ATOM     32  O   UNL     1      -9.101  16.475  69.082  0.00  0.00    -0.245 OA
BRANCH  31  33
ATOM     33  C   UNL     1      -9.019  17.809  67.336  0.00  0.00    +0.076 A 
ATOM     34  C   UNL     1      -7.899  18.363  67.946  0.00  0.00    +0.006 A 
ATOM     35  C   UNL     1      -7.564  19.673  67.847  0.00  0.00    +0.000 A 
ATOM     36  C   UNL     1      -8.463  20.553  67.345  0.00  0.00    +0.000 A 
ATOM     37  C   UNL     1      -9.757  20.132  67.119  0.00  0.00    +0.000 A 
ATOM     38  C   UNL     1      -9.895  18.773  66.814  0.00  0.00    +0.006 A 
ENDBRANCH  31  33
ENDBRANCH  30  31
ENDBRANCH  20  30
TORSDOF 7
ENDMDL
MODEL 6
REMARK VINA RESULT:      -6.4      2.260      4.284
REMARK  Name = 
REMARK  7 active torsions:
REMARK  status: ('A' for Active; 'I' for Inactive)
REMARK    1  A    between atoms: C_12  and  O_13
REMARK    2  A    between atoms: O_13  and  C_14
REMARK    3  A    between atoms: C_20  and  O_21
REMARK    4  A    between atoms: O_21  and  C_22
REMARK    5  A    between atoms: C_22  and  C_24
REMARK    6  A    between atoms: C_31  and  O_32
REMARK    7  A    between atoms: O_32  and  C_33
REMARK                            x       y       z     vdW  Elec       q    Type
REMARK                         _______ _______ _______ _____ _____    ______ ____
ROOT
ATOM      1  C   UNL     1      -6.691  14.343  69.186  0.00  0.00    -0.006 C 
ATOM      2  C   UNL     1      -7.398  14.552  68.512  0.00  0.00    -0.005 C 
ATOM      3  C   UNL     1      -8.085  13.125  68.215  0.00  0.00    +0.194 C 
ATOM      4  C   UNL     1      -9.266  13.665  67.115  0.00  0.00    +0.128 C 
ATOM      5  C   UNL     1     -10.630  13.365  67.822  0.00  0.00    +0.197 C 
ATOM      6  C   UNL     1     -11.493  12.736  66.724  0.00  0.00    +0.052 C 
ATOM      7  C   UNL     1     -10.548  12.800  65.422  0.00  0.00    +0.044 C 
ATOM      8  C   UNL     1     -10.997  11.352  64.863  0.00  0.00    +0.004 C 
ATOM      9  C   UNL     1     -11.352  14.634  68.126  0.00  0.00    +0.205 C 
ATOM     10  O   UNL     1     -12.520  14.498  68.607  0.00  0.00    -0.288 OA
ATOM     11  C   UNL     1     -10.713  15.879  68.610  0.00  0.00    +0.012 C 
ATOM     12  C   UNL     1     -10.962  16.300  70.043  0.00  0.00    +0.034 C 
ATOM     13  C   UNL     1      -9.839  16.260  67.798  0.00  0.00    -0.028 C 
ATOM     14  C   UNL     1      -9.828  17.664  67.017  0.00  0.00    +0.022 C 
ATOM     15  C   UNL     1      -8.334  18.218  67.643  0.00  0.00    +0.004 C 
ATOM     16  C   UNL     1      -8.418  19.709  67.392  0.00  0.00    +0.000 C 
ATOM     17  C   UNL     1      -7.812  17.715  68.777  0.00  0.00    +0.000 C 
ATOM     18  C   UNL     1      -8.360  17.428  66.139  0.00  0.00    +0.005 C 
ATOM     19  C   UNL     1      -8.096  15.870  66.516  0.00  0.00    +0.005 C 
ATOM     20  C   UNL     1      -9.173  12.204  66.239  0.00  0.00    +0.177 C 
ATOM     21  C   UNL     1      -7.146  15.524  67.448  0.00  0.00    +0.026 C 
ENDROOT
BRANCH   5  22
ATOM     22  O   UNL     1     -10.725  12.607  68.895  0.00  0.00    -0.448 OA
BRANCH  22  23
ATOM     23  C   UNL     1     -11.934  11.987  69.235  0.00  0.00    +0.318 C 
ATOM     24  O   UNL     1     -12.310  10.877  68.747  0.00  0.00    -0.250 OA
ATOM     25  C   UNL     1     -12.304  12.122  70.688  0.00  0.00    +0.121 C 
ENDBRANCH  22  23
ENDBRANCH   5  22
BRANCH   3  26
ATOM     26  O   UNL     1      -7.089  12.892  67.067  0.00  0.00    -0.448 OA
BRANCH  26  27
ATOM     27  C   UNL     1      -6.064  12.022  67.223  0.00  0.00    +0.318 C 
ATOM     28  O   UNL     1      -4.885  12.394  66.961  0.00  0.00    -0.250 OA
ATOM     29  C   UNL     1      -6.142  11.105  68.411  0.00  0.00    +0.121 C 
ENDBRANCH  26  27
ENDBRANCH   3  26
BRANCH  20  30
ATOM     30  O   UNL     1      -9.878  11.230  67.153  0.00  0.00    -0.449 OA
BRANCH  30  31
ATOM     31  C   UNL     1      -9.396   9.994  66.944  0.00  0.00    +0.341 C 
ATOM     32  O   UNL     1      -8.459  10.162  66.152  0.00  0.00    -0.245 OA
BRANCH  31  33
ATOM     33  C   UNL     1      -9.471   8.637  67.371  0.00  0.00    +0.076 A 
ATOM     34  C   UNL     1     -10.293   7.816  66.607  0.00  0.00    +0.006 A 
ATOM     35  C   UNL     1     -10.832   6.659  67.065  0.00  0.00    +0.000 A 
ATOM     36  C   UNL     1     -10.787   6.386  68.391  0.00  0.00    +0.000 A 
ATOM     37  C   UNL     1     -10.362   7.367  69.263  0.00  0.00    +0.000 A 
ATOM     38  C   UNL     1      -9.448   8.282  68.729  0.00  0.00    +0.006 A 
ENDBRANCH  31  33
ENDBRANCH  30  31
ENDBRANCH  20  30
TORSDOF 7
ENDMDL
MODEL 7
REMARK VINA RESULT:      -6.3      3.181      5.831
REMARK  Name = 
REMARK  7 active torsions:
REMARK  status: ('A' for Active; 'I' for Inactive)
REMARK    1  A    between atoms: C_12  and  O_13
REMARK    2  A    between atoms: O_13  and  C_14
REMARK    3  A    between atoms: C_20  and  O_21
REMARK    4  A    between atoms: O_21  and  C_22
REMARK    5  A    between atoms: C_22  and  C_24
REMARK    6  A    between atoms: C_31  and  O_32
REMARK    7  A    between atoms: O_32  and  C_33
REMARK                            x       y       z     vdW  Elec       q    Type
REMARK                         _______ _______ _______ _____ _____    ______ ____
ROOT
ATOM      1  C   UNL     1      -7.277  18.546  65.655  0.00  0.00    -0.006 C 
ATOM      2  C   UNL     1      -7.367  18.311  66.622  0.00  0.00    -0.005 C 
ATOM      3  C   UNL     1      -8.373  17.052  66.623  0.00  0.00    +0.194 C 
ATOM      4  C   UNL     1      -8.371  16.761  68.300  0.00  0.00    +0.128 C 
ATOM      5  C   UNL     1      -7.737  15.338  68.452  0.00  0.00    +0.197 C 
ATOM      6  C   UNL     1      -8.649  14.625  69.454  0.00  0.00    +0.052 C 
ATOM      7  C   UNL     1      -9.717  15.758  69.862  0.00  0.00    +0.044 C 
ATOM      8  C   UNL     1     -10.975  14.745  69.903  0.00  0.00    +0.004 C 
ATOM      9  C   UNL     1      -6.440  15.418  69.182  0.00  0.00    +0.205 C 
ATOM     10  O   UNL     1      -5.892  14.303  69.451  0.00  0.00    -0.288 OA
ATOM     11  C   UNL     1      -5.428  16.484  69.000  0.00  0.00    +0.012 C 
ATOM     12  C   UNL     1      -4.130  16.125  68.308  0.00  0.00    +0.034 C 
ATOM     13  C   UNL     1      -5.933  17.604  69.235  0.00  0.00    -0.028 C 
ATOM     14  C   UNL     1      -5.452  18.635  70.371  0.00  0.00    +0.022 C 
ATOM     15  C   UNL     1      -5.078  19.925  69.310  0.00  0.00    +0.004 C 
ATOM     16  C   UNL     1      -4.165  20.781  70.162  0.00  0.00    +0.000 C 
ATOM     17  C   UNL     1      -4.845  19.720  68.000  0.00  0.00    +0.000 C 
ATOM     18  C   UNL     1      -6.605  19.881  70.054  0.00  0.00    +0.005 C 
ATOM     19  C   UNL     1      -7.534  19.090  68.982  0.00  0.00    +0.005 C 
ATOM     20  C   UNL     1      -9.997  16.248  68.251  0.00  0.00    +0.177 C 
ATOM     21  C   UNL     1      -7.443  19.361  67.638  0.00  0.00    +0.026 C 
ENDROOT
BRANCH   5  22
ATOM     22  O   UNL     1      -7.549  14.528  67.430  0.00  0.00    -0.448 OA
BRANCH  22  23
ATOM     23  C   UNL     1      -7.490  13.141  67.611  0.00  0.00    +0.318 C 
ATOM     24  O   UNL     1      -8.484  12.372  67.434  0.00  0.00    -0.250 OA
ATOM     25  C   UNL     1      -6.201  12.517  67.146  0.00  0.00    +0.121 C 
ENDBRANCH  22  23
ENDBRANCH   5  22
BRANCH   3  26
ATOM     26  O   UNL     1      -9.564  18.013  66.767  0.00  0.00    -0.448 OA
BRANCH  26  27
ATOM     27  C   UNL     1     -10.176  18.508  65.666  0.00  0.00    +0.318 C 
ATOM     28  O   UNL     1     -10.883  17.746  64.949  0.00  0.00    -0.250 OA
ATOM     29  C   UNL     1     -10.740  19.896  65.785  0.00  0.00    +0.121 C 
ENDBRANCH  26  27
ENDBRANCH   3  26
BRANCH  20  30
ATOM     30  O   UNL     1      -9.892  14.890  67.597  0.00  0.00    -0.449 OA
BRANCH  30  31
ATOM     31  C   UNL     1     -10.881  14.749  66.700  0.00  0.00    +0.341 C 
ATOM     32  O   UNL     1     -11.766  15.518  67.098  0.00  0.00    -0.245 OA
BRANCH  31  33
ATOM     33  C   UNL     1     -11.229  14.170  65.446  0.00  0.00    +0.076 A 
ATOM     34  C   UNL     1     -12.435  13.477  65.424  0.00  0.00    +0.006 A 
ATOM     35  C   UNL     1     -12.735  12.524  64.508  0.00  0.00    +0.000 A 
ATOM     36  C   UNL     1     -11.752  12.031  63.717  0.00  0.00    +0.000 A 
ATOM     37  C   UNL     1     -10.442  12.371  63.986  0.00  0.00    +0.000 A 
ATOM     38  C   UNL     1     -10.265  13.624  64.586  0.00  0.00    +0.006 A 
ENDBRANCH  31  33
ENDBRANCH  30  31
ENDBRANCH  20  30
TORSDOF 7
ENDMDL
MODEL 8
REMARK VINA RESULT:      -6.2      2.477      4.793
REMARK  Name = 
REMARK  7 active torsions:
REMARK  status: ('A' for Active; 'I' for Inactive)
REMARK    1  A    between atoms: C_12  and  O_13
REMARK    2  A    between atoms: O_13  and  C_14
REMARK    3  A    between atoms: C_20  and  O_21
REMARK    4  A    between atoms: O_21  and  C_22
REMARK    5  A    between atoms: C_22  and  C_24
REMARK    6  A    between atoms: C_31  and  O_32
REMARK    7  A    between atoms: O_32  and  C_33
REMARK                            x       y       z     vdW  Elec       q    Type
REMARK                         _______ _______ _______ _____ _____    ______ ____
ROOT
ATOM      1  C   UNL     1      -6.686  14.449  69.238  0.00  0.00    -0.006 C 
ATOM      2  C   UNL     1      -7.376  14.635  68.540  0.00  0.00    -0.005 C 
ATOM      3  C   UNL     1      -7.999  13.186  68.212  0.00  0.00    +0.194 C 
ATOM      4  C   UNL     1      -9.161  13.690  67.074  0.00  0.00    +0.128 C 
ATOM      5  C   UNL     1     -10.536  13.335  67.732  0.00  0.00    +0.197 C 
ATOM      6  C   UNL     1     -11.336  12.682  66.601  0.00  0.00    +0.052 C 
ATOM      7  C   UNL     1     -10.351  12.790  65.333  0.00  0.00    +0.044 C 
ATOM      8  C   UNL     1     -10.726  11.330  64.751  0.00  0.00    +0.004 C 
ATOM      9  C   UNL     1     -11.314  14.574  68.017  0.00  0.00    +0.205 C 
ATOM     10  O   UNL     1     -12.493  14.392  68.457  0.00  0.00    -0.288 OA
ATOM     11  C   UNL     1     -10.739  15.839  68.530  0.00  0.00    +0.012 C 
ATOM     12  C   UNL     1     -11.054  16.240  69.956  0.00  0.00    +0.034 C 
ATOM     13  C   UNL     1      -9.853  16.257  67.751  0.00  0.00    -0.028 C 
ATOM     14  C   UNL     1      -9.866  17.666  66.979  0.00  0.00    +0.022 C 
ATOM     15  C   UNL     1      -8.417  18.271  67.660  0.00  0.00    +0.004 C 
ATOM     16  C   UNL     1      -8.548  19.759  67.414  0.00  0.00    +0.000 C 
ATOM     17  C   UNL     1      -7.916  17.779  68.809  0.00  0.00    +0.000 C 
ATOM     18  C   UNL     1      -8.361  17.490  66.152  0.00  0.00    +0.005 C 
ATOM     19  C   UNL     1      -8.053  15.941  66.529  0.00  0.00    +0.005 C 
ATOM     20  C   UNL     1      -8.983  12.240  66.194  0.00  0.00    +0.177 C 
ATOM     21  C   UNL     1      -7.124  15.623  67.491  0.00  0.00    +0.026 C 
ENDROOT
BRANCH   5  22
ATOM     22  O   UNL     1     -10.640  12.567  68.796  0.00  0.00    -0.448 OA
BRANCH  22  23
ATOM     23  C   UNL     1     -11.852  11.948  69.123  0.00  0.00    +0.318 C 
ATOM     24  O   UNL     1     -12.254  10.872  68.583  0.00  0.00    -0.250 OA
ATOM     25  C   UNL     1     -12.197  12.010  70.587  0.00  0.00    +0.121 C 
ENDBRANCH  22  23
ENDBRANCH   5  22
BRANCH   3  26
ATOM     26  O   UNL     1      -6.956  12.998  67.098  0.00  0.00    -0.448 OA
BRANCH  26  27
ATOM     27  C   UNL     1      -5.922  12.142  67.272  0.00  0.00    +0.318 C 
ATOM     28  O   UNL     1      -4.752  12.507  66.963  0.00  0.00    -0.250 OA
ATOM     29  C   UNL     1      -5.965  11.288  68.508  0.00  0.00    +0.121 C 
ENDBRANCH  26  27
ENDBRANCH   3  26
BRANCH  20  30
ATOM     30  O   UNL     1      -9.682  11.233  67.078  0.00  0.00    -0.449 OA
BRANCH  30  31
ATOM     31  C   UNL     1      -9.033  10.060  67.016  0.00  0.00    +0.341 C 
ATOM     32  O   UNL     1      -9.014   9.659  68.188  0.00  0.00    -0.245 OA
BRANCH  31  33
ATOM     33  C   UNL     1      -8.495   9.083  66.131  0.00  0.00    +0.076 A 
ATOM     34  C   UNL     1      -9.116   7.838  66.167  0.00  0.00    +0.006 A 
ATOM     35  C   UNL     1      -8.521   6.692  65.755  0.00  0.00    +0.000 A 
ATOM     36  C   UNL     1      -7.187   6.683  65.520  0.00  0.00    +0.000 A 
ATOM     37  C   UNL     1      -6.436   7.783  65.881  0.00  0.00    +0.000 A 
ATOM     38  C   UNL     1      -7.121   9.003  65.856  0.00  0.00    +0.006 A 
ENDBRANCH  31  33
ENDBRANCH  30  31
ENDBRANCH  20  30
TORSDOF 7
ENDMDL
MODEL 9
REMARK VINA RESULT:      -6.2      3.004      8.123
REMARK  Name = 
REMARK  7 active torsions:
REMARK  status: ('A' for Active; 'I' for Inactive)
REMARK    1  A    between atoms: C_12  and  O_13
REMARK    2  A    between atoms: O_13  and  C_14
REMARK    3  A    between atoms: C_20  and  O_21
REMARK    4  A    between atoms: O_21  and  C_22
REMARK    5  A    between atoms: C_22  and  C_24
REMARK    6  A    between atoms: C_31  and  O_32
REMARK    7  A    between atoms: O_32  and  C_33
REMARK                            x       y       z     vdW  Elec       q    Type
REMARK                         _______ _______ _______ _____ _____    ______ ____
ROOT
ATOM      1  C   UNL     1      -9.803   9.016  71.488  0.00  0.00    -0.006 C 
ATOM      2  C   UNL     1      -9.777   8.588  70.586  0.00  0.00    -0.005 C 
ATOM      3  C   UNL     1      -9.595   9.828  69.573  0.00  0.00    +0.194 C 
ATOM      4  C   UNL     1      -9.522   8.931  68.128  0.00  0.00    +0.128 C 
ATOM      5  C   UNL     1      -8.083   9.197  67.572  0.00  0.00    +0.197 C 
ATOM      6  C   UNL     1      -8.301   9.476  66.082  0.00  0.00    +0.052 C 
ATOM      7  C   UNL     1      -9.885   9.266  65.889  0.00  0.00    +0.044 C 
ATOM      8  C   UNL     1     -10.057  10.502  64.862  0.00  0.00    +0.004 C 
ATOM      9  C   UNL     1      -7.286   7.936  67.561  0.00  0.00    +0.205 C 
ATOM     10  O   UNL     1      -6.134   8.021  67.029  0.00  0.00    -0.288 OA
ATOM     11  C   UNL     1      -7.313   6.906  68.624  0.00  0.00    +0.012 C 
ATOM     12  C   UNL     1      -6.091   6.759  69.506  0.00  0.00    +0.034 C 
ATOM     13  C   UNL     1      -8.478   6.480  68.783  0.00  0.00    -0.028 C 
ATOM     14  C   UNL     1      -8.960   4.958  68.592  0.00  0.00    +0.022 C 
ATOM     15  C   UNL     1      -9.523   4.734  70.193  0.00  0.00    +0.004 C 
ATOM     16  C   UNL     1      -9.554   3.225  70.309  0.00  0.00    +0.000 C 
ATOM     17  C   UNL     1      -9.109   5.520  71.205  0.00  0.00    +0.000 C 
ATOM     18  C   UNL     1     -10.625   5.192  68.983  0.00  0.00    +0.005 C 
ATOM     19  C   UNL     1     -10.633   6.814  69.061  0.00  0.00    +0.005 C 
ATOM     20  C   UNL     1     -10.299  10.183  67.268  0.00  0.00    +0.177 C 
ATOM     21  C   UNL     1     -10.654   7.459  70.275  0.00  0.00    +0.026 C 
ENDROOT
BRANCH   5  22
ATOM     22  O   UNL     1      -7.297  10.140  68.049  0.00  0.00    -0.448 OA
BRANCH  22  23
ATOM     23  C   UNL     1      -6.123  10.506  67.380  0.00  0.00    +0.318 C 
ATOM     24  O   UNL     1      -6.098  11.333  66.417  0.00  0.00    -0.250 OA
ATOM     25  C   UNL     1      -4.924  10.649  68.280  0.00  0.00    +0.121 C 
ENDBRANCH  22  23
ENDBRANCH   5  22
BRANCH   3  26
ATOM     26  O   UNL     1     -11.123   9.944  69.451  0.00  0.00    -0.448 OA
BRANCH  26  27
ATOM     27  C   UNL     1     -11.804  10.810  70.238  0.00  0.00    +0.318 C 
ATOM     28  O   UNL     1     -11.911  12.019  69.887  0.00  0.00    -0.250 OA
ATOM     29  C   UNL     1     -13.043  10.276  70.899  0.00  0.00    +0.121 C 
ENDBRANCH  26  27
ENDBRANCH   3  26
BRANCH  20  30
ATOM     30  O   UNL     1      -9.213  11.228  67.159  0.00  0.00    -0.449 OA
BRANCH  30  31
ATOM     31  C   UNL     1      -9.746  12.445  67.349  0.00  0.00    +0.341 C 
ATOM     32  O   UNL     1      -9.195  12.864  68.375  0.00  0.00    -0.245 OA
BRANCH  31  33
ATOM     33  C   UNL     1     -10.577  13.446  66.767  0.00  0.00    +0.076 A 
ATOM     34  C   UNL     1     -11.894  13.064  66.531  0.00  0.00    +0.006 A 
ATOM     35  C   UNL     1     -12.700  13.675  65.628  0.00  0.00    +0.000 A 
ATOM     36  C   UNL     1     -12.161  14.535  64.731  0.00  0.00    +0.000 A 
ATOM     37  C   UNL     1     -10.788  14.629  64.636  0.00  0.00    +0.000 A 
ATOM     38  C   UNL     1     -10.090  14.358  65.818  0.00  0.00    +0.006 A 
ENDBRANCH  31  33
ENDBRANCH  30  31
ENDBRANCH  20  30
TORSDOF 7
ENDMDL
