MODEL 1
REMARK VINA RESULT:      -6.6      0.000      0.000
REMARK  Name = 
REMARK  2 active torsions:
REMARK  status: ('A' for Active; 'I' for Inactive)
REMARK    1  A    between atoms: C5*_2  and  C4*_3
REMARK    2  A    between atoms: C1*_5  and  N_6
REMARK                            x       y       z     vdW  Elec       q    Type
REMARK                         _______ _______ _______ _____ _____    ______ ____
ROOT
ATOM      1  N   UNL     1     -11.101  15.211  69.428  0.00  0.00    -0.272 N 
ATOM      2  C   UNL     1     -11.193  15.076  68.076  0.00  0.00    +0.164 A 
ATOM      3  N   UNL     1     -12.209  14.359  67.399  0.00  0.00    -0.208 NA
ATOM      4  C   UNL     1     -12.134  13.717  66.264  0.00  0.00    +0.183 C 
ATOM      5  N   UNL     1     -11.000  13.929  65.397  0.00  0.00    -0.215 NA
ATOM      6  C   UNL     1     -10.615  15.307  65.100  0.00  0.00    +0.153 C 
ATOM      7  C   UNL     1      -9.403  15.631  66.203  0.00  0.00    +0.216 C 
ATOM      8  O   UNL     1      -9.389  17.104  65.750  0.00  0.00    -0.215 OA
ATOM      9  C   UNL     1     -10.429  16.001  67.427  0.00  0.00    +0.127 A 
ATOM     10  N   UNL     1      -9.599  16.456  68.412  0.00  0.00    -0.224 NA
ATOM     11  C   UNL     1      -9.988  15.895  69.589  0.00  0.00    +0.181 A 
ENDROOT
BRANCH   1  16
ATOM     12  C4* UNL     1     -13.088  15.639  72.246  0.00  0.00    +0.180 C 
ATOM     13  C3* UNL     1     -12.534  13.992  72.238  0.00  0.00    +0.186 C 
ATOM     14  O3* UNL     1     -13.938  13.441  72.475  0.00  0.00    -0.220 OA
ATOM     15  C2* UNL     1     -12.687  13.924  70.610  0.00  0.00    +0.089 C 
ATOM     16  C1* UNL     1     -12.469  15.532  70.218  0.00  0.00    +0.210 C 
ATOM     17  O4* UNL     1     -11.765  15.893  71.548  0.00  0.00    -0.332 OA
BRANCH  12  19
ATOM     18  O5* UNL     1     -12.813  16.617  74.180  0.00  0.00    -0.218 OA
ATOM     19  C5* UNL     1     -12.438  15.937  73.740  0.00  0.00    +0.214 C 
ENDBRANCH  12  19
ENDBRANCH   1  16
TORSDOF 2
ENDMDL
MODEL 2
REMARK VINA RESULT:      -6.3      3.766      5.626
REMARK  Name = 
REMARK  2 active torsions:
REMARK  status: ('A' for Active; 'I' for Inactive)
REMARK    1  A    between atoms: C5*_2  and  C4*_3
REMARK    2  A    between atoms: C1*_5  and  N_6
REMARK                            x       y       z     vdW  Elec       q    Type
REMARK                         _______ _______ _______ _____ _____    ______ ____
ROOT
ATOM      1  N   UNL     1      -9.490  15.541  67.521  0.00  0.00    -0.272 N 
ATOM      2  C   UNL     1      -9.143  16.765  67.037  0.00  0.00    +0.164 A 
ATOM      3  N   UNL     1      -8.130  17.001  66.076  0.00  0.00    -0.208 NA
ATOM      4  C   UNL     1      -7.361  18.048  65.942  0.00  0.00    +0.183 C 
ATOM      5  N   UNL     1      -7.686  19.266  66.644  0.00  0.00    -0.215 NA
ATOM      6  C   UNL     1      -9.056  19.765  66.550  0.00  0.00    +0.153 C 
ATOM      7  C   UNL     1      -9.793  19.175  67.927  0.00  0.00    +0.216 C 
ATOM      8  O   UNL     1     -11.151  19.697  67.420  0.00  0.00    -0.215 OA
ATOM      9  C   UNL     1     -10.106  17.696  67.290  0.00  0.00    +0.127 A 
ATOM     10  N   UNL     1     -10.870  17.092  68.249  0.00  0.00    -0.224 NA
ATOM     11  C   UNL     1     -10.416  15.821  68.414  0.00  0.00    +0.181 A 
ENDROOT
BRANCH   1  16
ATOM     12  C4* UNL     1     -11.119  13.603  65.141  0.00  0.00    +0.180 C 
ATOM     13  C3* UNL     1     -11.979  13.428  66.641  0.00  0.00    +0.186 C 
ATOM     14  O3* UNL     1     -11.996  11.905  66.539  0.00  0.00    -0.220 OA
ATOM     15  C2* UNL     1     -10.572  13.445  67.477  0.00  0.00    +0.089 C 
ATOM     16  C1* UNL     1      -9.618  14.347  66.446  0.00  0.00    +0.210 C 
ATOM     17  O4* UNL     1     -10.811  14.983  65.693  0.00  0.00    -0.332 OA
BRANCH  12  19
ATOM     18  O5* UNL     1     -12.498  13.920  63.477  0.00  0.00    -0.218 OA
ATOM     19  C5* UNL     1     -12.463  14.147  64.339  0.00  0.00    +0.214 C 
ENDBRANCH  12  19
ENDBRANCH   1  16
TORSDOF 2
ENDMDL
MODEL 3
REMARK VINA RESULT:      -6.1      3.762      4.874
REMARK  Name = 
REMARK  2 active torsions:
REMARK  status: ('A' for Active; 'I' for Inactive)
REMARK    1  A    between atoms: C5*_2  and  C4*_3
REMARK    2  A    between atoms: C1*_5  and  N_6
REMARK                            x       y       z     vdW  Elec       q    Type
REMARK                         _______ _______ _______ _____ _____    ______ ____
ROOT
ATOM      1  N   UNL     1      -9.467  15.440  67.012  0.00  0.00    -0.272 N 
ATOM      2  C   UNL     1     -10.496  14.574  66.792  0.00  0.00    +0.164 A 
ATOM      3  N   UNL     1     -11.118  13.784  67.789  0.00  0.00    -0.208 NA
ATOM      4  C   UNL     1     -11.671  12.607  67.668  0.00  0.00    +0.183 C 
ATOM      5  N   UNL     1     -11.964  12.088  66.354  0.00  0.00    -0.215 NA
ATOM      6  C   UNL     1     -12.673  12.958  65.418  0.00  0.00    +0.153 C 
ATOM      7  C   UNL     1     -11.454  13.642  64.504  0.00  0.00    +0.216 C 
ATOM      8  O   UNL     1     -12.485  14.562  63.823  0.00  0.00    -0.215 OA
ATOM      9  C   UNL     1     -11.107  14.814  65.598  0.00  0.00    +0.127 A 
ATOM     10  N   UNL     1     -10.202  15.601  64.944  0.00  0.00    -0.224 NA
ATOM     11  C   UNL     1      -9.190  15.891  65.806  0.00  0.00    +0.181 A 
ENDROOT
BRANCH   1  16
ATOM     12  C4* UNL     1      -9.712  18.466  68.701  0.00  0.00    +0.180 C 
ATOM     13  C3* UNL     1      -8.202  18.464  67.841  0.00  0.00    +0.186 C 
ATOM     14  O3* UNL     1      -7.415  18.905  69.072  0.00  0.00    -0.220 OA
ATOM     15  C2* UNL     1      -7.992  16.874  68.166  0.00  0.00    +0.089 C 
ATOM     16  C1* UNL     1      -9.581  16.383  68.314  0.00  0.00    +0.210 C 
ATOM     17  O4* UNL     1     -10.161  17.593  67.544  0.00  0.00    -0.332 OA
BRANCH  12  19
ATOM     18  O5* UNL     1     -11.013  19.771  67.527  0.00  0.00    -0.218 OA
ATOM     19  C5* UNL     1     -10.232  19.849  67.951  0.00  0.00    +0.214 C 
ENDBRANCH  12  19
ENDBRANCH   1  16
TORSDOF 2
ENDMDL
MODEL 4
REMARK VINA RESULT:      -6.1      2.483      6.530
REMARK  Name = 
REMARK  2 active torsions:
REMARK  status: ('A' for Active; 'I' for Inactive)
REMARK    1  A    between atoms: C5*_2  and  C4*_3
REMARK    2  A    between atoms: C1*_5  and  N_6
REMARK                            x       y       z     vdW  Elec       q    Type
REMARK                         _______ _______ _______ _____ _____    ______ ____
ROOT
ATOM      1  N   UNL     1     -11.504  13.888  69.224  0.00  0.00    -0.272 N 
ATOM      2  C   UNL     1     -11.977  14.543  70.321  0.00  0.00    +0.164 A 
ATOM      3  N   UNL     1     -11.875  15.938  70.540  0.00  0.00    -0.208 NA
ATOM      4  C   UNL     1     -11.772  16.580  71.672  0.00  0.00    +0.183 C 
ATOM      5  N   UNL     1     -12.051  15.893  72.910  0.00  0.00    -0.215 NA
ATOM      6  C   UNL     1     -13.290  15.123  73.001  0.00  0.00    +0.153 C 
ATOM      7  C   UNL     1     -12.821  13.563  72.634  0.00  0.00    +0.216 C 
ATOM      8  O   UNL     1     -14.297  13.122  72.638  0.00  0.00    -0.215 OA
ATOM      9  C   UNL     1     -12.876  13.784  71.010  0.00  0.00    +0.127 A 
ATOM     10  N   UNL     1     -12.662  12.530  70.511  0.00  0.00    -0.224 NA
ATOM     11  C   UNL     1     -11.770  12.626  69.489  0.00  0.00    +0.181 A 
ENDROOT
BRANCH   1  16
ATOM     12  C4* UNL     1     -11.951  13.933  65.779  0.00  0.00    +0.180 C 
ATOM     13  C3* UNL     1     -10.343  13.356  66.093  0.00  0.00    +0.186 C 
ATOM     14  O3* UNL     1      -9.720  14.324  65.091  0.00  0.00    -0.220 OA
ATOM     15  C2* UNL     1     -10.184  14.407  67.339  0.00  0.00    +0.089 C 
ATOM     16  C1* UNL     1     -11.781  14.579  67.794  0.00  0.00    +0.210 C 
ATOM     17  O4* UNL     1     -12.250  13.272  67.111  0.00  0.00    -0.332 OA
BRANCH  12  19
ATOM     18  O5* UNL     1     -13.213  12.543  64.664  0.00  0.00    -0.218 OA
ATOM     19  C5* UNL     1     -12.363  12.572  64.930  0.00  0.00    +0.214 C 
ENDBRANCH  12  19
ENDBRANCH   1  16
TORSDOF 2
ENDMDL
MODEL 5
REMARK VINA RESULT:      -6.0      2.154      5.986
REMARK  Name = 
REMARK  2 active torsions:
REMARK  status: ('A' for Active; 'I' for Inactive)
REMARK    1  A    between atoms: C5*_2  and  C4*_3
REMARK    2  A    between atoms: C1*_5  and  N_6
REMARK                            x       y       z     vdW  Elec       q    Type
REMARK                         _______ _______ _______ _____ _____    ______ ____
ROOT
ATOM      1  N   UNL     1     -11.905  14.531  68.982  0.00  0.00    -0.272 N 
ATOM      2  C   UNL     1     -12.227  14.217  70.267  0.00  0.00    +0.164 A 
ATOM      3  N   UNL     1     -12.393  12.901  70.764  0.00  0.00    -0.208 NA
ATOM      4  C   UNL     1     -13.178  12.483  71.721  0.00  0.00    +0.183 C 
ATOM      5  N   UNL     1     -13.789  13.441  72.611  0.00  0.00    -0.215 NA
ATOM      6  C   UNL     1     -12.930  14.458  73.215  0.00  0.00    +0.153 C 
ATOM      7  C   UNL     1     -13.111  15.782  72.214  0.00  0.00    +0.216 C 
ATOM      8  O   UNL     1     -12.003  16.518  72.993  0.00  0.00    -0.215 OA
ATOM      9  C   UNL     1     -12.013  15.267  71.109  0.00  0.00    +0.127 A 
ATOM     10  N   UNL     1     -11.902  16.326  70.254  0.00  0.00    -0.224 NA
ATOM     11  C   UNL     1     -11.921  15.847  68.981  0.00  0.00    +0.181 A 
ENDROOT
BRANCH   1  16
ATOM     12  C4* UNL     1      -9.037  14.025  67.087  0.00  0.00    +0.180 C 
ATOM     13  C3* UNL     1     -10.238  14.731  66.047  0.00  0.00    +0.186 C 
ATOM     14  O3* UNL     1     -10.019  13.683  64.959  0.00  0.00    -0.220 OA
ATOM     15  C2* UNL     1     -11.415  13.857  66.775  0.00  0.00    +0.089 C 
ATOM     16  C1* UNL     1     -10.746  13.650  68.290  0.00  0.00    +0.210 C 
ATOM     17  O4* UNL     1      -9.755  14.830  68.154  0.00  0.00    -0.332 OA
BRANCH  12  19
ATOM     18  O5* UNL     1      -7.176  15.159  67.229  0.00  0.00    -0.218 OA
ATOM     19  C5* UNL     1      -7.952  15.242  66.797  0.00  0.00    +0.214 C 
ENDBRANCH  12  19
ENDBRANCH   1  16
TORSDOF 2
ENDMDL
MODEL 6
REMARK VINA RESULT:      -6.0      3.502      5.180
REMARK  Name = 
REMARK  2 active torsions:
REMARK  status: ('A' for Active; 'I' for Inactive)
REMARK    1  A    between atoms: C5*_2  and  C4*_3
REMARK    2  A    between atoms: C1*_5  and  N_6
REMARK                            x       y       z     vdW  Elec       q    Type
REMARK                         _______ _______ _______ _____ _____    ______ ____
ROOT
ATOM      1  N   UNL     1     -10.676  16.250  67.405  0.00  0.00    -0.272 N 
ATOM      2  C   UNL     1     -11.042  15.207  66.610  0.00  0.00    +0.164 A 
ATOM      3  N   UNL     1     -11.375  15.311  65.237  0.00  0.00    -0.208 NA
ATOM      4  C   UNL     1     -12.212  14.585  64.544  0.00  0.00    +0.183 C 
ATOM      5  N   UNL     1     -12.702  13.344  65.092  0.00  0.00    -0.215 NA
ATOM      6  C   UNL     1     -11.726  12.406  65.644  0.00  0.00    +0.153 C 
ATOM      7  C   UNL     1     -11.732  12.738  67.280  0.00  0.00    +0.216 C 
ATOM      8  O   UNL     1     -10.546  11.776  67.477  0.00  0.00    -0.215 OA
ATOM      9  C   UNL     1     -10.702  14.009  67.165  0.00  0.00    +0.127 A 
ATOM     10  N   UNL     1     -10.454  14.337  68.468  0.00  0.00    -0.224 NA
ATOM     11  C   UNL     1     -10.525  15.690  68.587  0.00  0.00    +0.181 A 
ENDROOT
BRANCH   1  16
ATOM     12  C4* UNL     1      -8.310  18.792  67.521  0.00  0.00    +0.180 C 
ATOM     13  C3* UNL     1      -9.789  19.420  68.181  0.00  0.00    +0.186 C 
ATOM     14  O3* UNL     1      -9.732  20.673  67.311  0.00  0.00    -0.220 OA
ATOM     15  C2* UNL     1     -10.663  18.586  67.076  0.00  0.00    +0.089 C 
ATOM     16  C1* UNL     1      -9.633  17.307  66.778  0.00  0.00    +0.210 C 
ATOM     17  O4* UNL     1      -8.828  17.484  68.087  0.00  0.00    -0.332 OA
BRANCH  12  19
ATOM     18  O5* UNL     1      -6.586  18.935  68.855  0.00  0.00    -0.218 OA
ATOM     19  C5* UNL     1      -7.455  19.132  68.899  0.00  0.00    +0.214 C 
ENDBRANCH  12  19
ENDBRANCH   1  16
TORSDOF 2
ENDMDL
MODEL 7
REMARK VINA RESULT:      -5.9      4.124      5.448
REMARK  Name = 
REMARK  2 active torsions:
REMARK  status: ('A' for Active; 'I' for Inactive)
REMARK    1  A    between atoms: C5*_2  and  C4*_3
REMARK    2  A    between atoms: C1*_5  and  N_6
REMARK                            x       y       z     vdW  Elec       q    Type
REMARK                         _______ _______ _______ _____ _____    ______ ____
ROOT
ATOM      1  N   UNL     1      -9.873  15.809  66.467  0.00  0.00    -0.272 N 
ATOM      2  C   UNL     1      -9.661  16.996  67.100  0.00  0.00    +0.164 A 
ATOM      3  N   UNL     1     -10.637  18.005  67.281  0.00  0.00    -0.208 NA
ATOM      4  C   UNL     1     -10.470  19.299  67.349  0.00  0.00    +0.183 C 
ATOM      5  N   UNL     1      -9.144  19.837  67.536  0.00  0.00    -0.215 NA
ATOM      6  C   UNL     1      -8.320  19.273  68.603  0.00  0.00    +0.153 C 
ATOM      7  C   UNL     1      -7.380  18.134  67.824  0.00  0.00    +0.216 C 
ATOM      8  O   UNL     1      -6.835  17.659  69.185  0.00  0.00    -0.215 OA
ATOM      9  C   UNL     1      -8.529  16.964  67.859  0.00  0.00    +0.127 A 
ATOM     10  N   UNL     1      -7.875  15.862  67.385  0.00  0.00    -0.224 NA
ATOM     11  C   UNL     1      -8.688  15.238  66.490  0.00  0.00    +0.181 A 
ENDROOT
BRANCH   1  16
ATOM     12  C4* UNL     1     -11.922  13.025  66.819  0.00  0.00    +0.180 C 
ATOM     13  C3* UNL     1     -11.472  13.138  65.145  0.00  0.00    +0.186 C 
ATOM     14  O3* UNL     1     -12.914  12.983  64.669  0.00  0.00    -0.220 OA
ATOM     15  C2* UNL     1     -11.574  14.771  65.203  0.00  0.00    +0.089 C 
ATOM     16  C1* UNL     1     -11.244  15.037  66.818  0.00  0.00    +0.210 C 
ATOM     17  O4* UNL     1     -10.564  13.665  67.037  0.00  0.00    -0.332 OA
BRANCH  12  19
ATOM     18  O5* UNL     1     -11.713  10.987  67.576  0.00  0.00    -0.218 OA
ATOM     19  C5* UNL     1     -11.305  11.495  66.967  0.00  0.00    +0.214 C 
ENDBRANCH  12  19
ENDBRANCH   1  16
TORSDOF 2
ENDMDL
MODEL 8
REMARK VINA RESULT:      -5.8      2.300      3.057
REMARK  Name = 
REMARK  2 active torsions:
REMARK  status: ('A' for Active; 'I' for Inactive)
REMARK    1  A    between atoms: C5*_2  and  C4*_3
REMARK    2  A    between atoms: C1*_5  and  N_6
REMARK                            x       y       z     vdW  Elec       q    Type
REMARK                         _______ _______ _______ _____ _____    ______ ____
ROOT
ATOM      1  N   UNL     1     -10.614  15.995  68.403  0.00  0.00    -0.272 N 
ATOM      2  C   UNL     1     -10.103  17.216  68.082  0.00  0.00    +0.164 A 
ATOM      3  N   UNL     1     -10.855  18.303  67.575  0.00  0.00    -0.208 NA
ATOM      4  C   UNL     1     -10.472  19.250  66.762  0.00  0.00    +0.183 C 
ATOM      5  N   UNL     1      -9.065  19.445  66.507  0.00  0.00    -0.215 NA
ATOM      6  C   UNL     1      -8.165  19.520  67.656  0.00  0.00    +0.153 C 
ATOM      7  C   UNL     1      -7.576  17.964  67.805  0.00  0.00    +0.216 C 
ATOM      8  O   UNL     1      -6.880  18.358  69.122  0.00  0.00    -0.215 OA
ATOM      9  C   UNL     1      -8.874  17.407  68.640  0.00  0.00    +0.127 A 
ATOM     10  N   UNL     1      -8.502  16.143  69.000  0.00  0.00    -0.224 NA
ATOM     11  C   UNL     1      -9.551  15.309  68.768  0.00  0.00    +0.181 A 
ENDROOT
BRANCH   1  16
ATOM     12  C4* UNL     1     -12.615  15.656  71.223  0.00  0.00    +0.180 C 
ATOM     13  C3* UNL     1     -11.838  14.127  70.943  0.00  0.00    +0.186 C 
ATOM     14  O3* UNL     1     -13.149  13.355  71.061  0.00  0.00    -0.220 OA
ATOM     15  C2* UNL     1     -11.995  14.318  69.324  0.00  0.00    +0.089 C 
ATOM     16  C1* UNL     1     -12.006  15.984  69.216  0.00  0.00    +0.210 C 
ATOM     17  O4* UNL     1     -11.347  16.206  70.598  0.00  0.00    -0.332 OA
BRANCH  12  19
ATOM     18  O5* UNL     1     -12.068  16.593  73.119  0.00  0.00    -0.218 OA
ATOM     19  C5* UNL     1     -11.999  15.781  72.756  0.00  0.00    +0.214 C 
ENDBRANCH  12  19
ENDBRANCH   1  16
TORSDOF 2
ENDMDL
MODEL 9
REMARK VINA RESULT:      -5.7      4.364      6.836
REMARK  Name = 
REMARK  2 active torsions:
REMARK  status: ('A' for Active; 'I' for Inactive)
REMARK    1  A    between atoms: C5*_2  and  C4*_3
REMARK    2  A    between atoms: C1*_5  and  N_6
REMARK                            x       y       z     vdW  Elec       q    Type
REMARK                         _______ _______ _______ _____ _____    ______ ____
ROOT
ATOM      1  N   UNL     1     -11.397  11.442  67.035  0.00  0.00    -0.272 N 
ATOM      2  C   UNL     1     -10.814  10.262  67.386  0.00  0.00    +0.164 A 
ATOM      3  N   UNL     1     -10.425   9.247  66.478  0.00  0.00    -0.208 NA
ATOM      4  C   UNL     1     -10.384   7.956  66.668  0.00  0.00    +0.183 C 
ATOM      5  N   UNL     1     -10.474   7.429  68.009  0.00  0.00    -0.215 NA
ATOM      6  C   UNL     1      -9.606   8.009  69.032  0.00  0.00    +0.153 C 
ATOM      7  C   UNL     1     -10.572   9.148  69.778  0.00  0.00    +0.216 C 
ATOM      8  O   UNL     1      -9.359   9.639  70.591  0.00  0.00    -0.215 OA
ATOM      9  C   UNL     1     -10.307  10.310  68.651  0.00  0.00    +0.127 A 
ATOM     10  N   UNL     1     -10.916  11.412  69.182  0.00  0.00    -0.224 NA
ATOM     11  C   UNL     1     -11.626  12.022  68.195  0.00  0.00    +0.181 A 
ENDROOT
BRANCH   1  16
ATOM     12  C4* UNL     1     -10.627  14.216  65.090  0.00  0.00    +0.180 C 
ATOM     13  C3* UNL     1     -12.359  14.110  65.194  0.00  0.00    +0.186 C 
ATOM     14  O3* UNL     1     -12.533  14.261  63.685  0.00  0.00    -0.220 OA
ATOM     15  C2* UNL     1     -12.287  12.477  65.111  0.00  0.00    +0.089 C 
ATOM     16  C1* UNL     1     -10.773  12.207  65.761  0.00  0.00    +0.210 C 
ATOM     17  O4* UNL     1     -10.691  13.581  66.467  0.00  0.00    -0.332 OA
BRANCH  12  19
ATOM     18  O5* UNL     1     -10.066  16.317  65.290  0.00  0.00    -0.218 OA
ATOM     19  C5* UNL     1     -10.601  15.748  65.720  0.00  0.00    +0.214 C 
ENDBRANCH  12  19
ENDBRANCH   1  16
TORSDOF 2
ENDMDL
