MODEL 1
REMARK VINA RESULT:      -8.1      0.000      0.000
REMARK  Name = 
REMARK  5 active torsions:
REMARK  status: ('A' for Active; 'I' for Inactive)
REMARK    1  A    between atoms: C_2  and  O_3
REMARK    2  A    between atoms: C_2  and  C_16
REMARK    3  A    between atoms: O_3  and  C_4
REMARK    4  A    between atoms: C_16  and  C_18
REMARK    5  A    between atoms: C_16  and  C_24
REMARK                            x       y       z     vdW  Elec       q    Type
REMARK                         _______ _______ _______ _____ _____    ______ ____
ROOT
ATOM      1  O   UNL     1      -9.898  15.197  69.862  0.00  0.00    -0.247 OA
ATOM      2  C   UNL     1     -10.034  15.360  69.396  0.00  0.00    +0.353 C 
ENDROOT
BRANCH   2   3
ATOM      3  C   UNL     1     -11.413  14.973  69.166  0.00  0.00    +0.252 C 
ATOM      4  O   UNL     1     -11.912  16.195  68.647  0.00  0.00    -0.205 OA
BRANCH   3   5
ATOM      5  C   UNL     1     -12.114  14.629  70.403  0.00  0.00    +0.019 A 
ATOM      6  C   UNL     1     -12.307  13.328  70.766  0.00  0.00    -0.001 A 
ATOM      7  C   UNL     1     -13.195  13.014  71.786  0.00  0.00    -0.000 A 
ATOM      8  C   UNL     1     -13.985  14.001  72.355  0.00  0.00    -0.000 A 
ATOM      9  C   UNL     1     -13.650  15.311  72.088  0.00  0.00    -0.000 A 
ATOM     10  C   UNL     1     -12.942  15.596  70.948  0.00  0.00    -0.001 A 
ENDBRANCH   3   5
BRANCH   3  11
ATOM     11  C   UNL     1     -11.636  13.979  68.120  0.00  0.00    +0.019 A 
ATOM     12  C   UNL     1     -12.038  14.546  66.915  0.00  0.00    -0.001 A 
ATOM     13  C   UNL     1     -12.118  13.828  65.757  0.00  0.00    -0.000 A 
ATOM     14  C   UNL     1     -11.623  12.540  65.781  0.00  0.00    -0.000 A 
ATOM     15  C   UNL     1     -11.560  11.908  67.012  0.00  0.00    -0.000 A 
ATOM     16  C   UNL     1     -11.518  12.631  68.198  0.00  0.00    -0.001 A 
ENDBRANCH   3  11
ENDBRANCH   2   3
BRANCH   2  17
ATOM     17  O   UNL     1      -8.840  15.026  68.767  0.00  0.00    -0.450 OA
BRANCH  17  18
ATOM     18  C   UNL     1      -8.372  16.126  68.102  0.00  0.00    +0.180 C 
ATOM     19  C   UNL     1      -8.306  17.386  68.820  0.00  0.00    +0.099 C 
ATOM     20  C   UNL     1      -7.542  18.633  68.050  0.00  0.00    +0.062 C 
ATOM     21  N   UNL     1      -8.316  18.533  66.622  0.00  0.00    +0.289 N 
ATOM     22  C   UNL     1      -7.621  17.292  67.161  0.00  0.00    +0.062 C 
ATOM     23  C   UNL     1      -6.419  17.385  66.088  0.00  0.00    +0.061 C 
ATOM     24  C   UNL     1      -9.674  18.076  66.943  0.00  0.00    +0.108 C 
ATOM     25  C   UNL     1     -10.629  19.133  66.455  0.00  0.00    +0.067 C 
ATOM     26  C   UNL     1      -9.866  20.294  67.074  0.00  0.00    +0.067 C 
ATOM     27  C   UNL     1      -8.442  19.785  66.922  0.00  0.00    +0.108 C 
ATOM     28  C   UNL     1      -6.140  17.902  67.549  0.00  0.00    +0.061 C 
ATOM     29  C   UNL     1      -8.569  16.083  66.569  0.00  0.00    +0.099 C 
ENDBRANCH  17  18
ENDBRANCH   2  17
TORSDOF 5
ENDMDL
MODEL 2
REMARK VINA RESULT:      -8.1      1.374      4.125
REMARK  Name = 
REMARK  5 active torsions:
REMARK  status: ('A' for Active; 'I' for Inactive)
REMARK    1  A    between atoms: C_2  and  O_3
REMARK    2  A    between atoms: C_2  and  C_16
REMARK    3  A    between atoms: O_3  and  C_4
REMARK    4  A    between atoms: C_16  and  C_18
REMARK    5  A    between atoms: C_16  and  C_24
REMARK                            x       y       z     vdW  Elec       q    Type
REMARK                         _______ _______ _______ _____ _____    ______ ____
ROOT
ATOM      1  O   UNL     1      -8.761  13.612  68.452  0.00  0.00    -0.247 OA
ATOM      2  C   UNL     1      -9.092  13.991  68.356  0.00  0.00    +0.353 C 
ENDROOT
BRANCH   2   3
ATOM      3  C   UNL     1     -10.432  13.438  68.375  0.00  0.00    +0.252 C 
ATOM      4  O   UNL     1     -10.141  12.142  68.873  0.00  0.00    -0.205 OA
BRANCH   3   5
ATOM      5  C   UNL     1     -11.020  13.342  67.038  0.00  0.00    +0.019 A 
ATOM      6  C   UNL     1     -11.881  14.294  66.576  0.00  0.00    -0.001 A 
ATOM      7  C   UNL     1     -12.632  14.059  65.432  0.00  0.00    -0.000 A 
ATOM      8  C   UNL     1     -12.608  12.813  64.824  0.00  0.00    -0.000 A 
ATOM      9  C   UNL     1     -11.614  11.939  65.210  0.00  0.00    -0.000 A 
ATOM     10  C   UNL     1     -11.042  12.090  66.448  0.00  0.00    -0.001 A 
ENDBRANCH   3   5
BRANCH   3  11
ATOM     11  C   UNL     1     -11.359  14.031  69.335  0.00  0.00    +0.019 A 
ATOM     12  C   UNL     1     -12.045  13.078  70.080  0.00  0.00    -0.001 A 
ATOM     13  C   UNL     1     -12.815  13.406  71.158  0.00  0.00    -0.000 A 
ATOM     14  C   UNL     1     -12.761  14.714  71.595  0.00  0.00    -0.000 A 
ATOM     15  C   UNL     1     -12.374  15.674  70.674  0.00  0.00    -0.000 A 
ATOM     16  C   UNL     1     -11.624  15.343  69.552  0.00  0.00    -0.001 A 
ENDBRANCH   3  11
ENDBRANCH   2   3
BRANCH   2  17
ATOM     17  O   UNL     1      -8.334  14.602  67.364  0.00  0.00    -0.450 OA
BRANCH  17  18
ATOM     18  C   UNL     1      -8.577  15.948  67.391  0.00  0.00    +0.180 C 
ATOM     19  C   UNL     1      -8.904  16.612  66.143  0.00  0.00    +0.099 C 
ATOM     20  C   UNL     1      -9.393  18.186  66.252  0.00  0.00    +0.062 C 
ATOM     21  N   UNL     1      -8.187  18.740  67.194  0.00  0.00    +0.289 N 
ATOM     22  C   UNL     1      -8.996  17.545  67.675  0.00  0.00    +0.062 C 
ATOM     23  C   UNL     1      -9.774  18.406  68.797  0.00  0.00    +0.061 C 
ATOM     24  C   UNL     1      -7.003  17.957  66.816  0.00  0.00    +0.108 C 
ATOM     25  C   UNL     1      -5.963  18.927  66.324  0.00  0.00    +0.067 C 
ATOM     26  C   UNL     1      -6.912  19.683  65.406  0.00  0.00    +0.067 C 
ATOM     27  C   UNL     1      -8.193  19.589  66.218  0.00  0.00    +0.108 C 
ATOM     28  C   UNL     1     -10.534  18.094  67.454  0.00  0.00    +0.061 C 
ATOM     29  C   UNL     1      -7.880  16.704  68.547  0.00  0.00    +0.099 C 
ENDBRANCH  17  18
ENDBRANCH   2  17
TORSDOF 5
ENDMDL
MODEL 3
REMARK VINA RESULT:      -8.1      1.960      4.651
REMARK  Name = 
REMARK  5 active torsions:
REMARK  status: ('A' for Active; 'I' for Inactive)
REMARK    1  A    between atoms: C_2  and  O_3
REMARK    2  A    between atoms: C_2  and  C_16
REMARK    3  A    between atoms: O_3  and  C_4
REMARK    4  A    between atoms: C_16  and  C_18
REMARK    5  A    between atoms: C_16  and  C_24
REMARK                            x       y       z     vdW  Elec       q    Type
REMARK                         _______ _______ _______ _____ _____    ______ ____
ROOT
ATOM      1  O   UNL     1      -8.515  12.470  67.840  0.00  0.00    -0.247 OA
ATOM      2  C   UNL     1      -8.937  12.750  67.912  0.00  0.00    +0.353 C 
ENDROOT
BRANCH   2   3
ATOM      3  C   UNL     1     -10.089  11.911  67.643  0.00  0.00    +0.252 C 
ATOM      4  O   UNL     1      -9.444  10.650  67.571  0.00  0.00    -0.205 OA
BRANCH   3   5
ATOM      5  C   UNL     1     -10.726  12.224  66.363  0.00  0.00    +0.019 A 
ATOM      6  C   UNL     1     -11.830  13.023  66.301  0.00  0.00    -0.001 A 
ATOM      7  C   UNL     1     -12.576  13.091  65.132  0.00  0.00    -0.000 A 
ATOM      8  C   UNL     1     -12.281  12.258  64.064  0.00  0.00    -0.000 A 
ATOM      9  C   UNL     1     -11.074  11.592  64.096  0.00  0.00    -0.000 A 
ATOM     10  C   UNL     1     -10.473  11.364  65.308  0.00  0.00    -0.001 A 
ENDBRANCH   3   5
BRANCH   3  11
ATOM     11  C   UNL     1     -11.066  11.795  68.723  0.00  0.00    +0.019 A 
ATOM     12  C   UNL     1     -11.428  10.477  68.981  0.00  0.00    -0.001 A 
ATOM     13  C   UNL     1     -12.177  10.122  70.066  0.00  0.00    -0.000 A 
ATOM     14  C   UNL     1     -12.430  11.102  71.003  0.00  0.00    -0.000 A 
ATOM     15  C   UNL     1     -12.371  12.419  70.575  0.00  0.00    -0.000 A 
ATOM     16  C   UNL     1     -11.643  12.783  69.448  0.00  0.00    -0.001 A 
ENDBRANCH   3  11
ENDBRANCH   2   3
BRANCH   2  17
ATOM     17  O   UNL     1      -8.452  13.909  67.319  0.00  0.00    -0.450 OA
BRANCH  17  18
ATOM     18  C   UNL     1      -9.103  14.985  67.857  0.00  0.00    +0.180 C 
ATOM     19  C   UNL     1      -9.704  15.947  66.951  0.00  0.00    +0.099 C 
ATOM     20  C   UNL     1     -10.655  17.111  67.638  0.00  0.00    +0.062 C 
ATOM     21  N   UNL     1      -9.625  17.597  68.800  0.00  0.00    +0.289 N 
ATOM     22  C   UNL     1      -9.984  16.121  68.717  0.00  0.00    +0.062 C 
ATOM     23  C   UNL     1     -10.918  16.179  70.032  0.00  0.00    +0.061 C 
ATOM     24  C   UNL     1      -8.283  17.441  68.225  0.00  0.00    +0.108 C 
ATOM     25  C   UNL     1      -7.635  18.800  68.225  0.00  0.00    +0.067 C 
ATOM     26  C   UNL     1      -8.831  19.516  67.618  0.00  0.00    +0.067 C 
ATOM     27  C   UNL     1      -9.962  18.713  68.239  0.00  0.00    +0.108 C 
ATOM     28  C   UNL     1     -11.627  16.200  68.626  0.00  0.00    +0.061 C 
ATOM     29  C   UNL     1      -8.606  15.402  69.260  0.00  0.00    +0.099 C 
ENDBRANCH  17  18
ENDBRANCH   2  17
TORSDOF 5
ENDMDL
MODEL 4
REMARK VINA RESULT:      -7.8      1.117      2.198
REMARK  Name = 
REMARK  5 active torsions:
REMARK  status: ('A' for Active; 'I' for Inactive)
REMARK    1  A    between atoms: C_2  and  O_3
REMARK    2  A    between atoms: C_2  and  C_16
REMARK    3  A    between atoms: O_3  and  C_4
REMARK    4  A    between atoms: C_16  and  C_18
REMARK    5  A    between atoms: C_16  and  C_24
REMARK                            x       y       z     vdW  Elec       q    Type
REMARK                         _______ _______ _______ _____ _____    ______ ____
ROOT
ATOM      1  O   UNL     1      -9.706  15.524  69.653  0.00  0.00    -0.247 OA
ATOM      2  C   UNL     1     -10.013  15.783  69.334  0.00  0.00    +0.353 C 
ENDROOT
BRANCH   2   3
ATOM      3  C   UNL     1     -11.327  15.169  69.374  0.00  0.00    +0.252 C 
ATOM      4  O   UNL     1     -12.081  16.197  68.752  0.00  0.00    -0.205 OA
BRANCH   3   5
ATOM      5  C   UNL     1     -11.804  14.952  70.740  0.00  0.00    +0.019 A 
ATOM      6  C   UNL     1     -12.622  13.903  71.044  0.00  0.00    -0.001 A 
ATOM      7  C   UNL     1     -13.278  13.862  72.266  0.00  0.00    -0.000 A 
ATOM      8  C   UNL     1     -13.209  14.941  73.134  0.00  0.00    -0.000 A 
ATOM      9  C   UNL     1     -12.252  15.900  72.877  0.00  0.00    -0.000 A 
ATOM     10  C   UNL     1     -11.782  16.041  71.595  0.00  0.00    -0.001 A 
ENDBRANCH   3   5
BRANCH   3  11
ATOM     11  C   UNL     1     -11.509  13.985  68.540  0.00  0.00    +0.019 A 
ATOM     12  C   UNL     1     -12.054  14.282  67.295  0.00  0.00    -0.001 A 
ATOM     13  C   UNL     1     -12.133  13.361  66.291  0.00  0.00    -0.000 A 
ATOM     14  C   UNL     1     -11.497  12.154  66.494  0.00  0.00    -0.000 A 
ATOM     15  C   UNL     1     -11.279  11.764  67.805  0.00  0.00    -0.000 A 
ATOM     16  C   UNL     1     -11.237  12.692  68.840  0.00  0.00    -0.001 A 
ENDBRANCH   3  11
ENDBRANCH   2   3
BRANCH   2  17
ATOM     17  O   UNL     1      -9.075  15.944  68.321  0.00  0.00    -0.450 OA
BRANCH  17  18
ATOM     18  C   UNL     1      -9.044  17.261  67.956  0.00  0.00    +0.180 C 
ATOM     19  C   UNL     1      -8.119  17.663  66.912  0.00  0.00    +0.099 C 
ATOM     20  C   UNL     1      -8.261  19.214  66.358  0.00  0.00    +0.062 C 
ATOM     21  N   UNL     1      -8.268  19.974  67.797  0.00  0.00    +0.289 N 
ATOM     22  C   UNL     1      -9.285  18.870  67.553  0.00  0.00    +0.062 C 
ATOM     23  C   UNL     1     -10.514  19.906  67.413  0.00  0.00    +0.061 C 
ATOM     24  C   UNL     1      -7.403  19.169  68.670  0.00  0.00    +0.108 C 
ATOM     25  C   UNL     1      -6.278  20.059  69.129  0.00  0.00    +0.067 C 
ATOM     26  C   UNL     1      -5.961  20.595  67.741  0.00  0.00    +0.067 C 
ATOM     27  C   UNL     1      -7.358  20.620  67.143  0.00  0.00    +0.108 C 
ATOM     28  C   UNL     1      -9.895  19.319  66.090  0.00  0.00    +0.061 C 
ATOM     29  C   UNL     1      -9.483  18.246  69.064  0.00  0.00    +0.099 C 
ENDBRANCH  17  18
ENDBRANCH   2  17
TORSDOF 5
ENDMDL
MODEL 5
REMARK VINA RESULT:      -7.8      2.456      6.196
REMARK  Name = 
REMARK  5 active torsions:
REMARK  status: ('A' for Active; 'I' for Inactive)
REMARK    1  A    between atoms: C_2  and  O_3
REMARK    2  A    between atoms: C_2  and  C_16
REMARK    3  A    between atoms: O_3  and  C_4
REMARK    4  A    between atoms: C_16  and  C_18
REMARK    5  A    between atoms: C_16  and  C_24
REMARK                            x       y       z     vdW  Elec       q    Type
REMARK                         _______ _______ _______ _____ _____    ______ ____
ROOT
ATOM      1  O   UNL     1     -11.138  15.811  66.855  0.00  0.00    -0.247 OA
ATOM      2  C   UNL     1     -10.976  15.420  67.144  0.00  0.00    +0.353 C 
ENDROOT
BRANCH   2   3
ATOM      3  C   UNL     1     -10.578  15.945  68.436  0.00  0.00    +0.252 C 
ATOM      4  O   UNL     1     -11.115  17.254  68.328  0.00  0.00    -0.205 OA
BRANCH   3   5
ATOM      5  C   UNL     1      -9.125  16.010  68.593  0.00  0.00    +0.019 A 
ATOM      6  C   UNL     1      -8.429  14.980  69.156  0.00  0.00    -0.001 A 
ATOM      7  C   UNL     1      -7.108  15.160  69.542  0.00  0.00    -0.000 A 
ATOM      8  C   UNL     1      -6.525  16.416  69.479  0.00  0.00    -0.000 A 
ATOM      9  C   UNL     1      -7.190  17.386  68.758  0.00  0.00    -0.000 A 
ATOM     10  C   UNL     1      -8.546  17.268  68.579  0.00  0.00    -0.001 A 
ENDBRANCH   3   5
BRANCH   3  11
ATOM     11  C   UNL     1     -11.225  15.347  69.600  0.00  0.00    +0.019 A 
ATOM     12  C   UNL     1     -11.317  16.225  70.675  0.00  0.00    -0.001 A 
ATOM     13  C   UNL     1     -12.050  15.941  71.791  0.00  0.00    -0.000 A 
ATOM     14  C   UNL     1     -12.842  14.812  71.754  0.00  0.00    -0.000 A 
ATOM     15  C   UNL     1     -12.482  13.814  70.863  0.00  0.00    -0.000 A 
ATOM     16  C   UNL     1     -11.703  14.087  69.745  0.00  0.00    -0.001 A 
ENDBRANCH   3  11
ENDBRANCH   2   3
BRANCH   2  17
ATOM     17  O   UNL     1     -10.281  14.765  66.134  0.00  0.00    -0.450 OA
BRANCH  17  18
ATOM     18  C   UNL     1     -10.314  13.420  66.378  0.00  0.00    +0.180 C 
ATOM     19  C   UNL     1      -9.055  12.698  66.416  0.00  0.00    +0.099 C 
ATOM     20  C   UNL     1      -9.123  11.126  66.920  0.00  0.00    +0.062 C 
ATOM     21  N   UNL     1     -10.336  10.626  65.957  0.00  0.00    +0.289 N 
ATOM     22  C   UNL     1     -10.568  11.833  66.853  0.00  0.00    +0.062 C 
ATOM     23  C   UNL     1     -11.524  11.016  67.864  0.00  0.00    +0.061 C 
ATOM     24  C   UNL     1     -10.199  11.402  64.718  0.00  0.00    +0.108 C 
ATOM     25  C   UNL     1      -9.998  10.420  63.595  0.00  0.00    +0.067 C 
ATOM     26  C   UNL     1      -8.926   9.616  64.314  0.00  0.00    +0.067 C 
ATOM     27  C   UNL     1      -9.423   9.734  65.745  0.00  0.00    +0.108 C 
ATOM     28  C   UNL     1     -10.031  11.261  68.301  0.00  0.00    +0.061 C 
ATOM     29  C   UNL     1     -11.629  12.722  65.961  0.00  0.00    +0.099 C 
ENDBRANCH  17  18
ENDBRANCH   2  17
TORSDOF 5
ENDMDL
MODEL 6
REMARK VINA RESULT:      -7.8      4.008      7.929
REMARK  Name = 
REMARK  5 active torsions:
REMARK  status: ('A' for Active; 'I' for Inactive)
REMARK    1  A    between atoms: C_2  and  O_3
REMARK    2  A    between atoms: C_2  and  C_16
REMARK    3  A    between atoms: O_3  and  C_4
REMARK    4  A    between atoms: C_16  and  C_18
REMARK    5  A    between atoms: C_16  and  C_24
REMARK                            x       y       z     vdW  Elec       q    Type
REMARK                         _______ _______ _______ _____ _____    ______ ____
ROOT
ATOM      1  O   UNL     1     -11.999  12.519  68.416  0.00  0.00    -0.247 OA
ATOM      2  C   UNL     1     -11.591  12.280  68.217  0.00  0.00    +0.353 C 
ENDROOT
BRANCH   2   3
ATOM      3  C   UNL     1     -11.150  13.030  67.056  0.00  0.00    +0.252 C 
ATOM      4  O   UNL     1     -12.021  14.145  67.156  0.00  0.00    -0.205 OA
BRANCH   3   5
ATOM      5  C   UNL     1     -11.389  12.316  65.801  0.00  0.00    +0.019 A 
ATOM      6  C   UNL     1     -10.433  11.511  65.254  0.00  0.00    -0.001 A 
ATOM      7  C   UNL     1     -10.566  11.060  63.948  0.00  0.00    -0.000 A 
ATOM      8  C   UNL     1     -11.600  11.524  63.149  0.00  0.00    -0.000 A 
ATOM      9  C   UNL     1     -12.629  12.195  63.774  0.00  0.00    -0.000 A 
ATOM     10  C   UNL     1     -12.389  12.807  64.979  0.00  0.00    -0.001 A 
ENDBRANCH   3   5
BRANCH   3  11
ATOM     11  C   UNL     1      -9.798  13.577  67.121  0.00  0.00    +0.019 A 
ATOM     12  C   UNL     1      -9.665  14.770  66.418  0.00  0.00    -0.001 A 
ATOM     13  C   UNL     1      -8.548  15.549  66.500  0.00  0.00    -0.000 A 
ATOM     14  C   UNL     1      -7.604  15.197  67.443  0.00  0.00    -0.000 A 
ATOM     15  C   UNL     1      -7.587  13.876  67.861  0.00  0.00    -0.000 A 
ATOM     16  C   UNL     1      -8.709  13.064  67.744  0.00  0.00    -0.001 A 
ENDBRANCH   3  11
ENDBRANCH   2   3
BRANCH   2  17
ATOM     17  O   UNL     1     -12.080  10.990  68.380  0.00  0.00    -0.450 OA
BRANCH  17  18
ATOM     18  C   UNL     1     -11.038  10.161  68.694  0.00  0.00    +0.180 C 
ATOM     19  C   UNL     1     -10.689   9.111  67.754  0.00  0.00    +0.099 C 
ATOM     20  C   UNL     1      -9.301   8.272  68.070  0.00  0.00    +0.062 C 
ATOM     21  N   UNL     1      -9.590   7.924  69.633  0.00  0.00    +0.289 N 
ATOM     22  C   UNL     1      -9.642   9.378  69.190  0.00  0.00    +0.062 C 
ATOM     23  C   UNL     1      -8.245   9.745  69.910  0.00  0.00    +0.061 C 
ATOM     24  C   UNL     1     -11.046   7.762  69.736  0.00  0.00    +0.108 C 
ATOM     25  C   UNL     1     -11.307   6.363  70.226  0.00  0.00    +0.067 C 
ATOM     26  C   UNL     1     -10.364   5.699  69.235  0.00  0.00    +0.067 C 
ATOM     27  C   UNL     1      -9.288   6.767  69.139  0.00  0.00    +0.108 C 
ATOM     28  C   UNL     1      -8.228   9.505  68.354  0.00  0.00    +0.061 C 
ATOM     29  C   UNL     1     -10.773  10.007  70.209  0.00  0.00    +0.099 C 
ENDBRANCH  17  18
ENDBRANCH   2  17
TORSDOF 5
ENDMDL
MODEL 7
REMARK VINA RESULT:      -7.8      1.770      4.186
REMARK  Name = 
REMARK  5 active torsions:
REMARK  status: ('A' for Active; 'I' for Inactive)
REMARK    1  A    between atoms: C_2  and  O_3
REMARK    2  A    between atoms: C_2  and  C_16
REMARK    3  A    between atoms: O_3  and  C_4
REMARK    4  A    between atoms: C_16  and  C_18
REMARK    5  A    between atoms: C_16  and  C_24
REMARK                            x       y       z     vdW  Elec       q    Type
REMARK                         _______ _______ _______ _____ _____    ______ ____
ROOT
ATOM      1  O   UNL     1      -8.934  13.443  67.014  0.00  0.00    -0.247 OA
ATOM      2  C   UNL     1      -9.413  13.596  67.115  0.00  0.00    +0.353 C 
ENDROOT
BRANCH   2   3
ATOM      3  C   UNL     1     -10.249  12.417  67.234  0.00  0.00    +0.252 C 
ATOM      4  O   UNL     1      -9.244  11.443  67.464  0.00  0.00    -0.205 OA
BRANCH   3   5
ATOM      5  C   UNL     1     -10.970  12.112  65.997  0.00  0.00    +0.019 A 
ATOM      6  C   UNL     1     -10.369  11.431  64.980  0.00  0.00    -0.001 A 
ATOM      7  C   UNL     1     -10.963  11.385  63.726  0.00  0.00    -0.000 A 
ATOM      8  C   UNL     1     -12.100  12.132  63.462  0.00  0.00    -0.000 A 
ATOM      9  C   UNL     1     -12.769  12.668  64.542  0.00  0.00    -0.000 A 
ATOM     10  C   UNL     1     -12.078  12.890  65.707  0.00  0.00    -0.001 A 
ENDBRANCH   3   5
BRANCH   3  11
ATOM     11  C   UNL     1     -11.125  12.365  68.401  0.00  0.00    +0.019 A 
ATOM     12  C   UNL     1     -11.517  11.069  68.722  0.00  0.00    -0.001 A 
ATOM     13  C   UNL     1     -12.176  10.769  69.879  0.00  0.00    -0.000 A 
ATOM     14  C   UNL     1     -12.298  11.777  70.813  0.00  0.00    -0.000 A 
ATOM     15  C   UNL     1     -12.223  13.081  70.352  0.00  0.00    -0.000 A 
ATOM     16  C   UNL     1     -11.589  13.392  69.154  0.00  0.00    -0.001 A 
ENDBRANCH   3  11
ENDBRANCH   2   3
BRANCH   2  17
ATOM     17  O   UNL     1      -9.414  14.672  66.236  0.00  0.00    -0.450 OA
BRANCH  17  18
ATOM     18  C   UNL     1      -8.896  15.764  66.877  0.00  0.00    +0.180 C 
ATOM     19  C   UNL     1      -9.652  16.339  67.975  0.00  0.00    +0.099 C 
ATOM     20  C   UNL     1      -8.897  17.517  68.852  0.00  0.00    +0.062 C 
ATOM     21  N   UNL     1      -8.399  18.447  67.613  0.00  0.00    +0.289 N 
ATOM     22  C   UNL     1      -8.010  16.976  67.622  0.00  0.00    +0.062 C 
ATOM     23  C   UNL     1      -6.472  17.290  67.995  0.00  0.00    +0.061 C 
ATOM     24  C   UNL     1      -9.432  18.307  66.578  0.00  0.00    +0.108 C 
ATOM     25  C   UNL     1      -9.988  19.680  66.312  0.00  0.00    +0.067 C 
ATOM     26  C   UNL     1     -10.181  20.029  67.780  0.00  0.00    +0.067 C 
ATOM     27  C   UNL     1      -8.992  19.300  68.382  0.00  0.00    +0.108 C 
ATOM     28  C   UNL     1      -7.425  16.813  69.153  0.00  0.00    +0.061 C 
ATOM     29  C   UNL     1      -7.949  16.628  66.013  0.00  0.00    +0.099 C 
ENDBRANCH  17  18
ENDBRANCH   2  17
TORSDOF 5
ENDMDL
MODEL 8
REMARK VINA RESULT:      -7.7      1.682      3.050
REMARK  Name = 
REMARK  5 active torsions:
REMARK  status: ('A' for Active; 'I' for Inactive)
REMARK    1  A    between atoms: C_2  and  O_3
REMARK    2  A    between atoms: C_2  and  C_16
REMARK    3  A    between atoms: O_3  and  C_4
REMARK    4  A    between atoms: C_16  and  C_18
REMARK    5  A    between atoms: C_16  and  C_24
REMARK                            x       y       z     vdW  Elec       q    Type
REMARK                         _______ _______ _______ _____ _____    ______ ____
ROOT
ATOM      1  O   UNL     1      -9.117  15.639  65.854  0.00  0.00    -0.247 OA
ATOM      2  C   UNL     1      -9.094  15.223  66.152  0.00  0.00    +0.353 C 
ENDROOT
BRANCH   2   3
ATOM      3  C   UNL     1     -10.433  14.682  66.279  0.00  0.00    +0.252 C 
ATOM      4  O   UNL     1     -11.160  15.708  65.623  0.00  0.00    -0.205 OA
BRANCH   3   5
ATOM      5  C   UNL     1     -10.866  14.571  67.673  0.00  0.00    +0.019 A 
ATOM      6  C   UNL     1     -10.915  13.362  68.302  0.00  0.00    -0.001 A 
ATOM      7  C   UNL     1     -11.574  13.236  69.518  0.00  0.00    -0.000 A 
ATOM      8  C   UNL     1     -12.293  14.301  70.038  0.00  0.00    -0.000 A 
ATOM      9  C   UNL     1     -12.086  15.540  69.471  0.00  0.00    -0.000 A 
ATOM     10  C   UNL     1     -11.625  15.612  68.180  0.00  0.00    -0.001 A 
ENDBRANCH   3   5
BRANCH   3  11
ATOM     11  C   UNL     1     -10.707  13.461  65.526  0.00  0.00    +0.019 A 
ATOM     12  C   UNL     1     -11.903  13.521  64.820  0.00  0.00    -0.001 A 
ATOM     13  C   UNL     1     -12.262  12.574  63.904  0.00  0.00    -0.000 A 
ATOM     14  C   UNL     1     -11.314  11.627  63.575  0.00  0.00    -0.000 A 
ATOM     15  C   UNL     1     -10.313  11.383  64.501  0.00  0.00    -0.000 A 
ATOM     16  C   UNL     1      -9.969  12.326  65.462  0.00  0.00    -0.001 A 
ENDBRANCH   3  11
ENDBRANCH   2   3
BRANCH   2  17
ATOM     17  O   UNL     1      -8.195  15.749  67.072  0.00  0.00    -0.450 OA
BRANCH  17  18
ATOM     18  C   UNL     1      -8.407  17.096  67.174  0.00  0.00    +0.180 C 
ATOM     19  C   UNL     1      -7.705  17.973  66.254  0.00  0.00    +0.099 C 
ATOM     20  C   UNL     1      -8.148  19.565  66.272  0.00  0.00    +0.062 C 
ATOM     21  N   UNL     1      -8.066  19.811  67.878  0.00  0.00    +0.289 N 
ATOM     22  C   UNL     1      -8.935  18.676  67.360  0.00  0.00    +0.062 C 
ATOM     23  C   UNL     1     -10.309  19.458  67.680  0.00  0.00    +0.061 C 
ATOM     24  C   UNL     1      -6.980  18.944  68.353  0.00  0.00    +0.108 C 
ATOM     25  C   UNL     1      -5.944  19.831  68.990  0.00  0.00    +0.067 C 
ATOM     26  C   UNL     1      -5.905  20.831  67.845  0.00  0.00    +0.067 C 
ATOM     27  C   UNL     1      -7.360  20.788  67.408  0.00  0.00    +0.108 C 
ATOM     28  C   UNL     1      -9.801  19.448  66.191  0.00  0.00    +0.061 C 
ATOM     29  C   UNL     1      -8.827  17.577  68.582  0.00  0.00    +0.099 C 
ENDBRANCH  17  18
ENDBRANCH   2  17
TORSDOF 5
ENDMDL
MODEL 9
REMARK VINA RESULT:      -7.7      4.235      7.062
REMARK  Name = 
REMARK  5 active torsions:
REMARK  status: ('A' for Active; 'I' for Inactive)
REMARK    1  A    between atoms: C_2  and  O_3
REMARK    2  A    between atoms: C_2  and  C_16
REMARK    3  A    between atoms: O_3  and  C_4
REMARK    4  A    between atoms: C_16  and  C_18
REMARK    5  A    between atoms: C_16  and  C_24
REMARK                            x       y       z     vdW  Elec       q    Type
REMARK                         _______ _______ _______ _____ _____    ______ ____
ROOT
ATOM      1  O   UNL     1      -8.680  10.290  69.506  0.00  0.00    -0.247 OA
ATOM      2  C   UNL     1      -9.145  10.137  69.355  0.00  0.00    +0.353 C 
ENDROOT
BRANCH   2   3
ATOM      3  C   UNL     1      -9.572   9.060  70.227  0.00  0.00    +0.252 C 
ATOM      4  O   UNL     1      -8.522   9.104  71.180  0.00  0.00    -0.205 OA
BRANCH   3   5
ATOM      5  C   UNL     1      -9.583   7.761  69.552  0.00  0.00    +0.019 A 
ATOM      6  C   UNL     1     -10.609   7.404  68.726  0.00  0.00    -0.001 A 
ATOM      7  C   UNL     1     -10.744   6.086  68.312  0.00  0.00    -0.000 A 
ATOM      8  C   UNL     1      -9.918   5.101  68.833  0.00  0.00    -0.000 A 
ATOM      9  C   UNL     1      -8.800   5.514  69.526  0.00  0.00    -0.000 A 
ATOM     10  C   UNL     1      -8.797   6.761  70.099  0.00  0.00    -0.001 A 
ENDBRANCH   3   5
BRANCH   3  11
ATOM     11  C   UNL     1     -10.800   9.292  70.981  0.00  0.00    +0.019 A 
ATOM     12  C   UNL     1     -11.482  10.430  70.563  0.00  0.00    -0.001 A 
ATOM     13  C   UNL     1     -12.741  10.730  70.996  0.00  0.00    -0.000 A 
ATOM     14  C   UNL     1     -13.393   9.773  71.746  0.00  0.00    -0.000 A 
ATOM     15  C   UNL     1     -12.608   8.850  72.416  0.00  0.00    -0.000 A 
ATOM     16  C   UNL     1     -11.311   8.567  72.006  0.00  0.00    -0.001 A 
ENDBRANCH   3  11
ENDBRANCH   2   3
BRANCH   2  17
ATOM     17  O   UNL     1      -8.889  10.205  67.990  0.00  0.00    -0.450 OA
BRANCH  17  18
ATOM     18  C   UNL     1      -9.620  11.230  67.456  0.00  0.00    +0.180 C 
ATOM     19  C   UNL     1     -10.991  10.963  67.062  0.00  0.00    +0.099 C 
ATOM     20  C   UNL     1     -11.898  12.272  66.620  0.00  0.00    +0.062 C 
ATOM     21  N   UNL     1     -10.848  12.939  65.571  0.00  0.00    +0.289 N 
ATOM     22  C   UNL     1     -10.376  12.650  66.987  0.00  0.00    +0.062 C 
ATOM     23  C   UNL     1     -10.381  14.208  67.406  0.00  0.00    +0.061 C 
ATOM     24  C   UNL     1     -10.135  11.810  64.958  0.00  0.00    +0.108 C 
ATOM     25  C   UNL     1     -10.390  11.871  63.476  0.00  0.00    +0.067 C 
ATOM     26  C   UNL     1     -11.894  12.061  63.609  0.00  0.00    +0.067 C 
ATOM     27  C   UNL     1     -11.942  12.891  64.881  0.00  0.00    +0.108 C 
ATOM     28  C   UNL     1     -11.595  13.320  67.870  0.00  0.00    +0.061 C 
ATOM     29  C   UNL     1      -8.779  12.323  66.756  0.00  0.00    +0.099 C 
ENDBRANCH  17  18
ENDBRANCH   2  17
TORSDOF 5
ENDMDL
