MODEL 1
REMARK VINA RESULT:      -7.8      0.000      0.000
REMARK  Name = 
REMARK  13 active torsions:
REMARK  status: ('A' for Active; 'I' for Inactive)
REMARK    1  A    between atoms: O_2  and  C_3
REMARK    2  A    between atoms: C_3  and  C_4
REMARK    3  A    between atoms: C_6  and  C_7
REMARK    4  A    between atoms: C_10  and  C_11
REMARK    5  A    between atoms: C_24  and  C_25
REMARK    6  A    between atoms: C_31  and  C_33
REMARK    7  A    between atoms: C_33  and  N_34
REMARK    8  A    between atoms: C_33  and  C_39
REMARK    9  A    between atoms: C_35  and  O_37
REMARK   10  A    between atoms: C_51  and  C_53
REMARK   11  A    between atoms: C_53  and  N_54
REMARK   12  A    between atoms: C_53  and  C_59
REMARK   13  A    between atoms: C_55  and  O_57
REMARK                            x       y       z     vdW  Elec       q    Type
REMARK                         _______ _______ _______ _____ _____    ______ ____
ROOT
ATOM      1  C   UNL     1     -10.747   8.233  70.440  0.00  0.00    +0.019 A 
ATOM      2  C   UNL     1     -11.164   9.395  71.086  0.00  0.00    +0.001 A 
ATOM      3  C   UNL     1     -11.456  10.571  70.410  0.00  0.00    +0.021 A 
ATOM      4  C   UNL     1     -12.403  11.563  71.030  0.00  0.00    +0.232 C 
ATOM      5  O   UNL     1     -12.145  12.799  70.406  0.00  0.00    -0.471 OA
ATOM      6  C   UNL     1     -11.512  12.915  69.189  0.00  0.00    +0.139 A 
ATOM      7  C   UNL     1     -11.491  11.807  68.348  0.00  0.00    +0.034 A 
ATOM      8  C   UNL     1     -11.131  11.989  67.035  0.00  0.00    +0.003 A 
ATOM      9  C   UNL     1     -10.817  13.279  66.622  0.00  0.00    +0.002 A 
ATOM     10  C   UNL     1     -10.424  14.209  67.559  0.00  0.00    +0.022 A 
ATOM     11  C   UNL     1      -9.590  15.270  67.275  0.00  0.00    +0.100 A 
ATOM     12  C   UNL     1      -9.324  15.519  65.932  0.00  0.00    +0.100 A 
ATOM     13  C   UNL     1     -10.063  14.844  64.980  0.00  0.00    +0.021 A 
ATOM     14  N   UNL     1      -8.566  16.613  65.935  0.00  0.00    -0.228 NA
ATOM     15  C   UNL     1      -8.169  16.932  67.164  0.00  0.00    +0.157 A 
ATOM     16  N   UNL     1      -8.561  15.874  67.929  0.00  0.00    -0.228 NA
ATOM     17  C   UNL     1     -10.634  13.622  65.302  0.00  0.00    +0.002 A 
ATOM     18  C   UNL     1     -10.823  14.082  68.871  0.00  0.00    +0.038 A 
ATOM     19  C   UNL     1     -11.481  10.504  69.023  0.00  0.00    +0.002 A 
ATOM     20  C   UNL     1     -10.917   9.432  68.359  0.00  0.00    -0.000 A 
ATOM     21  C   UNL     1     -10.849   8.240  69.049  0.00  0.00    +0.002 A 
ENDROOT
BRANCH  15  22
ATOM     22  C   UNL     1      -6.617  17.404  67.277  0.00  0.00    +0.134 C 
ATOM     23  N   UNL     1      -6.963  18.867  66.800  0.00  0.00    -0.275 N 
ATOM     24  C   UNL     1      -6.765  19.332  65.500  0.00  0.00    +0.246 C 
ATOM     25  O   UNL     1      -7.745  19.965  64.987  0.00  0.00    -0.273 OA
ATOM     26  C   UNL     1      -6.709  19.744  68.061  0.00  0.00    +0.076 C 
ATOM     27  C   UNL     1      -7.867  20.829  67.607  0.00  0.00    +0.022 C 
ATOM     28  C   UNL     1      -7.799  18.832  68.881  0.00  0.00    +0.022 C 
ATOM     29  C   UNL     1      -6.786  17.711  68.887  0.00  0.00    +0.029 C 
BRANCH  24  30
ATOM     30  C   UNL     1      -5.458  20.229  65.165  0.00  0.00    +0.175 C 
BRANCH  30  31
ATOM     31  C   UNL     1      -5.644  20.063  63.537  0.00  0.00    +0.029 C 
ATOM     32  C   UNL     1      -5.344  21.259  62.837  0.00  0.00    +0.002 C 
ATOM     33  C   UNL     1      -5.031  18.779  63.135  0.00  0.00    +0.002 C 
ENDBRANCH  30  31
BRANCH  30  34
ATOM     34  N   UNL     1      -4.466  19.005  65.298  0.00  0.00    -0.161 NA
ATOM     35  C   UNL     1      -3.441  19.103  66.229  0.00  0.00    +0.422 C 
ATOM     36  O   UNL     1      -3.258  20.228  66.791  0.00  0.00    -0.225 OA
BRANCH  35  37
ATOM     37  O   UNL     1      -2.392  18.182  66.132  0.00  0.00    -0.429 OA
ATOM     38  C   UNL     1      -2.719  16.941  65.495  0.00  0.00    +0.257 C 
ENDBRANCH  35  37
ENDBRANCH  30  34
ENDBRANCH  24  30
ENDBRANCH  15  22
BRANCH   1  41
ATOM     39  C   UNL     1     -10.523   5.309  72.365  0.00  0.00    +0.157 A 
ATOM     40  N   UNL     1     -10.136   6.351  71.687  0.00  0.00    -0.227 NA
ATOM     41  C   UNL     1     -11.179   6.979  71.076  0.00  0.00    +0.102 A 
ATOM     42  C   UNL     1     -12.251   6.720  71.910  0.00  0.00    +0.119 A 
ATOM     43  N   UNL     1     -11.877   5.553  72.483  0.00  0.00    -0.226 NA
BRANCH  39  49
ATOM     44  C   UNL     1      -9.540   5.603  75.199  0.00  0.00    +0.052 C 
ATOM     45  C   UNL     1     -10.064   4.071  75.591  0.00  0.00    +0.096 C 
ATOM     46  N   UNL     1     -10.536   3.641  74.256  0.00  0.00    -0.273 N 
ATOM     47  C   UNL     1     -10.102   2.742  73.328  0.00  0.00    +0.250 C 
ATOM     48  O   UNL     1      -9.413   2.736  72.324  0.00  0.00    -0.273 OA
ATOM     49  C   UNL     1     -10.312   5.178  73.955  0.00  0.00    +0.134 C 
ATOM     50  C   UNL     1      -8.642   4.884  74.019  0.00  0.00    +0.032 C 
BRANCH  47  51
ATOM     51  C   UNL     1     -10.504   1.288  73.933  0.00  0.00    +0.197 C 
BRANCH  51  52
ATOM     52  C   UNL     1     -11.773   1.083  72.938  0.00  0.00    +0.006 A 
ATOM     53  C   UNL     1     -12.998   1.009  73.506  0.00  0.00    -0.002 A 
ATOM     54  C   UNL     1     -14.009   0.417  72.758  0.00  0.00    -0.000 A 
ATOM     55  C   UNL     1     -13.638  -0.774  72.143  0.00  0.00    -0.000 A 
ATOM     56  C   UNL     1     -12.290  -1.096  72.035  0.00  0.00    -0.000 A 
ATOM     57  C   UNL     1     -11.449   0.016  72.093  0.00  0.00    -0.002 A 
ENDBRANCH  51  52
BRANCH  51  58
ATOM     58  N   UNL     1      -9.497   0.538  72.964  0.00  0.00    -0.157 NA
ATOM     59  C   UNL     1      -8.612  -0.218  73.717  0.00  0.00    +0.422 C 
ATOM     60  O   UNL     1      -8.052   0.291  74.729  0.00  0.00    -0.225 OA
BRANCH  59  61
ATOM     61  O   UNL     1      -8.147  -1.463  73.316  0.00  0.00    -0.429 OA
ATOM     62  C   UNL     1      -8.172  -1.845  71.950  0.00  0.00    +0.257 C 
ENDBRANCH  59  61
ENDBRANCH  51  58
ENDBRANCH  47  51
BRANCH  44  63
ATOM     63  C   UNL     1      -8.530   5.844  76.451  0.00  0.00    +0.144 C 
BRANCH  63  65
ATOM     64  C   UNL     1      -7.665   7.583  75.871  0.00  0.00    +0.174 C 
ATOM     65  O   UNL     1      -8.186   6.992  75.666  0.00  0.00    -0.351 OA
ENDBRANCH  63  65
ENDBRANCH  44  63
ENDBRANCH  39  49
ENDBRANCH   1  41
TORSDOF 13
ENDMDL
MODEL 2
REMARK VINA RESULT:      -7.0      1.860      2.451
REMARK  Name = 
REMARK  13 active torsions:
REMARK  status: ('A' for Active; 'I' for Inactive)
REMARK    1  A    between atoms: O_2  and  C_3
REMARK    2  A    between atoms: C_3  and  C_4
REMARK    3  A    between atoms: C_6  and  C_7
REMARK    4  A    between atoms: C_10  and  C_11
REMARK    5  A    between atoms: C_24  and  C_25
REMARK    6  A    between atoms: C_31  and  C_33
REMARK    7  A    between atoms: C_33  and  N_34
REMARK    8  A    between atoms: C_33  and  C_39
REMARK    9  A    between atoms: C_35  and  O_37
REMARK   10  A    between atoms: C_51  and  C_53
REMARK   11  A    between atoms: C_53  and  N_54
REMARK   12  A    between atoms: C_53  and  C_59
REMARK   13  A    between atoms: C_55  and  O_57
REMARK                            x       y       z     vdW  Elec       q    Type
REMARK                         _______ _______ _______ _____ _____    ______ ____
ROOT
ATOM      1  C   UNL     1     -10.295   8.089  71.637  0.00  0.00    +0.019 A 
ATOM      2  C   UNL     1     -11.259   9.041  71.962  0.00  0.00    +0.001 A 
ATOM      3  C   UNL     1     -11.658  10.040  71.084  0.00  0.00    +0.021 A 
ATOM      4  C   UNL     1     -13.026  10.650  71.234  0.00  0.00    +0.232 C 
ATOM      5  O   UNL     1     -12.978  11.894  70.576  0.00  0.00    -0.471 OA
ATOM      6  C   UNL     1     -12.035  12.210  69.624  0.00  0.00    +0.139 A 
ATOM      7  C   UNL     1     -11.370  11.171  68.982  0.00  0.00    +0.034 A 
ATOM      8  C   UNL     1     -10.656  11.455  67.844  0.00  0.00    +0.003 A 
ATOM      9  C   UNL     1     -10.648  12.770  67.395  0.00  0.00    +0.002 A 
ATOM     10  C   UNL     1     -10.925  13.787  68.282  0.00  0.00    +0.022 A 
ATOM     11  C   UNL     1     -10.430  15.068  68.151  0.00  0.00    +0.100 A 
ATOM     12  C   UNL     1      -9.810  15.382  66.946  0.00  0.00    +0.100 A 
ATOM     13  C   UNL     1      -9.915  14.486  65.900  0.00  0.00    +0.021 A 
ATOM     14  N   UNL     1      -9.493  16.670  67.055  0.00  0.00    -0.228 NA
ATOM     15  C   UNL     1      -9.671  17.116  68.296  0.00  0.00    +0.157 A 
ATOM     16  N   UNL     1      -9.943  15.994  69.021  0.00  0.00    -0.228 NA
ATOM     17  C   UNL     1     -10.140  13.145  66.172  0.00  0.00    +0.002 A 
ATOM     18  C   UNL     1     -11.691  13.541  69.401  0.00  0.00    +0.038 A 
ATOM     19  C   UNL     1     -11.178   9.956  69.783  0.00  0.00    +0.002 A 
ATOM     20  C   UNL     1     -10.108   9.138  69.479  0.00  0.00    -0.000 A 
ATOM     21  C   UNL     1      -9.905   8.048  70.298  0.00  0.00    +0.002 A 
ENDROOT
BRANCH  15  22
ATOM     22  C   UNL     1      -8.493  18.095  68.843  0.00  0.00    +0.134 C 
ATOM     23  N   UNL     1      -8.166  18.615  67.391  0.00  0.00    -0.275 N 
ATOM     24  C   UNL     1      -7.100  18.153  66.617  0.00  0.00    +0.246 C 
ATOM     25  O   UNL     1      -7.383  17.861  65.410  0.00  0.00    -0.273 OA
ATOM     26  C   UNL     1      -8.611  20.107  67.416  0.00  0.00    +0.076 C 
ATOM     27  C   UNL     1      -8.976  20.082  65.807  0.00  0.00    +0.022 C 
ATOM     28  C   UNL     1     -10.122  19.620  67.829  0.00  0.00    +0.022 C 
ATOM     29  C   UNL     1      -9.586  19.276  69.199  0.00  0.00    +0.029 C 
BRANCH  24  30
ATOM     30  C   UNL     1      -5.738  19.027  66.536  0.00  0.00    +0.175 C 
BRANCH  30  31
ATOM     31  C   UNL     1      -4.888  17.810  65.824  0.00  0.00    +0.029 C 
ATOM     32  C   UNL     1      -4.003  18.286  64.823  0.00  0.00    +0.002 C 
ATOM     33  C   UNL     1      -4.406  16.905  66.889  0.00  0.00    +0.002 C 
ENDBRANCH  30  31
BRANCH  30  34
ATOM     34  N   UNL     1      -5.292  18.644  68.003  0.00  0.00    -0.161 NA
ATOM     35  C   UNL     1      -5.174  19.670  68.930  0.00  0.00    +0.422 C 
ATOM     36  O   UNL     1      -5.263  20.865  68.506  0.00  0.00    -0.225 OA
BRANCH  35  37
ATOM     37  O   UNL     1      -4.486  19.391  70.116  0.00  0.00    -0.429 OA
ATOM     38  C   UNL     1      -5.240  19.569  71.322  0.00  0.00    +0.257 C 
ENDBRANCH  35  37
ENDBRANCH  30  34
ENDBRANCH  24  30
ENDBRANCH  15  22
BRANCH   1  41
ATOM     39  C   UNL     1      -9.736   4.695  72.325  0.00  0.00    +0.157 A 
ATOM     40  N   UNL     1      -9.666   5.838  71.705  0.00  0.00    -0.227 NA
ATOM     41  C   UNL     1     -10.496   6.768  72.253  0.00  0.00    +0.102 A 
ATOM     42  C   UNL     1     -10.566   6.400  73.584  0.00  0.00    +0.119 A 
ATOM     43  N   UNL     1     -10.328   5.070  73.514  0.00  0.00    -0.226 NA
BRANCH  39  49
ATOM     44  C   UNL     1      -6.958   3.969  73.243  0.00  0.00    +0.052 C 
ATOM     45  C   UNL     1      -7.435   2.417  73.617  0.00  0.00    +0.096 C 
ATOM     46  N   UNL     1      -8.834   2.486  73.140  0.00  0.00    -0.273 N 
ATOM     47  C   UNL     1      -9.520   1.938  72.097  0.00  0.00    +0.250 C 
ATOM     48  O   UNL     1      -9.848   2.246  70.966  0.00  0.00    -0.273 OA
ATOM     49  C   UNL     1      -8.471   4.023  73.058  0.00  0.00    +0.134 C 
ATOM     50  C   UNL     1      -7.497   3.659  71.717  0.00  0.00    +0.032 C 
BRANCH  47  51
ATOM     51  C   UNL     1      -9.743   0.383  72.513  0.00  0.00    +0.197 C 
BRANCH  51  52
ATOM     52  C   UNL     1     -11.354   0.423  72.302  0.00  0.00    +0.006 A 
ATOM     53  C   UNL     1     -12.099   0.903  73.323  0.00  0.00    -0.002 A 
ATOM     54  C   UNL     1     -13.445   0.553  73.345  0.00  0.00    -0.000 A 
ATOM     55  C   UNL     1     -13.686  -0.794  73.101  0.00  0.00    -0.000 A 
ATOM     56  C   UNL     1     -12.680  -1.579  72.551  0.00  0.00    -0.000 A 
ATOM     57  C   UNL     1     -11.729  -0.843  71.843  0.00  0.00    -0.002 A 
ENDBRANCH  51  52
BRANCH  51  58
ATOM     58  N   UNL     1      -9.462  -0.116  71.033  0.00  0.00    -0.157 NA
ATOM     59  C   UNL     1      -8.323  -0.906  71.023  0.00  0.00    +0.422 C 
ATOM     60  O   UNL     1      -7.284  -0.520  71.630  0.00  0.00    -0.225 OA
BRANCH  59  61
ATOM     61  O   UNL     1      -8.186  -2.027  70.217  0.00  0.00    -0.429 OA
ATOM     62  C   UNL     1      -7.566  -1.938  68.943  0.00  0.00    +0.257 C 
ENDBRANCH  59  61
ENDBRANCH  51  58
ENDBRANCH  47  51
BRANCH  44  63
ATOM     63  C   UNL     1      -5.350   3.730  73.210  0.00  0.00    +0.144 C 
BRANCH  63  65
ATOM     64  C   UNL     1      -4.714   5.651  73.337  0.00  0.00    +0.174 C 
ATOM     65  O   UNL     1      -5.357   5.154  73.370  0.00  0.00    -0.351 OA
ENDBRANCH  63  65
ENDBRANCH  44  63
ENDBRANCH  39  49
ENDBRANCH   1  41
TORSDOF 13
ENDMDL
MODEL 3
REMARK VINA RESULT:      -7.0      1.512      1.982
REMARK  Name = 
REMARK  13 active torsions:
REMARK  status: ('A' for Active; 'I' for Inactive)
REMARK    1  A    between atoms: O_2  and  C_3
REMARK    2  A    between atoms: C_3  and  C_4
REMARK    3  A    between atoms: C_6  and  C_7
REMARK    4  A    between atoms: C_10  and  C_11
REMARK    5  A    between atoms: C_24  and  C_25
REMARK    6  A    between atoms: C_31  and  C_33
REMARK    7  A    between atoms: C_33  and  N_34
REMARK    8  A    between atoms: C_33  and  C_39
REMARK    9  A    between atoms: C_35  and  O_37
REMARK   10  A    between atoms: C_51  and  C_53
REMARK   11  A    between atoms: C_53  and  N_54
REMARK   12  A    between atoms: C_53  and  C_59
REMARK   13  A    between atoms: C_55  and  O_57
REMARK                            x       y       z     vdW  Elec       q    Type
REMARK                         _______ _______ _______ _____ _____    ______ ____
ROOT
ATOM      1  C   UNL     1      -9.974   7.958  70.812  0.00  0.00    +0.019 A 
ATOM      2  C   UNL     1     -10.877   8.852  71.384  0.00  0.00    +0.001 A 
ATOM      3  C   UNL     1     -11.407   9.934  70.694  0.00  0.00    +0.021 A 
ATOM      4  C   UNL     1     -12.736  10.500  71.119  0.00  0.00    +0.232 C 
ATOM      5  O   UNL     1     -12.789  11.809  70.604  0.00  0.00    -0.471 OA
ATOM      6  C   UNL     1     -12.004  12.245  69.560  0.00  0.00    +0.139 A 
ATOM      7  C   UNL     1     -11.446  11.295  68.713  0.00  0.00    +0.034 A 
ATOM      8  C   UNL     1     -10.915  11.715  67.517  0.00  0.00    +0.003 A 
ATOM      9  C   UNL     1     -10.977  13.072  67.222  0.00  0.00    +0.002 A 
ATOM     10  C   UNL     1     -11.114  13.980  68.249  0.00  0.00    +0.022 A 
ATOM     11  C   UNL     1     -10.646  15.275  68.188  0.00  0.00    +0.100 A 
ATOM     12  C   UNL     1     -10.219  15.731  66.945  0.00  0.00    +0.100 A 
ATOM     13  C   UNL     1     -10.483  14.954  65.834  0.00  0.00    +0.021 A 
ATOM     14  N   UNL     1      -9.889  17.005  67.147  0.00  0.00    -0.228 NA
ATOM     15  C   UNL     1      -9.875  17.308  68.443  0.00  0.00    +0.157 A 
ATOM     16  N   UNL     1     -10.031  16.109  69.070  0.00  0.00    -0.228 NA
ATOM     17  C   UNL     1     -10.663  13.588  65.986  0.00  0.00    +0.002 A 
ATOM     18  C   UNL     1     -11.699  13.599  69.437  0.00  0.00    +0.038 A 
ATOM     19  C   UNL     1     -11.133  10.003  69.335  0.00  0.00    +0.002 A 
ATOM     20  C   UNL     1     -10.121   9.242  68.781  0.00  0.00    -0.000 A 
ATOM     21  C   UNL     1      -9.795   8.072  69.433  0.00  0.00    +0.002 A 
ENDROOT
BRANCH  15  22
ATOM     22  C   UNL     1      -8.627  18.241  68.909  0.00  0.00    +0.134 C 
ATOM     23  N   UNL     1      -8.331  18.694  67.427  0.00  0.00    -0.275 N 
ATOM     24  C   UNL     1      -7.323  18.151  66.631  0.00  0.00    +0.246 C 
ATOM     25  O   UNL     1      -7.668  17.833  65.446  0.00  0.00    -0.273 OA
ATOM     26  C   UNL     1      -8.698  20.207  67.416  0.00  0.00    +0.076 C 
ATOM     27  C   UNL     1      -9.128  20.148  65.824  0.00  0.00    +0.022 C 
ATOM     28  C   UNL     1     -10.214  19.815  67.904  0.00  0.00    +0.022 C 
ATOM     29  C   UNL     1      -9.642  19.489  69.264  0.00  0.00    +0.029 C 
BRANCH  24  30
ATOM     30  C   UNL     1      -5.922  18.948  66.466  0.00  0.00    +0.175 C 
BRANCH  30  31
ATOM     31  C   UNL     1      -5.126  17.624  65.896  0.00  0.00    +0.029 C 
ATOM     32  C   UNL     1      -4.141  17.961  64.934  0.00  0.00    +0.002 C 
ATOM     33  C   UNL     1      -4.791  16.761  67.050  0.00  0.00    +0.002 C 
ENDBRANCH  30  31
BRANCH  30  34
ATOM     34  N   UNL     1      -5.498  18.707  67.969  0.00  0.00    -0.161 NA
ATOM     35  C   UNL     1      -5.262  19.822  68.761  0.00  0.00    +0.422 C 
ATOM     36  O   UNL     1      -5.234  20.958  68.190  0.00  0.00    -0.225 OA
BRANCH  35  37
ATOM     37  O   UNL     1      -4.591  19.623  69.972  0.00  0.00    -0.429 OA
ATOM     38  C   UNL     1      -5.376  19.832  71.153  0.00  0.00    +0.257 C 
ENDBRANCH  35  37
ENDBRANCH  30  34
ENDBRANCH  24  30
ENDBRANCH  15  22
BRANCH   1  41
ATOM     39  C   UNL     1      -9.131   5.063  72.604  0.00  0.00    +0.157 A 
ATOM     40  N   UNL     1      -8.996   6.237  72.057  0.00  0.00    -0.227 NA
ATOM     41  C   UNL     1     -10.077   6.574  71.300  0.00  0.00    +0.102 A 
ATOM     42  C   UNL     1     -11.126   5.916  71.915  0.00  0.00    +0.119 A 
ATOM     43  N   UNL     1     -10.493   4.868  72.489  0.00  0.00    -0.226 NA
BRANCH  39  49
ATOM     44  C   UNL     1      -8.527   5.172  75.555  0.00  0.00    +0.052 C 
ATOM     45  C   UNL     1      -9.146   3.643  75.788  0.00  0.00    +0.096 C 
ATOM     46  N   UNL     1      -9.448   3.301  74.380  0.00  0.00    -0.273 N 
ATOM     47  C   UNL     1      -8.921   2.435  73.469  0.00  0.00    +0.250 C 
ATOM     48  O   UNL     1      -8.105   2.456  72.565  0.00  0.00    -0.273 OA
ATOM     49  C   UNL     1      -9.138   4.842  74.198  0.00  0.00    +0.134 C 
ATOM     50  C   UNL     1      -7.502   4.482  74.466  0.00  0.00    +0.032 C 
BRANCH  47  51
ATOM     51  C   UNL     1      -9.446   0.969  73.933  0.00  0.00    +0.197 C 
BRANCH  51  52
ATOM     52  C   UNL     1     -10.891   1.114  73.202  0.00  0.00    +0.006 A 
ATOM     53  C   UNL     1     -11.989   0.868  73.952  0.00  0.00    -0.002 A 
ATOM     54  C   UNL     1     -13.164   0.564  73.274  0.00  0.00    -0.000 A 
ATOM     55  C   UNL     1     -13.006  -0.361  72.249  0.00  0.00    -0.000 A 
ATOM     56  C   UNL     1     -11.730  -0.642  71.773  0.00  0.00    -0.000 A 
ATOM     57  C   UNL     1     -10.813   0.381  72.013  0.00  0.00    -0.002 A 
ENDBRANCH  51  52
BRANCH  51  58
ATOM     58  N   UNL     1      -8.773   0.265  72.680  0.00  0.00    -0.157 NA
ATOM     59  C   UNL     1      -8.013  -0.811  73.112  0.00  0.00    +0.422 C 
ATOM     60  O   UNL     1      -7.230  -0.675  74.094  0.00  0.00    -0.225 OA
BRANCH  59  61
ATOM     61  O   UNL     1      -7.913  -2.001  72.404  0.00  0.00    -0.429 OA
ATOM     62  C   UNL     1      -7.728  -2.000  70.997  0.00  0.00    +0.257 C 
ENDBRANCH  59  61
ENDBRANCH  51  58
ENDBRANCH  47  51
BRANCH  44  63
ATOM     63  C   UNL     1      -7.687   5.310  76.941  0.00  0.00    +0.144 C 
BRANCH  63  65
ATOM     64  C   UNL     1      -7.438   7.321  76.896  0.00  0.00    +0.174 C 
ATOM     65  O   UNL     1      -7.921   6.700  76.687  0.00  0.00    -0.351 OA
ENDBRANCH  63  65
ENDBRANCH  44  63
ENDBRANCH  39  49
ENDBRANCH   1  41
TORSDOF 13
ENDMDL
MODEL 4
REMARK VINA RESULT:      -6.5      1.569      1.881
REMARK  Name = 
REMARK  13 active torsions:
REMARK  status: ('A' for Active; 'I' for Inactive)
REMARK    1  A    between atoms: O_2  and  C_3
REMARK    2  A    between atoms: C_3  and  C_4
REMARK    3  A    between atoms: C_6  and  C_7
REMARK    4  A    between atoms: C_10  and  C_11
REMARK    5  A    between atoms: C_24  and  C_25
REMARK    6  A    between atoms: C_31  and  C_33
REMARK    7  A    between atoms: C_33  and  N_34
REMARK    8  A    between atoms: C_33  and  C_39
REMARK    9  A    between atoms: C_35  and  O_37
REMARK   10  A    between atoms: C_51  and  C_53
REMARK   11  A    between atoms: C_53  and  N_54
REMARK   12  A    between atoms: C_53  and  C_59
REMARK   13  A    between atoms: C_55  and  O_57
REMARK                            x       y       z     vdW  Elec       q    Type
REMARK                         _______ _______ _______ _____ _____    ______ ____
ROOT
ATOM      1  C   UNL     1     -10.054   7.750  69.239  0.00  0.00    +0.019 A 
ATOM      2  C   UNL     1     -10.462   8.777  70.087  0.00  0.00    +0.001 A 
ATOM      3  C   UNL     1     -10.873  10.019  69.624  0.00  0.00    +0.021 A 
ATOM      4  C   UNL     1     -11.803  10.850  70.468  0.00  0.00    +0.232 C 
ATOM      5  O   UNL     1     -11.665  12.177  70.016  0.00  0.00    -0.471 OA
ATOM      6  C   UNL     1     -11.160  12.507  68.779  0.00  0.00    +0.139 A 
ATOM      7  C   UNL     1     -11.168  11.537  67.783  0.00  0.00    +0.034 A 
ATOM      8  C   UNL     1     -10.945  11.930  66.485  0.00  0.00    +0.003 A 
ATOM      9  C   UNL     1     -10.734  13.282  66.245  0.00  0.00    +0.002 A 
ATOM     10  C   UNL     1     -10.297  14.090  67.272  0.00  0.00    +0.022 A 
ATOM     11  C   UNL     1      -9.546  15.230  67.078  0.00  0.00    +0.100 A 
ATOM     12  C   UNL     1      -9.424  15.687  65.770  0.00  0.00    +0.100 A 
ATOM     13  C   UNL     1     -10.218  15.113  64.797  0.00  0.00    +0.021 A 
ATOM     14  N   UNL     1      -8.722  16.814  65.870  0.00  0.00    -0.228 NA
ATOM     15  C   UNL     1      -8.224  16.974  67.093  0.00  0.00    +0.157 A 
ATOM     16  N   UNL     1      -8.488  15.794  67.722  0.00  0.00    -0.228 NA
ATOM     17  C   UNL     1     -10.697  13.825  64.981  0.00  0.00    +0.002 A 
ATOM     18  C   UNL     1     -10.561  13.749  68.581  0.00  0.00    +0.038 A 
ATOM     19  C   UNL     1     -11.030  10.153  68.250  0.00  0.00    +0.002 A 
ATOM     20  C   UNL     1     -10.483   9.225  67.386  0.00  0.00    -0.000 A 
ATOM     21  C   UNL     1     -10.291   7.952  67.879  0.00  0.00    +0.002 A 
ENDROOT
BRANCH  15  22
ATOM     22  C   UNL     1      -6.692  17.520  67.137  0.00  0.00    +0.134 C 
ATOM     23  N   UNL     1      -7.133  18.975  66.719  0.00  0.00    -0.275 N 
ATOM     24  C   UNL     1      -7.028  19.481  65.423  0.00  0.00    +0.246 C 
ATOM     25  O   UNL     1      -8.062  20.076  64.979  0.00  0.00    -0.273 OA
ATOM     26  C   UNL     1      -6.855  19.832  67.989  0.00  0.00    +0.076 C 
ATOM     27  C   UNL     1      -8.086  20.870  67.625  0.00  0.00    +0.022 C 
ATOM     28  C   UNL     1      -7.854  18.847  68.839  0.00  0.00    +0.022 C 
ATOM     29  C   UNL     1      -6.790  17.778  68.762  0.00  0.00    +0.029 C 
BRANCH  24  30
ATOM     30  C   UNL     1      -5.785  20.449  65.045  0.00  0.00    +0.175 C 
BRANCH  30  31
ATOM     31  C   UNL     1      -6.030  20.290  63.425  0.00  0.00    +0.029 C 
ATOM     32  C   UNL     1      -5.862  21.515  62.732  0.00  0.00    +0.002 C 
ATOM     33  C   UNL     1      -5.333  19.065  62.975  0.00  0.00    +0.002 C 
ENDBRANCH  30  31
BRANCH  30  34
ATOM     34  N   UNL     1      -4.725  19.278  65.122  0.00  0.00    -0.161 NA
ATOM     35  C   UNL     1      -3.671  19.419  66.015  0.00  0.00    +0.422 C 
ATOM     36  O   UNL     1      -3.526  20.544  66.587  0.00  0.00    -0.225 OA
BRANCH  35  37
ATOM     37  O   UNL     1      -2.580  18.556  65.864  0.00  0.00    -0.429 OA
ATOM     38  C   UNL     1      -2.906  17.168  65.733  0.00  0.00    +0.257 C 
ENDBRANCH  35  37
ENDBRANCH  30  34
ENDBRANCH  24  30
ENDBRANCH  15  22
BRANCH   1  41
ATOM     39  C   UNL     1      -9.487   4.562  70.588  0.00  0.00    +0.157 A 
ATOM     40  N   UNL     1      -9.227   5.715  70.042  0.00  0.00    -0.227 NA
ATOM     41  C   UNL     1     -10.363   6.392  69.715  0.00  0.00    +0.102 A 
ATOM     42  C   UNL     1     -11.284   5.958  70.650  0.00  0.00    +0.119 A 
ATOM     43  N   UNL     1     -10.808   4.729  70.954  0.00  0.00    -0.226 NA
BRANCH  39  49
ATOM     44  C   UNL     1      -8.120   4.478  73.273  0.00  0.00    +0.052 C 
ATOM     45  C   UNL     1      -8.412   2.845  73.425  0.00  0.00    +0.096 C 
ATOM     46  N   UNL     1      -9.033   2.599  72.105  0.00  0.00    -0.273 N 
ATOM     47  C   UNL     1      -8.652   1.944  70.971  0.00  0.00    +0.250 C 
ATOM     48  O   UNL     1      -8.128   2.208  69.904  0.00  0.00    -0.273 OA
ATOM     49  C   UNL     1      -9.023   4.180  72.080  0.00  0.00    +0.134 C 
ATOM     50  C   UNL     1      -7.342   4.105  71.870  0.00  0.00    +0.032 C 
BRANCH  47  51
ATOM     51  C   UNL     1      -8.800   0.366  71.330  0.00  0.00    +0.197 C 
BRANCH  51  52
ATOM     52  C   UNL     1     -10.413   0.339  71.123  0.00  0.00    +0.006 A 
ATOM     53  C   UNL     1     -11.168   0.012  72.195  0.00  0.00    -0.002 A 
ATOM     54  C   UNL     1     -12.462  -0.433  71.947  0.00  0.00    -0.000 A 
ATOM     55  C   UNL     1     -12.554  -1.374  70.928  0.00  0.00    -0.000 A 
ATOM     56  C   UNL     1     -11.486  -1.542  70.055  0.00  0.00    -0.000 A 
ATOM     57  C   UNL     1     -10.655  -0.424  69.976  0.00  0.00    -0.002 A 
ENDBRANCH  51  52
BRANCH  51  58
ATOM     58  N   UNL     1      -8.501  -0.066  69.833  0.00  0.00    -0.157 NA
ATOM     59  C   UNL     1      -7.460  -0.980  69.817  0.00  0.00    +0.422 C 
ATOM     60  O   UNL     1      -6.417  -0.758  70.496  0.00  0.00    -0.225 OA
BRANCH  59  61
ATOM     61  O   UNL     1      -7.408  -2.055  68.941  0.00  0.00    -0.429 OA
ATOM     62  C   UNL     1      -6.882  -1.904  67.632  0.00  0.00    +0.257 C 
ENDBRANCH  59  61
ENDBRANCH  51  58
ENDBRANCH  47  51
BRANCH  44  63
ATOM     63  C   UNL     1      -6.962   4.626  74.405  0.00  0.00    +0.144 C 
BRANCH  63  65
ATOM     64  C   UNL     1      -7.537   6.421  75.152  0.00  0.00    +0.174 C 
ATOM     65  O   UNL     1      -7.528   5.939  74.496  0.00  0.00    -0.351 OA
ENDBRANCH  63  65
ENDBRANCH  44  63
ENDBRANCH  39  49
ENDBRANCH   1  41
TORSDOF 13
ENDMDL
MODEL 5
REMARK VINA RESULT:      -6.5      2.690      3.430
REMARK  Name = 
REMARK  13 active torsions:
REMARK  status: ('A' for Active; 'I' for Inactive)
REMARK    1  A    between atoms: O_2  and  C_3
REMARK    2  A    between atoms: C_3  and  C_4
REMARK    3  A    between atoms: C_6  and  C_7
REMARK    4  A    between atoms: C_10  and  C_11
REMARK    5  A    between atoms: C_24  and  C_25
REMARK    6  A    between atoms: C_31  and  C_33
REMARK    7  A    between atoms: C_33  and  N_34
REMARK    8  A    between atoms: C_33  and  C_39
REMARK    9  A    between atoms: C_35  and  O_37
REMARK   10  A    between atoms: C_51  and  C_53
REMARK   11  A    between atoms: C_53  and  N_54
REMARK   12  A    between atoms: C_53  and  C_59
REMARK   13  A    between atoms: C_55  and  O_57
REMARK                            x       y       z     vdW  Elec       q    Type
REMARK                         _______ _______ _______ _____ _____    ______ ____
ROOT
ATOM      1  C   UNL     1      -9.486   7.945  70.744  0.00  0.00    +0.019 A 
ATOM      2  C   UNL     1     -10.422   8.777  71.354  0.00  0.00    +0.001 A 
ATOM      3  C   UNL     1     -11.042   9.828  70.693  0.00  0.00    +0.021 A 
ATOM      4  C   UNL     1     -12.388  10.307  71.167  0.00  0.00    +0.232 C 
ATOM      5  O   UNL     1     -12.541  11.614  70.666  0.00  0.00    -0.471 OA
ATOM      6  C   UNL     1     -11.821  12.105  69.601  0.00  0.00    +0.139 A 
ATOM      7  C   UNL     1     -11.234  11.197  68.726  0.00  0.00    +0.034 A 
ATOM      8  C   UNL     1     -10.771  11.658  67.517  0.00  0.00    +0.003 A 
ATOM      9  C   UNL     1     -10.928  13.010  67.237  0.00  0.00    +0.002 A 
ATOM     10  C   UNL     1     -11.086  13.901  68.276  0.00  0.00    +0.022 A 
ATOM     11  C   UNL     1     -10.702  15.224  68.211  0.00  0.00    +0.100 A 
ATOM     12  C   UNL     1     -10.347  15.714  66.958  0.00  0.00    +0.100 A 
ATOM     13  C   UNL     1     -10.600  14.930  65.850  0.00  0.00    +0.021 A 
ATOM     14  N   UNL     1     -10.090  17.005  67.161  0.00  0.00    -0.228 NA
ATOM     15  C   UNL     1     -10.051  17.299  68.457  0.00  0.00    +0.157 A 
ATOM     16  N   UNL     1     -10.111  16.088  69.079  0.00  0.00    -0.228 NA
ATOM     17  C   UNL     1     -10.689  13.554  65.995  0.00  0.00    +0.002 A 
ATOM     18  C   UNL     1     -11.605  13.476  69.479  0.00  0.00    +0.038 A 
ATOM     19  C   UNL     1     -10.819   9.923  69.325  0.00  0.00    +0.002 A 
ATOM     20  C   UNL     1      -9.782   9.231  68.731  0.00  0.00    -0.000 A 
ATOM     21  C   UNL     1      -9.361   8.079  69.361  0.00  0.00    +0.002 A 
ENDROOT
BRANCH  15  22
ATOM     22  C   UNL     1      -8.848  18.305  68.890  0.00  0.00    +0.134 C 
ATOM     23  N   UNL     1      -8.540  18.682  67.389  0.00  0.00    -0.275 N 
ATOM     24  C   UNL     1      -7.497  18.132  66.644  0.00  0.00    +0.246 C 
ATOM     25  O   UNL     1      -7.806  17.733  65.475  0.00  0.00    -0.273 OA
ATOM     26  C   UNL     1      -8.963  20.176  67.282  0.00  0.00    +0.076 C 
ATOM     27  C   UNL     1      -9.359  20.008  65.689  0.00  0.00    +0.022 C 
ATOM     28  C   UNL     1     -10.473  19.756  67.766  0.00  0.00    +0.022 C 
ATOM     29  C   UNL     1      -9.916  19.532  69.152  0.00  0.00    +0.029 C 
BRANCH  24  30
ATOM     30  C   UNL     1      -6.124  18.972  66.457  0.00  0.00    +0.175 C 
BRANCH  30  31
ATOM     31  C   UNL     1      -5.256  17.640  66.027  0.00  0.00    +0.029 C 
ATOM     32  C   UNL     1      -4.103  17.970  65.271  0.00  0.00    +0.002 C 
ATOM     33  C   UNL     1      -5.156  16.758  67.210  0.00  0.00    +0.002 C 
ENDBRANCH  30  31
BRANCH  30  34
ATOM     34  N   UNL     1      -5.743  18.874  67.989  0.00  0.00    -0.161 NA
ATOM     35  C   UNL     1      -5.534  20.061  68.679  0.00  0.00    +0.422 C 
ATOM     36  O   UNL     1      -5.491  21.138  68.005  0.00  0.00    -0.225 OA
BRANCH  35  37
ATOM     37  O   UNL     1      -4.898  19.979  69.923  0.00  0.00    -0.429 OA
ATOM     38  C   UNL     1      -3.873  18.984  70.026  0.00  0.00    +0.257 C 
ENDBRANCH  35  37
ENDBRANCH  30  34
ENDBRANCH  24  30
ENDBRANCH  15  22
BRANCH   1  41
ATOM     39  C   UNL     1      -8.802   4.505  70.761  0.00  0.00    +0.157 A 
ATOM     40  N   UNL     1      -8.930   5.717  70.303  0.00  0.00    -0.227 NA
ATOM     41  C   UNL     1      -9.485   6.554  71.223  0.00  0.00    +0.102 A 
ATOM     42  C   UNL     1      -9.084   6.023  72.434  0.00  0.00    +0.119 A 
ATOM     43  N   UNL     1      -8.920   4.717  72.120  0.00  0.00    -0.226 NA
BRANCH  39  49
ATOM     44  C   UNL     1      -5.905   3.713  70.505  0.00  0.00    +0.052 C 
ATOM     45  C   UNL     1      -6.254   2.129  70.885  0.00  0.00    +0.096 C 
ATOM     46  N   UNL     1      -7.727   2.233  70.973  0.00  0.00    -0.273 N 
ATOM     47  C   UNL     1      -8.768   1.784  70.216  0.00  0.00    +0.250 C 
ATOM     48  O   UNL     1      -9.484   2.199  69.322  0.00  0.00    -0.273 OA
ATOM     49  C   UNL     1      -7.375   3.774  70.903  0.00  0.00    +0.134 C 
ATOM     50  C   UNL     1      -6.982   3.548  69.269  0.00  0.00    +0.032 C 
BRANCH  47  51
ATOM     51  C   UNL     1      -8.866   0.195  70.539  0.00  0.00    +0.197 C 
BRANCH  51  52
ATOM     52  C   UNL     1     -10.437   0.245  70.955  0.00  0.00    +0.006 A 
ATOM     53  C   UNL     1     -10.728   0.620  72.221  0.00  0.00    -0.002 A 
ATOM     54  C   UNL     1     -11.977   0.262  72.716  0.00  0.00    -0.000 A 
ATOM     55  C   UNL     1     -12.333  -1.058  72.460  0.00  0.00    -0.000 A 
ATOM     56  C   UNL     1     -11.632  -1.780  71.501  0.00  0.00    -0.000 A 
ATOM     57  C   UNL     1     -10.995  -0.974  70.557  0.00  0.00    -0.002 A 
ENDBRANCH  51  52
BRANCH  51  58
ATOM     58  N   UNL     1      -9.177  -0.156  69.023  0.00  0.00    -0.157 NA
ATOM     59  C   UNL     1      -8.172  -0.968  68.524  0.00  0.00    +0.422 C 
ATOM     60  O   UNL     1      -6.961  -0.673  68.734  0.00  0.00    -0.225 OA
BRANCH  59  61
ATOM     61  O   UNL     1      -8.407  -2.004  67.630  0.00  0.00    -0.429 OA
ATOM     62  C   UNL     1      -9.611  -2.061  66.881  0.00  0.00    +0.257 C 
ENDBRANCH  59  61
ENDBRANCH  51  58
ENDBRANCH  47  51
BRANCH  44  63
ATOM     63  C   UNL     1      -4.432   3.490  69.852  0.00  0.00    +0.144 C 
BRANCH  63  65
ATOM     64  C   UNL     1      -4.033   5.156  70.936  0.00  0.00    +0.174 C 
ATOM     65  O   UNL     1      -4.301   4.867  70.224  0.00  0.00    -0.351 OA
ENDBRANCH  63  65
ENDBRANCH  44  63
ENDBRANCH  39  49
ENDBRANCH   1  41
TORSDOF 13
ENDMDL
MODEL 6
REMARK VINA RESULT:      -6.3      1.965      2.556
REMARK  Name = 
REMARK  13 active torsions:
REMARK  status: ('A' for Active; 'I' for Inactive)
REMARK    1  A    between atoms: O_2  and  C_3
REMARK    2  A    between atoms: C_3  and  C_4
REMARK    3  A    between atoms: C_6  and  C_7
REMARK    4  A    between atoms: C_10  and  C_11
REMARK    5  A    between atoms: C_24  and  C_25
REMARK    6  A    between atoms: C_31  and  C_33
REMARK    7  A    between atoms: C_33  and  N_34
REMARK    8  A    between atoms: C_33  and  C_39
REMARK    9  A    between atoms: C_35  and  O_37
REMARK   10  A    between atoms: C_51  and  C_53
REMARK   11  A    between atoms: C_53  and  N_54
REMARK   12  A    between atoms: C_53  and  C_59
REMARK   13  A    between atoms: C_55  and  O_57
REMARK                            x       y       z     vdW  Elec       q    Type
REMARK                         _______ _______ _______ _____ _____    ______ ____
ROOT
ATOM      1  C   UNL     1     -10.245   8.103  71.251  0.00  0.00    +0.019 A 
ATOM      2  C   UNL     1     -11.145   9.043  71.747  0.00  0.00    +0.001 A 
ATOM      3  C   UNL     1     -11.631  10.097  70.985  0.00  0.00    +0.021 A 
ATOM      4  C   UNL     1     -12.960  10.711  71.337  0.00  0.00    +0.232 C 
ATOM      5  O   UNL     1     -12.970  11.992  70.751  0.00  0.00    -0.471 OA
ATOM      6  C   UNL     1     -12.145  12.355  69.711  0.00  0.00    +0.139 A 
ATOM      7  C   UNL     1     -11.582  11.349  68.933  0.00  0.00    +0.034 A 
ATOM      8  C   UNL     1     -11.007  11.694  67.734  0.00  0.00    +0.003 A 
ATOM      9  C   UNL     1     -11.031  13.034  67.365  0.00  0.00    +0.002 A 
ATOM     10  C   UNL     1     -11.180  13.998  68.338  0.00  0.00    +0.022 A 
ATOM     11  C   UNL     1     -10.682  15.279  68.222  0.00  0.00    +0.100 A 
ATOM     12  C   UNL     1     -10.209  15.659  66.970  0.00  0.00    +0.100 A 
ATOM     13  C   UNL     1     -10.456  14.829  65.894  0.00  0.00    +0.021 A 
ATOM     14  N   UNL     1      -9.858  16.935  67.114  0.00  0.00    -0.228 NA
ATOM     15  C   UNL     1      -9.876  17.307  68.391  0.00  0.00    +0.157 A 
ATOM     16  N   UNL     1     -10.077  16.147  69.077  0.00  0.00    -0.228 NA
ATOM     17  C   UNL     1     -10.669  13.476  66.113  0.00  0.00    +0.002 A 
ATOM     18  C   UNL     1     -11.808  13.693  69.525  0.00  0.00    +0.038 A 
ATOM     19  C   UNL     1     -11.315  10.087  69.632  0.00  0.00    +0.002 A 
ATOM     20  C   UNL     1     -10.304   9.278  69.151  0.00  0.00    -0.000 A 
ATOM     21  C   UNL     1     -10.022   8.138  69.875  0.00  0.00    +0.002 A 
ENDROOT
BRANCH  15  22
ATOM     22  C   UNL     1      -8.622  18.239  68.846  0.00  0.00    +0.134 C 
ATOM     23  N   UNL     1      -8.340  18.691  67.361  0.00  0.00    -0.275 N 
ATOM     24  C   UNL     1      -7.340  18.146  66.556  0.00  0.00    +0.246 C 
ATOM     25  O   UNL     1      -7.696  17.828  65.375  0.00  0.00    -0.273 OA
ATOM     26  C   UNL     1      -8.705  20.204  67.352  0.00  0.00    +0.076 C 
ATOM     27  C   UNL     1      -9.150  20.145  65.764  0.00  0.00    +0.022 C 
ATOM     28  C   UNL     1     -10.217  19.814  67.854  0.00  0.00    +0.022 C 
ATOM     29  C   UNL     1      -9.633  19.489  69.209  0.00  0.00    +0.029 C 
BRANCH  24  30
ATOM     30  C   UNL     1      -5.940  18.942  66.378  0.00  0.00    +0.175 C 
BRANCH  30  31
ATOM     31  C   UNL     1      -5.088  17.567  66.067  0.00  0.00    +0.029 C 
ATOM     32  C   UNL     1      -3.844  17.835  65.442  0.00  0.00    +0.002 C 
ATOM     33  C   UNL     1      -5.161  16.703  67.265  0.00  0.00    +0.002 C 
ENDBRANCH  30  31
BRANCH  30  34
ATOM     34  N   UNL     1      -5.626  18.930  67.927  0.00  0.00    -0.161 NA
ATOM     35  C   UNL     1      -5.299  20.138  68.529  0.00  0.00    +0.422 C 
ATOM     36  O   UNL     1      -5.105  21.142  67.774  0.00  0.00    -0.225 OA
BRANCH  35  37
ATOM     37  O   UNL     1      -4.721  20.089  69.802  0.00  0.00    -0.429 OA
ATOM     38  C   UNL     1      -3.482  20.794  69.943  0.00  0.00    +0.257 C 
ENDBRANCH  35  37
ENDBRANCH  30  34
ENDBRANCH  24  30
ENDBRANCH  15  22
BRANCH   1  41
ATOM     39  C   UNL     1      -9.297   4.905  72.337  0.00  0.00    +0.157 A 
ATOM     40  N   UNL     1      -9.223   6.055  71.732  0.00  0.00    -0.227 NA
ATOM     41  C   UNL     1     -10.392   6.749  71.809  0.00  0.00    +0.102 A 
ATOM     42  C   UNL     1     -10.946   6.327  73.003  0.00  0.00    +0.119 A 
ATOM     43  N   UNL     1     -10.412   5.090  73.131  0.00  0.00    -0.226 NA
BRANCH  39  49
ATOM     44  C   UNL     1      -7.184   4.878  74.486  0.00  0.00    +0.052 C 
ATOM     45  C   UNL     1      -7.202   3.214  74.552  0.00  0.00    +0.096 C 
ATOM     46  N   UNL     1      -8.156   2.951  73.452  0.00  0.00    -0.273 N 
ATOM     47  C   UNL     1      -8.054   2.428  72.197  0.00  0.00    +0.250 C 
ATOM     48  O   UNL     1      -7.916   2.830  71.055  0.00  0.00    -0.273 OA
ATOM     49  C   UNL     1      -8.358   4.515  73.584  0.00  0.00    +0.134 C 
ATOM     50  C   UNL     1      -6.825   4.711  72.887  0.00  0.00    +0.032 C 
BRANCH  47  51
ATOM     51  C   UNL     1      -7.881   0.829  72.423  0.00  0.00    +0.197 C 
BRANCH  51  52
ATOM     52  C   UNL     1      -9.057   0.424  71.376  0.00  0.00    +0.006 A 
ATOM     53  C   UNL     1     -10.258   0.086  71.896  0.00  0.00    -0.002 A 
ATOM     54  C   UNL     1     -11.111  -0.658  71.089  0.00  0.00    -0.000 A 
ATOM     55  C   UNL     1     -10.496  -1.724  70.443  0.00  0.00    -0.000 A 
ATOM     56  C   UNL     1      -9.109  -1.771  70.370  0.00  0.00    -0.000 A 
ATOM     57  C   UNL     1      -8.506  -0.519  70.502  0.00  0.00    -0.002 A 
ENDBRANCH  51  52
BRANCH  51  58
ATOM     58  N   UNL     1      -6.737   0.736  71.327  0.00  0.00    -0.157 NA
ATOM     59  C   UNL     1      -5.604   0.173  71.893  0.00  0.00    +0.422 C 
ATOM     60  O   UNL     1      -5.193   0.579  73.016  0.00  0.00    -0.225 OA
BRANCH  59  61
ATOM     61  O   UNL     1      -4.765  -0.695  71.207  0.00  0.00    -0.429 OA
ATOM     62  C   UNL     1      -5.111  -2.061  71.036  0.00  0.00    +0.257 C 
ENDBRANCH  59  61
ENDBRANCH  51  58
ENDBRANCH  47  51
BRANCH  44  63
ATOM     63  C   UNL     1      -5.767   5.138  75.242  0.00  0.00    +0.144 C 
BRANCH  63  65
ATOM     64  C   UNL     1      -6.502   6.984  75.643  0.00  0.00    +0.174 C 
ATOM     65  O   UNL     1      -6.531   6.195  75.837  0.00  0.00    -0.351 OA
ENDBRANCH  63  65
ENDBRANCH  44  63
ENDBRANCH  39  49
ENDBRANCH   1  41
TORSDOF 13
ENDMDL
MODEL 7
REMARK VINA RESULT:      -6.2      2.440      3.358
REMARK  Name = 
REMARK  13 active torsions:
REMARK  status: ('A' for Active; 'I' for Inactive)
REMARK    1  A    between atoms: O_2  and  C_3
REMARK    2  A    between atoms: C_3  and  C_4
REMARK    3  A    between atoms: C_6  and  C_7
REMARK    4  A    between atoms: C_10  and  C_11
REMARK    5  A    between atoms: C_24  and  C_25
REMARK    6  A    between atoms: C_31  and  C_33
REMARK    7  A    between atoms: C_33  and  N_34
REMARK    8  A    between atoms: C_33  and  C_39
REMARK    9  A    between atoms: C_35  and  O_37
REMARK   10  A    between atoms: C_51  and  C_53
REMARK   11  A    between atoms: C_53  and  N_54
REMARK   12  A    between atoms: C_53  and  C_59
REMARK   13  A    between atoms: C_55  and  O_57
REMARK                            x       y       z     vdW  Elec       q    Type
REMARK                         _______ _______ _______ _____ _____    ______ ____
ROOT
ATOM      1  C   UNL     1      -9.259   7.781  68.299  0.00  0.00    +0.019 A 
ATOM      2  C   UNL     1     -10.120   8.446  69.168  0.00  0.00    +0.001 A 
ATOM      3  C   UNL     1     -10.782   9.617  68.825  0.00  0.00    +0.021 A 
ATOM      4  C   UNL     1     -12.069   9.968  69.521  0.00  0.00    +0.232 C 
ATOM      5  O   UNL     1     -12.247  11.354  69.346  0.00  0.00    -0.471 OA
ATOM      6  C   UNL     1     -11.622  12.079  68.357  0.00  0.00    +0.139 A 
ATOM      7  C   UNL     1     -11.134  11.397  67.248  0.00  0.00    +0.034 A 
ATOM      8  C   UNL     1     -10.780  12.124  66.136  0.00  0.00    +0.003 A 
ATOM      9  C   UNL     1     -10.940  13.503  66.186  0.00  0.00    +0.002 A 
ATOM     10  C   UNL     1     -10.985  14.133  67.411  0.00  0.00    +0.022 A 
ATOM     11  C   UNL     1     -10.587  15.438  67.611  0.00  0.00    +0.100 A 
ATOM     12  C   UNL     1     -10.343  16.202  66.475  0.00  0.00    +0.100 A 
ATOM     13  C   UNL     1     -10.712  15.690  65.247  0.00  0.00    +0.021 A 
ATOM     14  N   UNL     1     -10.047  17.414  66.940  0.00  0.00    -0.228 NA
ATOM     15  C   UNL     1      -9.881  17.406  68.260  0.00  0.00    +0.157 A 
ATOM     16  N   UNL     1      -9.903  16.085  68.594  0.00  0.00    -0.228 NA
ATOM     17  C   UNL     1     -10.809  14.316  65.084  0.00  0.00    +0.002 A 
ATOM     18  C   UNL     1     -11.396  13.442  68.530  0.00  0.00    +0.038 A 
ATOM     19  C   UNL     1     -10.687  10.023  67.499  0.00  0.00    +0.002 A 
ATOM     20  C   UNL     1      -9.721   9.490  66.668  0.00  0.00    -0.000 A 
ATOM     21  C   UNL     1      -9.262   8.227  66.977  0.00  0.00    +0.002 A 
ENDROOT
BRANCH  15  22
ATOM     22  C   UNL     1      -8.627  18.294  68.793  0.00  0.00    +0.134 C 
ATOM     23  N   UNL     1      -8.258  18.762  67.333  0.00  0.00    -0.275 N 
ATOM     24  C   UNL     1      -7.234  18.202  66.569  0.00  0.00    +0.246 C 
ATOM     25  O   UNL     1      -7.539  17.915  65.366  0.00  0.00    -0.273 OA
ATOM     26  C   UNL     1      -8.579  20.285  67.333  0.00  0.00    +0.076 C 
ATOM     27  C   UNL     1      -8.945  20.265  65.725  0.00  0.00    +0.022 C 
ATOM     28  C   UNL     1     -10.125  19.931  67.752  0.00  0.00    +0.022 C 
ATOM     29  C   UNL     1      -9.620  19.566  69.129  0.00  0.00    +0.029 C 
BRANCH  24  30
ATOM     30  C   UNL     1      -5.805  18.960  66.476  0.00  0.00    +0.175 C 
BRANCH  30  31
ATOM     31  C   UNL     1      -5.024  17.623  65.917  0.00  0.00    +0.029 C 
ATOM     32  C   UNL     1      -3.995  17.945  64.997  0.00  0.00    +0.002 C 
ATOM     33  C   UNL     1      -4.756  16.735  67.069  0.00  0.00    +0.002 C 
ENDBRANCH  30  31
BRANCH  30  34
ATOM     34  N   UNL     1      -5.450  18.683  67.991  0.00  0.00    -0.161 NA
ATOM     35  C   UNL     1      -5.170  19.776  68.800  0.00  0.00    +0.422 C 
ATOM     36  O   UNL     1      -5.047  20.910  68.240  0.00  0.00    -0.225 OA
BRANCH  35  37
ATOM     37  O   UNL     1      -4.556  19.526  70.032  0.00  0.00    -0.429 OA
ATOM     38  C   UNL     1      -5.035  18.372  70.735  0.00  0.00    +0.257 C 
ENDBRANCH  35  37
ENDBRANCH  30  34
ENDBRANCH  24  30
ENDBRANCH  15  22
BRANCH   1  41
ATOM     39  C   UNL     1      -8.785   4.668  69.846  0.00  0.00    +0.157 A 
ATOM     40  N   UNL     1      -8.694   5.951  69.641  0.00  0.00    -0.227 NA
ATOM     41  C   UNL     1      -9.236   6.317  68.447  0.00  0.00    +0.102 A 
ATOM     42  C   UNL     1     -10.230   5.379  68.237  0.00  0.00    +0.119 A 
ATOM     43  N   UNL     1      -9.757   4.318  68.929  0.00  0.00    -0.226 NA
BRANCH  39  49
ATOM     44  C   UNL     1      -9.975   4.121  72.561  0.00  0.00    +0.052 C 
ATOM     45  C   UNL     1     -10.091   2.491  72.235  0.00  0.00    +0.096 C 
ATOM     46  N   UNL     1      -9.441   2.476  70.906  0.00  0.00    -0.273 N 
ATOM     47  C   UNL     1      -8.257   2.006  70.421  0.00  0.00    +0.250 C 
ATOM     48  O   UNL     1      -7.137   2.429  70.197  0.00  0.00    -0.273 OA
ATOM     49  C   UNL     1      -9.595   4.040  71.086  0.00  0.00    +0.134 C 
ATOM     50  C   UNL     1      -8.364   3.965  72.251  0.00  0.00    +0.032 C 
BRANCH  47  51
ATOM     51  C   UNL     1      -8.447   0.394  70.342  0.00  0.00    +0.197 C 
BRANCH  51  52
ATOM     52  C   UNL     1      -8.423   0.343  68.717  0.00  0.00    +0.006 A 
ATOM     53  C   UNL     1      -9.609   0.192  68.085  0.00  0.00    -0.002 A 
ATOM     54  C   UNL     1      -9.576  -0.280  66.778  0.00  0.00    -0.000 A 
ATOM     55  C   UNL     1      -8.733  -1.369  66.588  0.00  0.00    -0.000 A 
ATOM     56  C   UNL     1      -7.786  -1.677  67.558  0.00  0.00    -0.000 A 
ATOM     57  C   UNL     1      -7.443  -0.589  68.361  0.00  0.00    -0.002 A 
ENDBRANCH  51  52
BRANCH  51  58
ATOM     58  N   UNL     1      -6.887   0.142  70.471  0.00  0.00    -0.157 NA
ATOM     59  C   UNL     1      -6.636  -0.618  71.603  0.00  0.00    +0.422 C 
ATOM     60  O   UNL     1      -7.191  -0.318  72.698  0.00  0.00    -0.225 OA
BRANCH  59  61
ATOM     61  O   UNL     1      -5.651  -1.594  71.658  0.00  0.00    -0.429 OA
ATOM     62  C   UNL     1      -4.598  -1.622  70.706  0.00  0.00    +0.257 C 
ENDBRANCH  59  61
ENDBRANCH  51  58
ENDBRANCH  47  51
BRANCH  44  63
ATOM     63  C   UNL     1     -10.130   4.059  74.179  0.00  0.00    +0.144 C 
BRANCH  63  65
ATOM     64  C   UNL     1     -10.358   6.073  74.153  0.00  0.00    +0.174 C 
ATOM     65  O   UNL     1     -10.691   5.358  73.953  0.00  0.00    -0.351 OA
ENDBRANCH  63  65
ENDBRANCH  44  63
ENDBRANCH  39  49
ENDBRANCH   1  41
TORSDOF 13
ENDMDL
MODEL 8
REMARK VINA RESULT:      -6.1      3.976      5.179
REMARK  Name = 
REMARK  13 active torsions:
REMARK  status: ('A' for Active; 'I' for Inactive)
REMARK    1  A    between atoms: O_2  and  C_3
REMARK    2  A    between atoms: C_3  and  C_4
REMARK    3  A    between atoms: C_6  and  C_7
REMARK    4  A    between atoms: C_10  and  C_11
REMARK    5  A    between atoms: C_24  and  C_25
REMARK    6  A    between atoms: C_31  and  C_33
REMARK    7  A    between atoms: C_33  and  N_34
REMARK    8  A    between atoms: C_33  and  C_39
REMARK    9  A    between atoms: C_35  and  O_37
REMARK   10  A    between atoms: C_51  and  C_53
REMARK   11  A    between atoms: C_53  and  N_54
REMARK   12  A    between atoms: C_53  and  C_59
REMARK   13  A    between atoms: C_55  and  O_57
REMARK                            x       y       z     vdW  Elec       q    Type
REMARK                         _______ _______ _______ _____ _____    ______ ____
ROOT
ATOM      1  C   UNL     1      -8.774   8.601  69.022  0.00  0.00    +0.019 A 
ATOM      2  C   UNL     1      -9.774   9.241  69.750  0.00  0.00    +0.001 A 
ATOM      3  C   UNL     1     -10.496  10.319  69.255  0.00  0.00    +0.021 A 
ATOM      4  C   UNL     1     -11.873  10.595  69.796  0.00  0.00    +0.232 C 
ATOM      5  O   UNL     1     -12.151  11.943  69.497  0.00  0.00    -0.471 OA
ATOM      6  C   UNL     1     -11.493  12.653  68.518  0.00  0.00    +0.139 A 
ATOM      7  C   UNL     1     -10.838  11.944  67.517  0.00  0.00    +0.034 A 
ATOM      8  C   UNL     1     -10.436  12.622  66.391  0.00  0.00    +0.003 A 
ATOM      9  C   UNL     1     -10.719  13.981  66.318  0.00  0.00    +0.002 A 
ATOM     10  C   UNL     1     -10.943  14.686  67.479  0.00  0.00    +0.022 A 
ATOM     11  C   UNL     1     -10.682  16.034  67.614  0.00  0.00    +0.100 A 
ATOM     12  C   UNL     1     -10.390  16.737  66.450  0.00  0.00    +0.100 A 
ATOM     13  C   UNL     1     -10.586  16.108  65.236  0.00  0.00    +0.021 A 
ATOM     14  N   UNL     1     -10.249  18.001  66.845  0.00  0.00    -0.228 NA
ATOM     15  C   UNL     1     -10.219  18.099  68.171  0.00  0.00    +0.157 A 
ATOM     16  N   UNL     1     -10.160  16.808  68.603  0.00  0.00    -0.228 NA
ATOM     17  C   UNL     1     -10.547  14.724  65.172  0.00  0.00    +0.002 A 
ATOM     18  C   UNL     1     -11.405  14.040  68.605  0.00  0.00    +0.038 A 
ATOM     19  C   UNL     1     -10.302  10.638  67.917  0.00  0.00    +0.002 A 
ATOM     20  C   UNL     1      -9.214  10.142  67.225  0.00  0.00    -0.000 A 
ATOM     21  C   UNL     1      -8.681   8.952  67.675  0.00  0.00    +0.002 A 
ENDROOT
BRANCH  15  22
ATOM     22  C   UNL     1      -9.107  19.136  68.750  0.00  0.00    +0.134 C 
ATOM     23  N   UNL     1      -8.025  18.654  67.708  0.00  0.00    -0.275 N 
ATOM     24  C   UNL     1      -7.000  17.756  68.006  0.00  0.00    +0.246 C 
ATOM     25  O   UNL     1      -6.834  16.813  67.165  0.00  0.00    -0.273 OA
ATOM     26  C   UNL     1      -7.830  19.883  66.773  0.00  0.00    +0.076 C 
ATOM     27  C   UNL     1      -7.460  18.917  65.488  0.00  0.00    +0.022 C 
ATOM     28  C   UNL     1      -9.432  19.838  66.425  0.00  0.00    +0.022 C 
ATOM     29  C   UNL     1      -9.703  20.357  67.818  0.00  0.00    +0.029 C 
BRANCH  24  30
ATOM     30  C   UNL     1      -5.512  18.318  68.313  0.00  0.00    +0.175 C 
BRANCH  30  31
ATOM     31  C   UNL     1      -4.976  16.866  68.874  0.00  0.00    +0.029 C 
ATOM     32  C   UNL     1      -3.633  16.607  68.499  0.00  0.00    +0.002 C 
ATOM     33  C   UNL     1      -5.406  16.733  70.282  0.00  0.00    +0.002 C 
ENDBRANCH  30  31
BRANCH  30  34
ATOM     34  N   UNL     1      -5.909  18.861  69.743  0.00  0.00    -0.161 NA
ATOM     35  C   UNL     1      -5.809  20.228  69.966  0.00  0.00    +0.422 C 
ATOM     36  O   UNL     1      -5.246  20.934  69.071  0.00  0.00    -0.225 OA
BRANCH  35  37
ATOM     37  O   UNL     1      -5.849  20.670  71.293  0.00  0.00    -0.429 OA
ATOM     38  C   UNL     1      -4.592  20.670  71.980  0.00  0.00    +0.257 C 
ENDBRANCH  35  37
ENDBRANCH  30  34
ENDBRANCH  24  30
ENDBRANCH  15  22
BRANCH   1  41
ATOM     39  C   UNL     1      -8.207   5.204  68.353  0.00  0.00    +0.157 A 
ATOM     40  N   UNL     1      -8.457   6.462  68.129  0.00  0.00    -0.227 NA
ATOM     41  C   UNL     1      -8.641   7.159  69.285  0.00  0.00    +0.102 A 
ATOM     42  C   UNL     1      -7.858   6.484  70.203  0.00  0.00    +0.119 A 
ATOM     43  N   UNL     1      -7.843   5.235  69.685  0.00  0.00    -0.226 NA
BRANCH  39  49
ATOM     44  C   UNL     1      -5.639   4.475  66.954  0.00  0.00    +0.052 C 
ATOM     45  C   UNL     1      -5.807   2.872  67.376  0.00  0.00    +0.096 C 
ATOM     46  N   UNL     1      -7.128   2.946  68.037  0.00  0.00    -0.273 N 
ATOM     47  C   UNL     1      -8.381   2.506  67.731  0.00  0.00    +0.250 C 
ATOM     48  O   UNL     1      -9.391   2.939  67.204  0.00  0.00    -0.273 OA
ATOM     49  C   UNL     1      -6.836   4.495  67.897  0.00  0.00    +0.134 C 
ATOM     50  C   UNL     1      -7.113   4.334  66.231  0.00  0.00    +0.032 C 
BRANCH  47  51
ATOM     51  C   UNL     1      -8.341   0.905  68.002  0.00  0.00    +0.197 C 
BRANCH  51  52
ATOM     52  C   UNL     1      -9.554   0.928  69.085  0.00  0.00    +0.006 A 
ATOM     53  C   UNL     1      -9.218   1.073  70.386  0.00  0.00    -0.002 A 
ATOM     54  C   UNL     1     -10.155   0.669  71.331  0.00  0.00    -0.000 A 
ATOM     55  C   UNL     1     -10.731  -0.568  71.068  0.00  0.00    -0.000 A 
ATOM     56  C   UNL     1     -10.605  -1.124  69.800  0.00  0.00    -0.000 A 
ATOM     57  C   UNL     1     -10.361  -0.179  68.803  0.00  0.00    -0.002 A 
ENDBRANCH  51  52
BRANCH  51  58
ATOM     58  N   UNL     1      -9.306   0.610  66.779  0.00  0.00    -0.157 NA
ATOM     59  C   UNL     1      -8.640  -0.168  65.845  0.00  0.00    +0.422 C 
ATOM     60  O   UNL     1      -7.464   0.135  65.497  0.00  0.00    -0.225 OA
BRANCH  59  61
ATOM     61  O   UNL     1      -9.261  -1.170  65.112  0.00  0.00    -0.429 OA
ATOM     62  C   UNL     1     -10.382  -0.884  64.290  0.00  0.00    +0.257 C 
ENDBRANCH  59  61
ENDBRANCH  51  58
ENDBRANCH  47  51
BRANCH  44  63
ATOM     63  C   UNL     1      -4.538   4.301  65.769  0.00  0.00    +0.144 C 
BRANCH  63  65
ATOM     64  C   UNL     1      -3.771   6.085  66.353  0.00  0.00    +0.174 C 
ATOM     65  O   UNL     1      -4.398   5.709  65.995  0.00  0.00    -0.351 OA
ENDBRANCH  63  65
ENDBRANCH  44  63
ENDBRANCH  39  49
ENDBRANCH   1  41
TORSDOF 13
ENDMDL
MODEL 9
REMARK VINA RESULT:      -6.0      2.453      3.859
REMARK  Name = 
REMARK  13 active torsions:
REMARK  status: ('A' for Active; 'I' for Inactive)
REMARK    1  A    between atoms: O_2  and  C_3
REMARK    2  A    between atoms: C_3  and  C_4
REMARK    3  A    between atoms: C_6  and  C_7
REMARK    4  A    between atoms: C_10  and  C_11
REMARK    5  A    between atoms: C_24  and  C_25
REMARK    6  A    between atoms: C_31  and  C_33
REMARK    7  A    between atoms: C_33  and  N_34
REMARK    8  A    between atoms: C_33  and  C_39
REMARK    9  A    between atoms: C_35  and  O_37
REMARK   10  A    between atoms: C_51  and  C_53
REMARK   11  A    between atoms: C_53  and  N_54
REMARK   12  A    between atoms: C_53  and  C_59
REMARK   13  A    between atoms: C_55  and  O_57
REMARK                            x       y       z     vdW  Elec       q    Type
REMARK                         _______ _______ _______ _____ _____    ______ ____
ROOT
ATOM      1  C   UNL     1      -9.372   7.957  70.990  0.00  0.00    +0.019 A 
ATOM      2  C   UNL     1     -10.382   8.782  71.480  0.00  0.00    +0.001 A 
ATOM      3  C   UNL     1     -10.966   9.790  70.726  0.00  0.00    +0.021 A 
ATOM      4  C   UNL     1     -12.362  10.246  71.058  0.00  0.00    +0.232 C 
ATOM      5  O   UNL     1     -12.502  11.529  70.494  0.00  0.00    -0.471 OA
ATOM      6  C   UNL     1     -11.701  12.002  69.480  0.00  0.00    +0.139 A 
ATOM      7  C   UNL     1     -11.014  11.081  68.698  0.00  0.00    +0.034 A 
ATOM      8  C   UNL     1     -10.455  11.511  67.518  0.00  0.00    +0.003 A 
ATOM      9  C   UNL     1     -10.621  12.847  67.172  0.00  0.00    +0.002 A 
ATOM     10  C   UNL     1     -10.896  13.769  68.158  0.00  0.00    +0.022 A 
ATOM     11  C   UNL     1     -10.543  15.100  68.076  0.00  0.00    +0.100 A 
ATOM     12  C   UNL     1     -10.088  15.554  66.842  0.00  0.00    +0.100 A 
ATOM     13  C   UNL     1     -10.219  14.723  65.747  0.00  0.00    +0.021 A 
ATOM     14  N   UNL     1      -9.885  16.858  67.016  0.00  0.00    -0.228 NA
ATOM     15  C   UNL     1      -9.971  17.201  68.299  0.00  0.00    +0.157 A 
ATOM     16  N   UNL     1     -10.056  16.012  68.960  0.00  0.00    -0.228 NA
ATOM     17  C   UNL     1     -10.284  13.351  65.937  0.00  0.00    +0.002 A 
ATOM     18  C   UNL     1     -11.512  13.373  69.325  0.00  0.00    +0.038 A 
ATOM     19  C   UNL     1     -10.622   9.842  69.381  0.00  0.00    +0.002 A 
ATOM     20  C   UNL     1      -9.518   9.160  68.909  0.00  0.00    -0.000 A 
ATOM     21  C   UNL     1      -9.126   8.045  69.619  0.00  0.00    +0.002 A 
ENDROOT
BRANCH  15  22
ATOM     22  C   UNL     1      -8.840  18.257  68.798  0.00  0.00    +0.134 C 
ATOM     23  N   UNL     1      -8.539  18.727  67.323  0.00  0.00    -0.275 N 
ATOM     24  C   UNL     1      -7.454  18.283  66.567  0.00  0.00    +0.246 C 
ATOM     25  O   UNL     1      -7.724  17.924  65.375  0.00  0.00    -0.273 OA
ATOM     26  C   UNL     1      -9.054  20.196  67.284  0.00  0.00    +0.076 C 
ATOM     27  C   UNL     1      -9.420  20.083  65.679  0.00  0.00    +0.022 C 
ATOM     28  C   UNL     1     -10.540  19.658  67.724  0.00  0.00    +0.022 C 
ATOM     29  C   UNL     1      -9.987  19.400  69.106  0.00  0.00    +0.029 C 
BRANCH  24  30
ATOM     30  C   UNL     1      -6.135  19.215  66.443  0.00  0.00    +0.175 C 
BRANCH  30  31
ATOM     31  C   UNL     1      -5.222  18.003  65.803  0.00  0.00    +0.029 C 
ATOM     32  C   UNL     1      -4.317  18.473  64.819  0.00  0.00    +0.002 C 
ATOM     33  C   UNL     1      -4.753  17.148  66.915  0.00  0.00    +0.002 C 
ENDBRANCH  30  31
BRANCH  30  34
ATOM     34  N   UNL     1      -5.680  18.936  67.931  0.00  0.00    -0.161 NA
ATOM     35  C   UNL     1      -5.587  20.021  68.791  0.00  0.00    +0.422 C 
ATOM     36  O   UNL     1      -5.704  21.184  68.293  0.00  0.00    -0.225 OA
BRANCH  35  37
ATOM     37  O   UNL     1      -4.893  19.834  69.992  0.00  0.00    -0.429 OA
ATOM     38  C   UNL     1      -4.496  21.033  70.667  0.00  0.00    +0.257 C 
ENDBRANCH  35  37
ENDBRANCH  30  34
ENDBRANCH  24  30
ENDBRANCH  15  22
BRANCH   1  41
ATOM     39  C   UNL     1      -9.355   4.450  70.955  0.00  0.00    +0.157 A 
ATOM     40  N   UNL     1      -9.479   5.670  70.517  0.00  0.00    -0.227 NA
ATOM     41  C   UNL     1      -9.379   6.585  71.520  0.00  0.00    +0.102 A 
ATOM     42  C   UNL     1      -8.545   5.975  72.439  0.00  0.00    +0.119 A 
ATOM     43  N   UNL     1      -8.774   4.665  72.189  0.00  0.00    -0.226 NA
BRANCH  39  49
ATOM     44  C   UNL     1      -7.440   2.802  69.311  0.00  0.00    +0.052 C 
ATOM     45  C   UNL     1      -7.218   1.723  70.561  0.00  0.00    +0.096 C 
ATOM     46  N   UNL     1      -8.186   2.289  71.527  0.00  0.00    -0.273 N 
ATOM     47  C   UNL     1      -9.390   1.890  72.025  0.00  0.00    +0.250 C 
ATOM     48  O   UNL     1     -10.572   2.068  71.791  0.00  0.00    -0.273 OA
ATOM     49  C   UNL     1      -8.179   3.465  70.468  0.00  0.00    +0.134 C 
ATOM     50  C   UNL     1      -9.045   2.447  69.423  0.00  0.00    +0.032 C 
BRANCH  47  51
ATOM     51  C   UNL     1      -9.035   0.707  73.081  0.00  0.00    +0.197 C 
BRANCH  51  52
ATOM     52  C   UNL     1      -8.979   1.698  74.369  0.00  0.00    +0.006 A 
ATOM     53  C   UNL     1      -7.766   2.170  74.733  0.00  0.00    -0.002 A 
ATOM     54  C   UNL     1      -7.634   2.640  76.035  0.00  0.00    -0.000 A 
ATOM     55  C   UNL     1      -8.190   1.807  76.999  0.00  0.00    -0.000 A 
ATOM     56  C   UNL     1      -9.077   0.810  76.612  0.00  0.00    -0.000 A 
ATOM     57  C   UNL     1      -9.699   1.068  75.389  0.00  0.00    -0.002 A 
ENDBRANCH  51  52
BRANCH  51  58
ATOM     58  N   UNL     1     -10.567   0.355  73.295  0.00  0.00    -0.157 NA
ATOM     59  C   UNL     1     -10.765  -0.996  73.056  0.00  0.00    +0.422 C 
ATOM     60  O   UNL     1     -10.263  -1.534  72.028  0.00  0.00    -0.225 OA
BRANCH  59  61
ATOM     61  O   UNL     1     -11.654  -1.773  73.787  0.00  0.00    -0.429 OA
ATOM     62  C   UNL     1     -12.736  -1.180  74.487  0.00  0.00    +0.257 C 
ENDBRANCH  59  61
ENDBRANCH  51  58
ENDBRANCH  47  51
BRANCH  44  63
ATOM     63  C   UNL     1      -6.860   1.890  68.095  0.00  0.00    +0.144 C 
BRANCH  63  65
ATOM     64  C   UNL     1      -6.863   3.364  66.703  0.00  0.00    +0.174 C 
ATOM     65  O   UNL     1      -7.256   3.040  67.338  0.00  0.00    -0.351 OA
ENDBRANCH  63  65
ENDBRANCH  44  63
ENDBRANCH  39  49
ENDBRANCH   1  41
TORSDOF 13
ENDMDL
