MODEL 1
REMARK VINA RESULT:      -6.6      0.000      0.000
REMARK  Name = 
REMARK  3 active torsions:
REMARK  status: ('A' for Active; 'I' for Inactive)
REMARK    1  A    between atoms: N_5  and  C_6
REMARK    2  A    between atoms: C_6  and  C_7
REMARK    3  A    between atoms: C_6  and  C_13
REMARK                            x       y       z     vdW  Elec       q    Type
REMARK                         _______ _______ _______ _____ _____    ______ ____
ROOT
ATOM      1  C   UNL     1     -10.806  14.408  68.852  0.00  0.00    +0.103 C 
ENDROOT
BRANCH   1   6
ATOM      2  C   UNL     1     -13.527  15.873  72.942  0.00  0.00    +0.090 C 
ATOM      3  N   UNL     1     -13.077  15.853  72.008  0.00  0.00    -0.269 NA
ATOM      4  C   UNL     1     -13.705  14.888  71.146  0.00  0.00    +0.090 C 
ATOM      5  C   UNL     1     -12.824  14.338  70.081  0.00  0.00    +0.090 C 
ATOM      6  N   UNL     1     -11.929  15.327  69.553  0.00  0.00    -0.264 NA
ATOM      7  C   UNL     1     -11.088  15.903  70.603  0.00  0.00    +0.090 C 
ATOM      8  C   UNL     1     -11.640  15.628  71.982  0.00  0.00    +0.090 C 
ENDBRANCH   1   6
BRANCH   1   9
ATOM      9  C   UNL     1     -11.917  13.684  67.861  0.00  0.00    -0.004 A 
ATOM     10  C   UNL     1     -12.201  14.475  66.749  0.00  0.00    -0.002 A 
ATOM     11  C   UNL     1     -12.330  13.977  65.472  0.00  0.00    +0.011 A 
ATOM     12  C   UNL     1     -12.144  12.615  65.262  0.00  0.00    +0.058 A 
ATOM     13 CL   UNL     1     -12.332  11.908  63.660  0.00  0.00    -0.082 Cl
ATOM     14  C   UNL     1     -11.386  11.970  66.203  0.00  0.00    +0.011 A 
ATOM     15  C   UNL     1     -11.415  12.437  67.488  0.00  0.00    -0.002 A 
ENDBRANCH   1   9
BRANCH   1  16
ATOM     16  C   UNL     1     -10.428  15.585  67.764  0.00  0.00    -0.004 A 
ATOM     17  C   UNL     1     -10.773  16.844  68.112  0.00  0.00    -0.003 A 
ATOM     18  C   UNL     1     -10.392  17.859  67.242  0.00  0.00    -0.000 A 
ATOM     19  C   UNL     1      -9.230  17.662  66.519  0.00  0.00    -0.000 A 
ATOM     20  C   UNL     1      -8.628  16.414  66.452  0.00  0.00    -0.000 A 
ATOM     21  C   UNL     1      -9.222  15.371  67.138  0.00  0.00    -0.003 A 
ENDBRANCH   1  16
TORSDOF 3
ENDMDL
MODEL 2
REMARK VINA RESULT:      -6.4      2.791      4.987
REMARK  Name = 
REMARK  3 active torsions:
REMARK  status: ('A' for Active; 'I' for Inactive)
REMARK    1  A    between atoms: N_5  and  C_6
REMARK    2  A    between atoms: C_6  and  C_7
REMARK    3  A    between atoms: C_6  and  C_13
REMARK                            x       y       z     vdW  Elec       q    Type
REMARK                         _______ _______ _______ _____ _____    ______ ____
ROOT
ATOM      1  C   UNL     1     -10.354  13.501  67.215  0.00  0.00    +0.103 C 
ENDROOT
BRANCH   1   6
ATOM      2  C   UNL     1     -10.247  18.625  67.303  0.00  0.00    +0.090 C 
ATOM      3  N   UNL     1     -10.567  17.644  67.206  0.00  0.00    -0.269 NA
ATOM      4  C   UNL     1     -10.651  16.993  68.486  0.00  0.00    +0.090 C 
ATOM      5  C   UNL     1     -10.486  15.515  68.445  0.00  0.00    +0.090 C 
ATOM      6  N   UNL     1     -11.089  14.933  67.281  0.00  0.00    -0.264 NA
ATOM      7  C   UNL     1     -10.533  15.499  66.050  0.00  0.00    +0.090 C 
ATOM      8  C   UNL     1      -9.799  16.795  66.308  0.00  0.00    +0.090 C 
ENDBRANCH   1   6
BRANCH   1   9
ATOM      9  C   UNL     1     -11.639  12.731  67.920  0.00  0.00    -0.004 A 
ATOM     10  C   UNL     1     -11.395  11.367  68.072  0.00  0.00    -0.002 A 
ATOM     11  C   UNL     1     -11.726  10.655  69.203  0.00  0.00    +0.011 A 
ATOM     12  C   UNL     1     -12.313  11.327  70.270  0.00  0.00    +0.058 A 
ATOM     13 CL   UNL     1     -12.794  10.470  71.731  0.00  0.00    -0.082 Cl
ATOM     14  C   UNL     1     -12.074  12.675  70.323  0.00  0.00    +0.011 A 
ATOM     15  C   UNL     1     -11.892  13.346  69.146  0.00  0.00    -0.002 A 
ENDBRANCH   1   9
BRANCH   1  16
ATOM     16  C   UNL     1     -10.882  13.227  65.679  0.00  0.00    -0.004 A 
ATOM     17  C   UNL     1     -10.110  12.414  64.926  0.00  0.00    -0.003 A 
ATOM     18  C   UNL     1     -10.581  12.108  63.654  0.00  0.00    -0.000 A 
ATOM     19  C   UNL     1     -11.952  12.070  63.485  0.00  0.00    -0.000 A 
ATOM     20  C   UNL     1     -12.810  12.578  64.450  0.00  0.00    -0.000 A 
ATOM     21  C   UNL     1     -12.250  13.119  65.593  0.00  0.00    -0.003 A 
ENDBRANCH   1  16
TORSDOF 3
ENDMDL
MODEL 3
REMARK VINA RESULT:      -6.4      2.731      5.424
REMARK  Name = 
REMARK  3 active torsions:
REMARK  status: ('A' for Active; 'I' for Inactive)
REMARK    1  A    between atoms: N_5  and  C_6
REMARK    2  A    between atoms: C_6  and  C_7
REMARK    3  A    between atoms: C_6  and  C_13
REMARK                            x       y       z     vdW  Elec       q    Type
REMARK                         _______ _______ _______ _____ _____    ______ ____
ROOT
ATOM      1  C   UNL     1     -10.135  14.836  68.035  0.00  0.00    +0.103 C 
ENDROOT
BRANCH   1   6
ATOM      2  C   UNL     1      -9.096  19.483  66.137  0.00  0.00    +0.090 C 
ATOM      3  N   UNL     1      -9.466  18.522  66.253  0.00  0.00    -0.269 NA
ATOM      4  C   UNL     1     -10.476  18.470  67.276  0.00  0.00    +0.090 C 
ATOM      5  C   UNL     1     -10.620  17.147  67.942  0.00  0.00    +0.090 C 
ATOM      6  N   UNL     1     -10.439  16.057  67.028  0.00  0.00    -0.264 NA
ATOM      7  C   UNL     1      -9.128  16.112  66.380  0.00  0.00    +0.090 C 
ATOM      8  C   UNL     1      -8.490  17.476  66.516  0.00  0.00    +0.090 C 
ENDBRANCH   1   6
BRANCH   1   9
ATOM      9  C   UNL     1     -11.422  15.221  69.002  0.00  0.00    -0.004 A 
ATOM     10  C   UNL     1     -12.170  14.091  69.330  0.00  0.00    -0.002 A 
ATOM     11  C   UNL     1     -12.671  13.848  70.589  0.00  0.00    +0.011 A 
ATOM     12  C   UNL     1     -12.403  14.759  71.605  0.00  0.00    +0.058 A 
ATOM     13 CL   UNL     1     -13.045  14.526  73.228  0.00  0.00    -0.082 Cl
ATOM     14  C   UNL     1     -11.292  15.538  71.421  0.00  0.00    +0.011 A 
ATOM     15  C   UNL     1     -10.931  15.858  70.141  0.00  0.00    -0.002 A 
ENDBRANCH   1   9
BRANCH   1  16
ATOM     16  C   UNL     1     -10.995  13.776  67.113  0.00  0.00    -0.004 A 
ATOM     17  C   UNL     1     -11.858  14.325  66.231  0.00  0.00    -0.003 A 
ATOM     18  C   UNL     1     -12.535  13.449  65.390  0.00  0.00    -0.000 A 
ATOM     19  C   UNL     1     -11.880  12.282  65.043  0.00  0.00    -0.000 A 
ATOM     20  C   UNL     1     -10.735  11.874  65.712  0.00  0.00    -0.000 A 
ATOM     21  C   UNL     1     -10.262  12.676  66.734  0.00  0.00    -0.003 A 
ENDBRANCH   1  16
TORSDOF 3
ENDMDL
MODEL 4
REMARK VINA RESULT:      -6.0      1.895      4.824
REMARK  Name = 
REMARK  3 active torsions:
REMARK  status: ('A' for Active; 'I' for Inactive)
REMARK    1  A    between atoms: N_5  and  C_6
REMARK    2  A    between atoms: C_6  and  C_7
REMARK    3  A    between atoms: C_6  and  C_13
REMARK                            x       y       z     vdW  Elec       q    Type
REMARK                         _______ _______ _______ _____ _____    ______ ____
ROOT
ATOM      1  C   UNL     1     -11.892  15.449  69.070  0.00  0.00    +0.103 C 
ENDROOT
BRANCH   1   6
ATOM      2  C   UNL     1      -7.373  17.569  67.906  0.00  0.00    +0.090 C 
ATOM      3  N   UNL     1      -8.278  17.360  68.365  0.00  0.00    -0.269 NA
ATOM      4  C   UNL     1      -8.224  16.114  69.082  0.00  0.00    +0.090 C 
ATOM      5  C   UNL     1      -9.534  15.427  69.236  0.00  0.00    +0.090 C 
ATOM      6  N   UNL     1     -10.611  16.352  69.445  0.00  0.00    -0.264 NA
ATOM      7  C   UNL     1     -10.714  17.311  68.344  0.00  0.00    +0.090 C 
ATOM      8  C   UNL     1      -9.454  17.347  67.509  0.00  0.00    +0.090 C 
ENDBRANCH   1   6
BRANCH   1   9
ATOM      9  C   UNL     1     -10.999  14.055  69.075  0.00  0.00    -0.004 A 
ATOM     10  C   UNL     1     -11.635  13.044  69.793  0.00  0.00    -0.002 A 
ATOM     11  C   UNL     1     -11.696  11.735  69.375  0.00  0.00    +0.011 A 
ATOM     12  C   UNL     1     -11.117  11.392  68.158  0.00  0.00    +0.058 A 
ATOM     13 CL   UNL     1     -11.128   9.728  67.582  0.00  0.00    -0.082 Cl
ATOM     14  C   UNL     1     -10.975  12.418  67.262  0.00  0.00    +0.011 A 
ATOM     15  C   UNL     1     -10.777  13.680  67.750  0.00  0.00    -0.002 A 
ENDBRANCH   1   9
BRANCH   1  16
ATOM     16  C   UNL     1     -12.336  15.308  70.650  0.00  0.00    -0.004 A 
ATOM     17  C   UNL     1     -11.685  16.110  71.521  0.00  0.00    -0.003 A 
ATOM     18  C   UNL     1     -12.101  16.061  72.846  0.00  0.00    -0.000 A 
ATOM     19  C   UNL     1     -13.434  15.774  73.074  0.00  0.00    -0.000 A 
ATOM     20  C   UNL     1     -14.248  15.287  72.062  0.00  0.00    -0.000 A 
ATOM     21  C   UNL     1     -13.687  15.105  70.811  0.00  0.00    -0.003 A 
ENDBRANCH   1  16
TORSDOF 3
ENDMDL
MODEL 5
REMARK VINA RESULT:      -5.9      2.585      5.654
REMARK  Name = 
REMARK  3 active torsions:
REMARK  status: ('A' for Active; 'I' for Inactive)
REMARK    1  A    between atoms: N_5  and  C_6
REMARK    2  A    between atoms: C_6  and  C_7
REMARK    3  A    between atoms: C_6  and  C_13
REMARK                            x       y       z     vdW  Elec       q    Type
REMARK                         _______ _______ _______ _____ _____    ______ ____
ROOT
ATOM      1  C   UNL     1     -10.660  14.347  68.995  0.00  0.00    +0.103 C 
ENDROOT
BRANCH   1   6
ATOM      2  C   UNL     1     -12.531  12.301  64.683  0.00  0.00    +0.090 C 
ATOM      3  N   UNL     1     -12.446  12.663  65.651  0.00  0.00    -0.269 NA
ATOM      4  C   UNL     1     -12.311  14.095  65.663  0.00  0.00    +0.090 C 
ATOM      5  C   UNL     1     -11.591  14.643  66.842  0.00  0.00    +0.090 C 
ATOM      6  N   UNL     1     -11.890  13.921  68.045  0.00  0.00    -0.264 NA
ATOM      7  C   UNL     1     -11.558  12.501  67.914  0.00  0.00    +0.090 C 
ATOM      8  C   UNL     1     -11.386  12.095  66.468  0.00  0.00    +0.090 C 
ENDBRANCH   1   6
BRANCH   1   9
ATOM      9  C   UNL     1     -10.380  15.731  68.130  0.00  0.00    -0.004 A 
ATOM     10  C   UNL     1     -10.769  16.864  68.843  0.00  0.00    -0.002 A 
ATOM     11  C   UNL     1     -10.029  18.024  68.892  0.00  0.00    +0.011 A 
ATOM     12  C   UNL     1      -8.813  18.073  68.219  0.00  0.00    +0.058 A 
ATOM     13 CL   UNL     1      -7.836  19.538  68.211  0.00  0.00    -0.082 Cl
ATOM     14  C   UNL     1      -8.219  16.861  67.983  0.00  0.00    +0.011 A 
ATOM     15  C   UNL     1      -9.025  15.771  67.804  0.00  0.00    -0.002 A 
ENDBRANCH   1   9
BRANCH   1  16
ATOM     16  C   UNL     1     -11.663  15.084  70.074  0.00  0.00    -0.004 A 
ATOM     17  C   UNL     1     -12.940  14.644  70.088  0.00  0.00    -0.003 A 
ATOM     18  C   UNL     1     -13.781  15.199  71.046  0.00  0.00    -0.000 A 
ATOM     19  C   UNL     1     -13.200  15.596  72.236  0.00  0.00    -0.000 A 
ATOM     20  C   UNL     1     -11.822  15.697  72.364  0.00  0.00    -0.000 A 
ATOM     21  C   UNL     1     -11.044  15.379  71.266  0.00  0.00    -0.003 A 
ENDBRANCH   1  16
TORSDOF 3
ENDMDL
MODEL 6
REMARK VINA RESULT:      -5.9      2.870      5.221
REMARK  Name = 
REMARK  3 active torsions:
REMARK  status: ('A' for Active; 'I' for Inactive)
REMARK    1  A    between atoms: N_5  and  C_6
REMARK    2  A    between atoms: C_6  and  C_7
REMARK    3  A    between atoms: C_6  and  C_13
REMARK                            x       y       z     vdW  Elec       q    Type
REMARK                         _______ _______ _______ _____ _____    ______ ____
ROOT
ATOM      1  C   UNL     1     -11.460  15.541  67.836  0.00  0.00    +0.103 C 
ENDROOT
BRANCH   1   6
ATOM      2  C   UNL     1     -10.660  12.012  64.205  0.00  0.00    +0.090 C 
ATOM      3  N   UNL     1     -10.528  12.646  65.014  0.00  0.00    -0.269 NA
ATOM      4  C   UNL     1     -11.312  12.223  66.143  0.00  0.00    +0.090 C 
ATOM      5  C   UNL     1     -11.690  13.312  67.083  0.00  0.00    +0.090 C 
ATOM      6  N   UNL     1     -10.648  14.287  67.232  0.00  0.00    -0.264 NA
ATOM      7  C   UNL     1     -10.285  14.884  65.946  0.00  0.00    +0.090 C 
ATOM      8  C   UNL     1     -10.783  14.059  64.781  0.00  0.00    +0.090 C 
ENDBRANCH   1   6
BRANCH   1   9
ATOM      9  C   UNL     1     -11.062  15.139  69.392  0.00  0.00    -0.004 A 
ATOM     10  C   UNL     1     -11.241  16.216  70.258  0.00  0.00    -0.002 A 
ATOM     11  C   UNL     1     -11.803  16.102  71.509  0.00  0.00    +0.011 A 
ATOM     12  C   UNL     1     -12.245  14.854  71.935  0.00  0.00    +0.058 A 
ATOM     13 CL   UNL     1     -12.939  14.634  73.538  0.00  0.00    -0.082 Cl
ATOM     14  C   UNL     1     -12.541  13.961  70.940  0.00  0.00    +0.011 A 
ATOM     15  C   UNL     1     -11.842  14.045  69.767  0.00  0.00    -0.002 A 
ENDBRANCH   1   9
BRANCH   1  16
ATOM     16  C   UNL     1     -10.172  16.550  67.644  0.00  0.00    -0.004 A 
ATOM     17  C   UNL     1     -10.457  17.870  67.600  0.00  0.00    -0.003 A 
ATOM     18  C   UNL     1      -9.376  18.740  67.517  0.00  0.00    -0.000 A 
ATOM     19  C   UNL     1      -8.197  18.333  68.112  0.00  0.00    -0.000 A 
ATOM     20  C   UNL     1      -8.015  17.020  68.523  0.00  0.00    -0.000 A 
ATOM     21  C   UNL     1      -9.055  16.130  68.327  0.00  0.00    -0.003 A 
ENDBRANCH   1  16
TORSDOF 3
ENDMDL
MODEL 7
REMARK VINA RESULT:      -5.8      2.623      5.397
REMARK  Name = 
REMARK  3 active torsions:
REMARK  status: ('A' for Active; 'I' for Inactive)
REMARK    1  A    between atoms: N_5  and  C_6
REMARK    2  A    between atoms: C_6  and  C_7
REMARK    3  A    between atoms: C_6  and  C_13
REMARK                            x       y       z     vdW  Elec       q    Type
REMARK                         _______ _______ _______ _____ _____    ______ ____
ROOT
ATOM      1  C   UNL     1     -12.436  14.144  69.514  0.00  0.00    +0.103 C 
ENDROOT
BRANCH   1   6
ATOM      2  C   UNL     1      -8.700  16.062  66.576  0.00  0.00    +0.090 C 
ATOM      3  N   UNL     1      -9.283  15.810  67.394  0.00  0.00    -0.269 NA
ATOM      4  C   UNL     1      -9.200  14.402  67.681  0.00  0.00    +0.090 C 
ATOM      5  C   UNL     1     -10.392  13.836  68.368  0.00  0.00    +0.090 C 
ATOM      6  N   UNL     1     -10.956  14.750  69.319  0.00  0.00    -0.264 NA
ATOM      7  C   UNL     1     -11.340  16.013  68.685  0.00  0.00    +0.090 C 
ATOM      8  C   UNL     1     -10.687  16.184  67.333  0.00  0.00    +0.090 C 
ENDBRANCH   1   6
BRANCH   1   9
ATOM      9  C   UNL     1     -11.870  12.863  70.398  0.00  0.00    -0.004 A 
ATOM     10  C   UNL     1     -12.779  12.484  71.385  0.00  0.00    -0.002 A 
ATOM     11  C   UNL     1     -13.080  11.174  71.681  0.00  0.00    +0.011 A 
ATOM     12  C   UNL     1     -12.470  10.163  70.946  0.00  0.00    +0.058 A 
ATOM     13 CL   UNL     1     -12.782   8.466  71.299  0.00  0.00    -0.082 Cl
ATOM     14  C   UNL     1     -12.019  10.526  69.704  0.00  0.00    +0.011 A 
ATOM     15  C   UNL     1     -11.603  11.815  69.518  0.00  0.00    -0.002 A 
ENDBRANCH   1   9
BRANCH   1  16
ATOM     16  C   UNL     1     -12.717  15.084  70.837  0.00  0.00    -0.004 A 
ATOM     17  C   UNL     1     -13.972  15.042  71.335  0.00  0.00    -0.003 A 
ATOM     18  C   UNL     1     -14.207  15.767  72.498  0.00  0.00    -0.000 A 
ATOM     19  C   UNL     1     -13.147  15.909  73.374  0.00  0.00    -0.000 A 
ATOM     20  C   UNL     1     -11.852  15.591  72.992  0.00  0.00    -0.000 A 
ATOM     21  C   UNL     1     -11.653  15.117  71.708  0.00  0.00    -0.003 A 
ENDBRANCH   1  16
TORSDOF 3
ENDMDL
MODEL 8
REMARK VINA RESULT:      -5.8      2.320      3.249
REMARK  Name = 
REMARK  3 active torsions:
REMARK  status: ('A' for Active; 'I' for Inactive)
REMARK    1  A    between atoms: N_5  and  C_6
REMARK    2  A    between atoms: C_6  and  C_7
REMARK    3  A    between atoms: C_6  and  C_13
REMARK                            x       y       z     vdW  Elec       q    Type
REMARK                         _______ _______ _______ _____ _____    ______ ____
ROOT
ATOM      1  C   UNL     1     -10.558  13.189  68.538  0.00  0.00    +0.103 C 
ENDROOT
BRANCH   1   6
ATOM      2  C   UNL     1     -13.191  15.715  72.139  0.00  0.00    +0.090 C 
ATOM      3  N   UNL     1     -12.894  15.309  71.233  0.00  0.00    -0.269 NA
ATOM      4  C   UNL     1     -13.049  13.879  71.225  0.00  0.00    +0.090 C 
ATOM      5  C   UNL     1     -12.131  13.158  70.302  0.00  0.00    +0.090 C 
ATOM      6  N   UNL     1     -11.906  13.882  69.085  0.00  0.00    -0.264 NA
ATOM      7  C   UNL     1     -11.354  15.213  69.347  0.00  0.00    +0.090 C 
ATOM      8  C   UNL     1     -11.546  15.628  70.787  0.00  0.00    +0.090 C 
ENDBRANCH   1   6
BRANCH   1   9
ATOM      9  C   UNL     1     -11.236  11.679  68.577  0.00  0.00    -0.004 A 
ATOM     10  C   UNL     1     -11.141  11.046  67.339  0.00  0.00    -0.002 A 
ATOM     11  C   UNL     1     -10.806   9.720  67.185  0.00  0.00    +0.011 A 
ATOM     12  C   UNL     1     -10.519   8.965  68.317  0.00  0.00    +0.058 A 
ATOM     13 CL   UNL     1     -10.119   7.254  68.192  0.00  0.00    -0.082 Cl
ATOM     14  C   UNL     1     -10.114   9.677  69.415  0.00  0.00    +0.011 A 
ATOM     15  C   UNL     1     -10.599  10.945  69.577  0.00  0.00    -0.002 A 
ENDBRANCH   1   9
BRANCH   1  16
ATOM     16  C   UNL     1     -10.976  13.464  66.969  0.00  0.00    -0.004 A 
ATOM     17  C   UNL     1     -12.274  13.761  66.746  0.00  0.00    -0.003 A 
ATOM     18  C   UNL     1     -12.629  14.073  65.438  0.00  0.00    -0.000 A 
ATOM     19  C   UNL     1     -11.663  14.677  64.654  0.00  0.00    -0.000 A 
ATOM     20  C   UNL     1     -10.335  14.717  65.053  0.00  0.00    -0.000 A 
ATOM     21  C   UNL     1     -10.005  14.140  66.266  0.00  0.00    -0.003 A 
ENDBRANCH   1  16
TORSDOF 3
ENDMDL
MODEL 9
REMARK VINA RESULT:      -5.8      1.943      4.158
REMARK  Name = 
REMARK  3 active torsions:
REMARK  status: ('A' for Active; 'I' for Inactive)
REMARK    1  A    between atoms: N_5  and  C_6
REMARK    2  A    between atoms: C_6  and  C_7
REMARK    3  A    between atoms: C_6  and  C_13
REMARK                            x       y       z     vdW  Elec       q    Type
REMARK                         _______ _______ _______ _____ _____    ______ ____
ROOT
ATOM      1  C   UNL     1     -11.962  15.551  68.630  0.00  0.00    +0.103 C 
ENDROOT
BRANCH   1   6
ATOM      2  C   UNL     1     -13.187  15.515  73.608  0.00  0.00    +0.090 C 
ATOM      3  N   UNL     1     -12.821  15.242  72.677  0.00  0.00    -0.269 NA
ATOM      4  C   UNL     1     -11.671  16.027  72.316  0.00  0.00    +0.090 C 
ATOM      5  C   UNL     1     -11.454  16.177  70.852  0.00  0.00    +0.090 C 
ATOM      6  N   UNL     1     -11.789  14.984  70.129  0.00  0.00    -0.264 NA
ATOM      7  C   UNL     1     -13.181  14.594  70.356  0.00  0.00    +0.090 C 
ATOM      8  C   UNL     1     -13.766  15.275  71.571  0.00  0.00    +0.090 C 
ENDBRANCH   1   6
BRANCH   1   9
ATOM      9  C   UNL     1     -10.459  16.245  68.644  0.00  0.00    -0.004 A 
ATOM     10  C   UNL     1      -9.492  15.376  68.142  0.00  0.00    -0.002 A 
ATOM     11  C   UNL     1      -8.487  15.766  67.286  0.00  0.00    +0.011 A 
ATOM     12  C   UNL     1      -8.437  17.093  66.871  0.00  0.00    +0.058 A 
ATOM     13 CL   UNL     1      -7.157  17.665  65.807  0.00  0.00    -0.082 Cl
ATOM     14  C   UNL     1      -9.623  17.776  66.933  0.00  0.00    +0.011 A 
ATOM     15  C   UNL     1     -10.521  17.425  67.904  0.00  0.00    -0.002 A 
ENDBRANCH   1   9
BRANCH   1  16
ATOM     16  C   UNL     1     -11.433  14.140  67.966  0.00  0.00    -0.004 A 
ATOM     17  C   UNL     1     -11.334  13.090  68.810  0.00  0.00    -0.003 A 
ATOM     18  C   UNL     1     -10.965  11.872  68.251  0.00  0.00    -0.000 A 
ATOM     19  C   UNL     1     -11.347  11.640  66.943  0.00  0.00    -0.000 A 
ATOM     20  C   UNL     1     -11.824  12.667  66.141  0.00  0.00    -0.000 A 
ATOM     21  C   UNL     1     -11.915  13.932  66.694  0.00  0.00    -0.003 A 
ENDBRANCH   1  16
TORSDOF 3
ENDMDL
