MODEL 1
REMARK VINA RESULT:      -6.2      0.000      0.000
REMARK  Name = 
REMARK  1 active torsions:
REMARK  status: ('A' for Active; 'I' for Inactive)
REMARK    1  A    between atoms: N_2  and  C_4
REMARK                            x       y       z     vdW  Elec       q    Type
REMARK                         _______ _______ _______ _____ _____    ______ ____
ROOT
ATOM      1  C   UNL     1      -8.340  19.595  68.236  0.00  0.00    +0.049 A 
ATOM      2  C   UNL     1      -9.346  18.788  68.757  0.00  0.00    +0.023 A 
ATOM      3  C   UNL     1     -10.169  18.019  67.940  0.00  0.00    +0.048 A 
ATOM      4  C   UNL     1     -10.016  18.122  66.560  0.00  0.00    +0.087 A 
ATOM      5  N   UNL     1     -10.562  17.264  65.693  0.00  0.00    -0.244 NA
ATOM      6  C   UNL     1     -10.660  15.939  65.874  0.00  0.00    +0.088 A 
ATOM      7  C   UNL     1     -11.089  15.387  67.168  0.00  0.00    +0.053 A 
ATOM      8  C   UNL     1     -11.038  14.016  67.343  0.00  0.00    +0.077 A 
ATOM      9  C   UNL     1     -10.539  13.152  66.375  0.00  0.00    +0.222 A 
ATOM     10  N   UNL     1      -9.864  12.097  66.687  0.00  0.00    -0.177 N 
ATOM     11  C   UNL     1      -9.270  11.905  68.000  0.00  0.00    +0.403 C 
ATOM     12  C   UNL     1     -10.207  10.888  65.943  0.00  0.00    +0.403 C 
ATOM     13  C   UNL     1     -10.238  13.721  65.146  0.00  0.00    +0.070 A 
ATOM     14  C   UNL     1     -10.561  15.026  64.830  0.00  0.00    +0.026 A 
ATOM     15  C   UNL     1      -9.483  19.332  66.125  0.00  0.00    +0.021 A 
ATOM     16  S   UNL     1     -10.919  16.551  68.421  0.00  0.00    -0.084 S 
ATOM     17  C   UNL     1      -8.571  20.008  66.930  0.00  0.00    +0.016 A 
ENDROOT
BRANCH   1  19
ATOM     18  C   UNL     1      -6.145  20.702  68.318  0.00  0.00    +0.112 C 
ATOM     19  N   UNL     1      -7.050  19.688  68.855  0.00  0.00    -0.304 N 
ATOM     20  C   UNL     1      -6.427  18.394  69.125  0.00  0.00    +0.112 C 
ENDBRANCH   1  19
TORSDOF 1
ENDMDL
MODEL 2
REMARK VINA RESULT:      -6.1      5.473      7.712
REMARK  Name = 
REMARK  1 active torsions:
REMARK  status: ('A' for Active; 'I' for Inactive)
REMARK    1  A    between atoms: N_2  and  C_4
REMARK                            x       y       z     vdW  Elec       q    Type
REMARK                         _______ _______ _______ _____ _____    ______ ____
ROOT
ATOM      1  C   UNL     1     -10.935  12.245  65.406  0.00  0.00    +0.049 A 
ATOM      2  C   UNL     1      -9.948  11.732  66.240  0.00  0.00    +0.023 A 
ATOM      3  C   UNL     1     -10.123  11.638  67.618  0.00  0.00    +0.048 A 
ATOM      4  C   UNL     1     -11.298  12.139  68.171  0.00  0.00    +0.087 A 
ATOM      5  N   UNL     1     -11.688  11.885  69.424  0.00  0.00    -0.244 NA
ATOM      6  C   UNL     1     -11.552  10.708  70.051  0.00  0.00    +0.088 A 
ATOM      7  C   UNL     1     -10.298   9.946  69.957  0.00  0.00    +0.053 A 
ATOM      8  C   UNL     1     -10.261   8.676  70.506  0.00  0.00    +0.077 A 
ATOM      9  C   UNL     1     -11.373   8.074  71.082  0.00  0.00    +0.222 A 
ATOM     10  N   UNL     1     -11.596   6.807  70.967  0.00  0.00    -0.177 N 
ATOM     11  C   UNL     1     -10.937   5.981  69.968  0.00  0.00    +0.403 C 
ATOM     12  C   UNL     1     -12.031   6.133  72.187  0.00  0.00    +0.403 C 
ATOM     13  C   UNL     1     -12.496   8.874  71.225  0.00  0.00    +0.070 A 
ATOM     14  C   UNL     1     -12.481  10.232  70.971  0.00  0.00    +0.026 A 
ATOM     15  C   UNL     1     -11.907  13.144  67.426  0.00  0.00    +0.021 A 
ATOM     16  S   UNL     1      -9.358  10.472  68.618  0.00  0.00    -0.084 S 
ATOM     17  C   UNL     1     -11.800  13.130  66.039  0.00  0.00    +0.016 A 
ENDROOT
BRANCH   1  19
ATOM     18  C   UNL     1     -10.108  11.439  63.234  0.00  0.00    +0.112 C 
ATOM     19  N   UNL     1     -11.238  11.650  64.137  0.00  0.00    -0.304 N 
ATOM     20  C   UNL     1     -12.437  12.190  63.500  0.00  0.00    +0.112 C 
ENDBRANCH   1  19
TORSDOF 1
ENDMDL
MODEL 3
REMARK VINA RESULT:      -5.8      1.189      1.336
REMARK  Name = 
REMARK  1 active torsions:
REMARK  status: ('A' for Active; 'I' for Inactive)
REMARK    1  A    between atoms: N_2  and  C_4
REMARK                            x       y       z     vdW  Elec       q    Type
REMARK                         _______ _______ _______ _____ _____    ______ ____
ROOT
ATOM      1  C   UNL     1      -6.700  19.572  68.090  0.00  0.00    +0.049 A 
ATOM      2  C   UNL     1      -7.823  19.087  68.752  0.00  0.00    +0.023 A 
ATOM      3  C   UNL     1      -8.933  18.606  68.064  0.00  0.00    +0.048 A 
ATOM      4  C   UNL     1      -8.934  18.682  66.674  0.00  0.00    +0.087 A 
ATOM      5  N   UNL     1      -9.814  18.036  65.903  0.00  0.00    -0.244 NA
ATOM      6  C   UNL     1     -10.271  16.795  66.125  0.00  0.00    +0.088 A 
ATOM      7  C   UNL     1     -10.674  16.373  67.475  0.00  0.00    +0.053 A 
ATOM      8  C   UNL     1     -11.005  15.044  67.673  0.00  0.00    +0.077 A 
ATOM      9  C   UNL     1     -10.909  14.088  66.669  0.00  0.00    +0.222 A 
ATOM     10  N   UNL     1     -10.538  12.876  66.917  0.00  0.00    -0.177 N 
ATOM     11  C   UNL     1      -9.864  12.498  68.148  0.00  0.00    +0.403 C 
ATOM     12  C   UNL     1     -11.313  11.833  66.250  0.00  0.00    +0.403 C 
ATOM     13  C   UNL     1     -10.615  14.562  65.400  0.00  0.00    +0.070 A 
ATOM     14  C   UNL     1     -10.579  15.910  65.098  0.00  0.00    +0.026 A 
ATOM     15  C   UNL     1      -8.130  19.689  66.148  0.00  0.00    +0.021 A 
ATOM     16  S   UNL     1     -10.011  17.416  68.669  0.00  0.00    -0.084 S 
ATOM     17  C   UNL     1      -6.965  20.055  66.815  0.00  0.00    +0.016 A 
ENDROOT
BRANCH   1  19
ATOM     18  C   UNL     1      -4.278  19.797  67.721  0.00  0.00    +0.112 C 
ATOM     19  N   UNL     1      -5.371  19.272  68.537  0.00  0.00    -0.304 N 
ATOM     20  C   UNL     1      -5.193  17.892  68.985  0.00  0.00    +0.112 C 
ENDBRANCH   1  19
TORSDOF 1
ENDMDL
MODEL 4
REMARK VINA RESULT:      -5.8      1.795      6.842
REMARK  Name = 
REMARK  1 active torsions:
REMARK  status: ('A' for Active; 'I' for Inactive)
REMARK    1  A    between atoms: N_2  and  C_4
REMARK                            x       y       z     vdW  Elec       q    Type
REMARK                         _______ _______ _______ _____ _____    ______ ____
ROOT
ATOM      1  C   UNL     1     -10.888  12.150  65.117  0.00  0.00    +0.049 A 
ATOM      2  C   UNL     1     -11.073  13.433  64.612  0.00  0.00    +0.023 A 
ATOM      3  C   UNL     1     -11.283  14.528  65.445  0.00  0.00    +0.048 A 
ATOM      4  C   UNL     1     -11.376  14.309  66.816  0.00  0.00    +0.087 A 
ATOM      5  N   UNL     1     -11.325  15.290  67.723  0.00  0.00    -0.244 NA
ATOM      6  C   UNL     1     -10.524  16.363  67.656  0.00  0.00    +0.088 A 
ATOM      7  C   UNL     1     -10.358  17.099  66.394  0.00  0.00    +0.053 A 
ATOM      8  C   UNL     1      -9.415  18.110  66.346  0.00  0.00    +0.077 A 
ATOM      9  C   UNL     1      -8.580  18.411  67.415  0.00  0.00    +0.222 A 
ATOM     10  N   UNL     1      -7.355  18.780  67.239  0.00  0.00    -0.177 N 
ATOM     11  C   UNL     1      -6.646  18.577  65.986  0.00  0.00    +0.403 C 
ATOM     12  C   UNL     1      -6.910  19.898  68.066  0.00  0.00    +0.403 C 
ATOM     13  C   UNL     1      -8.846  17.748  68.603  0.00  0.00    +0.070 A 
ATOM     14  C   UNL     1      -9.967  16.959  68.782  0.00  0.00    +0.026 A 
ATOM     15  C   UNL     1     -11.800  13.032  67.172  0.00  0.00    +0.021 A 
ATOM     16  S   UNL     1     -10.852  16.143  65.054  0.00  0.00    -0.084 S 
ATOM     17  C   UNL     1     -11.464  11.949  66.365  0.00  0.00    +0.016 A 
ENDROOT
BRANCH   1  19
ATOM     18  C   UNL     1      -9.753  11.275  63.117  0.00  0.00    +0.112 C 
ATOM     19  N   UNL     1      -9.909  11.257  64.570  0.00  0.00    -0.304 N 
ATOM     20  C   UNL     1      -9.924   9.922  65.167  0.00  0.00    +0.112 C 
ENDBRANCH   1  19
TORSDOF 1
ENDMDL
MODEL 5
REMARK VINA RESULT:      -5.8      1.892      6.995
REMARK  Name = 
REMARK  1 active torsions:
REMARK  status: ('A' for Active; 'I' for Inactive)
REMARK    1  A    between atoms: N_2  and  C_4
REMARK                            x       y       z     vdW  Elec       q    Type
REMARK                         _______ _______ _______ _____ _____    ______ ____
ROOT
ATOM      1  C   UNL     1     -10.927  11.571  65.416  0.00  0.00    +0.049 A 
ATOM      2  C   UNL     1     -11.674  12.445  66.198  0.00  0.00    +0.023 A 
ATOM      3  C   UNL     1     -11.093  13.216  67.200  0.00  0.00    +0.048 A 
ATOM      4  C   UNL     1      -9.736  13.049  67.461  0.00  0.00    +0.087 A 
ATOM      5  N   UNL     1      -9.021  13.894  68.210  0.00  0.00    -0.244 NA
ATOM      6  C   UNL     1      -9.152  15.228  68.207  0.00  0.00    +0.088 A 
ATOM      7  C   UNL     1     -10.483  15.853  68.221  0.00  0.00    +0.053 A 
ATOM      8  C   UNL     1     -10.562  17.227  68.076  0.00  0.00    +0.077 A 
ATOM      9  C   UNL     1      -9.446  18.025  67.856  0.00  0.00    +0.222 A 
ATOM     10  N   UNL     1      -9.492  19.060  67.085  0.00  0.00    -0.177 N 
ATOM     11  C   UNL     1     -10.562  19.279  66.126  0.00  0.00    +0.403 C 
ATOM     12  C   UNL     1      -8.817  20.251  67.592  0.00  0.00    +0.403 C 
ATOM     13  C   UNL     1      -8.216  17.393  67.947  0.00  0.00    +0.070 A 
ATOM     14  C   UNL     1      -8.077  16.092  68.390  0.00  0.00    +0.026 A 
ATOM     15  C   UNL     1      -9.230  11.799  67.118  0.00  0.00    +0.021 A 
ATOM     16  S   UNL     1     -11.692  14.736  67.728  0.00  0.00    -0.084 S 
ATOM     17  C   UNL     1      -9.769  11.115  66.033  0.00  0.00    +0.016 A 
ENDROOT
BRANCH   1  19
ATOM     18  C   UNL     1      -9.954  11.438  63.160  0.00  0.00    +0.112 C 
ATOM     19  N   UNL     1     -11.147  11.444  64.004  0.00  0.00    -0.304 N 
ATOM     20  C   UNL     1     -12.249  12.260  63.500  0.00  0.00    +0.112 C 
ENDBRANCH   1  19
TORSDOF 1
ENDMDL
MODEL 6
REMARK VINA RESULT:      -5.8      1.685      6.501
REMARK  Name = 
REMARK  1 active torsions:
REMARK  status: ('A' for Active; 'I' for Inactive)
REMARK    1  A    between atoms: N_2  and  C_4
REMARK                            x       y       z     vdW  Elec       q    Type
REMARK                         _______ _______ _______ _____ _____    ______ ____
ROOT
ATOM      1  C   UNL     1     -11.087  12.832  68.283  0.00  0.00    +0.049 A 
ATOM      2  C   UNL     1     -11.010  13.611  67.134  0.00  0.00    +0.023 A 
ATOM      3  C   UNL     1     -11.110  14.999  67.178  0.00  0.00    +0.048 A 
ATOM      4  C   UNL     1     -11.362  15.606  68.404  0.00  0.00    +0.087 A 
ATOM      5  N   UNL     1     -11.230  16.920  68.616  0.00  0.00    -0.244 NA
ATOM      6  C   UNL     1     -10.259  17.690  68.106  0.00  0.00    +0.088 A 
ATOM      7  C   UNL     1      -9.860  17.562  66.697  0.00  0.00    +0.053 A 
ATOM      8  C   UNL     1      -8.761  18.282  66.261  0.00  0.00    +0.077 A 
ATOM      9  C   UNL     1      -7.988  19.063  67.111  0.00  0.00    +0.222 A 
ATOM     10  N   UNL     1      -6.708  19.160  66.971  0.00  0.00    -0.177 N 
ATOM     11  C   UNL     1      -5.932  18.221  66.177  0.00  0.00    +0.403 C 
ATOM     12  C   UNL     1      -6.161  20.506  67.109  0.00  0.00    +0.403 C 
ATOM     13  C   UNL     1      -8.468  19.218  68.403  0.00  0.00    +0.070 A 
ATOM     14  C   UNL     1      -9.715  18.770  68.793  0.00  0.00    +0.026 A 
ATOM     15  C   UNL     1     -12.022  14.799  69.326  0.00  0.00    +0.021 A 
ATOM     16  S   UNL     1     -10.382  16.061  66.043  0.00  0.00    -0.084 S 
ATOM     17  C   UNL     1     -11.800  13.425  69.317  0.00  0.00    +0.016 A 
ENDROOT
BRANCH   1  19
ATOM     18  C   UNL     1      -8.901  11.779  67.877  0.00  0.00    +0.112 C 
ATOM     19  N   UNL     1     -10.225  11.705  68.492  0.00  0.00    -0.304 N 
ATOM     20  C   UNL     1     -10.893  10.413  68.353  0.00  0.00    +0.112 C 
ENDBRANCH   1  19
TORSDOF 1
ENDMDL
MODEL 7
REMARK VINA RESULT:      -5.7      3.302      7.732
REMARK  Name = 
REMARK  1 active torsions:
REMARK  status: ('A' for Active; 'I' for Inactive)
REMARK    1  A    between atoms: N_2  and  C_4
REMARK                            x       y       z     vdW  Elec       q    Type
REMARK                         _______ _______ _______ _____ _____    ______ ____
ROOT
ATOM      1  C   UNL     1     -10.553   9.397  69.959  0.00  0.00    +0.049 A 
ATOM      2  C   UNL     1     -10.950  10.108  68.832  0.00  0.00    +0.023 A 
ATOM      3  C   UNL     1     -11.677  11.291  68.927  0.00  0.00    +0.048 A 
ATOM      4  C   UNL     1     -12.070  11.727  70.189  0.00  0.00    +0.087 A 
ATOM      5  N   UNL     1     -12.544  12.954  70.429  0.00  0.00    -0.244 NA
ATOM      6  C   UNL     1     -12.092  14.081  69.861  0.00  0.00    +0.088 A 
ATOM      7  C   UNL     1     -11.807  14.136  68.420  0.00  0.00    +0.053 A 
ATOM      8  C   UNL     1     -11.211  15.277  67.914  0.00  0.00    +0.077 A 
ATOM      9  C   UNL     1     -10.816  16.339  68.718  0.00  0.00    +0.222 A 
ATOM     10  N   UNL     1      -9.745  17.017  68.472  0.00  0.00    -0.177 N 
ATOM     11  C   UNL     1      -8.697  16.536  67.586  0.00  0.00    +0.403 C 
ATOM     12  C   UNL     1      -9.874  18.466  68.603  0.00  0.00    +0.403 C 
ATOM     13  C   UNL     1     -11.194  16.270  70.050  0.00  0.00    +0.070 A 
ATOM     14  C   UNL     1     -12.051  15.299  70.532  0.00  0.00    +0.026 A 
ATOM     15  C   UNL     1     -12.195  10.718  71.138  0.00  0.00    +0.021 A 
ATOM     16  S   UNL     1     -11.631  12.556  67.767  0.00  0.00    -0.084 S 
ATOM     17  C   UNL     1     -11.363   9.605  71.069  0.00  0.00    +0.016 A 
ENDROOT
BRANCH   1  19
ATOM     18  C   UNL     1      -8.787   8.480  71.406  0.00  0.00    +0.112 C 
ATOM     19  N   UNL     1      -9.252   8.803  70.059  0.00  0.00    -0.304 N 
ATOM     20  C   UNL     1      -8.248   9.426  69.199  0.00  0.00    +0.112 C 
ENDBRANCH   1  19
TORSDOF 1
ENDMDL
MODEL 8
REMARK VINA RESULT:      -5.7      1.730      2.151
REMARK  Name = 
REMARK  1 active torsions:
REMARK  status: ('A' for Active; 'I' for Inactive)
REMARK    1  A    between atoms: N_2  and  C_4
REMARK                            x       y       z     vdW  Elec       q    Type
REMARK                         _______ _______ _______ _____ _____    ______ ____
ROOT
ATOM      1  C   UNL     1      -8.179  19.462  67.081  0.00  0.00    +0.049 A 
ATOM      2  C   UNL     1      -7.920  18.482  68.034  0.00  0.00    +0.023 A 
ATOM      3  C   UNL     1      -8.905  17.601  68.469  0.00  0.00    +0.048 A 
ATOM      4  C   UNL     1     -10.199  17.759  67.980  0.00  0.00    +0.087 A 
ATOM      5  N   UNL     1     -11.158  16.838  68.124  0.00  0.00    -0.244 NA
ATOM      6  C   UNL     1     -10.975  15.514  68.036  0.00  0.00    +0.088 A 
ATOM      7  C   UNL     1      -9.826  14.868  68.688  0.00  0.00    +0.053 A 
ATOM      8  C   UNL     1      -9.610  13.522  68.449  0.00  0.00    +0.077 A 
ATOM      9  C   UNL     1     -10.393  12.778  67.574  0.00  0.00    +0.222 A 
ATOM     10  N   UNL     1      -9.889  11.849  66.832  0.00  0.00    -0.177 N 
ATOM     11  C   UNL     1      -8.461  11.734  66.580  0.00  0.00    +0.403 C 
ATOM     12  C   UNL     1     -10.666  10.616  66.756  0.00  0.00    +0.403 C 
ATOM     13  C   UNL     1     -11.513  13.417  67.063  0.00  0.00    +0.070 A 
ATOM     14  C   UNL     1     -11.935  14.654  67.511  0.00  0.00    +0.026 A 
ATOM     15  C   UNL     1     -10.508  19.052  67.568  0.00  0.00    +0.021 A 
ATOM     16  S   UNL     1      -8.602  16.016  69.055  0.00  0.00    -0.084 S 
ATOM     17  C   UNL     1      -9.509  19.857  67.029  0.00  0.00    +0.016 A 
ENDROOT
BRANCH   1  19
ATOM     18  C   UNL     1      -6.566  18.622  65.423  0.00  0.00    +0.112 C 
ATOM     19  N   UNL     1      -7.246  19.762  66.034  0.00  0.00    -0.304 N 
ATOM     20  C   UNL     1      -6.384  20.908  66.319  0.00  0.00    +0.112 C 
ENDBRANCH   1  19
TORSDOF 1
ENDMDL
MODEL 9
REMARK VINA RESULT:      -5.6      1.670      2.340
REMARK  Name = 
REMARK  1 active torsions:
REMARK  status: ('A' for Active; 'I' for Inactive)
REMARK    1  A    between atoms: N_2  and  C_4
REMARK                            x       y       z     vdW  Elec       q    Type
REMARK                         _______ _______ _______ _____ _____    ______ ____
ROOT
ATOM      1  C   UNL     1      -9.212  17.644  68.076  0.00  0.00    +0.049 A 
ATOM      2  C   UNL     1     -10.221  16.889  68.666  0.00  0.00    +0.023 A 
ATOM      3  C   UNL     1     -10.952  15.948  67.947  0.00  0.00    +0.048 A 
ATOM      4  C   UNL     1     -10.702  15.817  66.584  0.00  0.00    +0.087 A 
ATOM      5  N   UNL     1     -11.150  14.793  65.849  0.00  0.00    -0.244 NA
ATOM      6  C   UNL     1     -11.208  13.518  66.256  0.00  0.00    +0.088 A 
ATOM      7  C   UNL     1     -11.708  13.178  67.597  0.00  0.00    +0.053 A 
ATOM      8  C   UNL     1     -11.615  11.863  68.015  0.00  0.00    +0.077 A 
ATOM      9  C   UNL     1     -11.014  10.870  67.250  0.00  0.00    +0.222 A 
ATOM     10  N   UNL     1     -10.321   9.922  67.788  0.00  0.00    -0.177 N 
ATOM     11  C   UNL     1      -9.817   9.993  69.150  0.00  0.00    +0.403 C 
ATOM     12  C   UNL     1     -10.562   8.586  67.250  0.00  0.00    +0.403 C 
ATOM     13  C   UNL     1     -10.647  11.231  65.963  0.00  0.00    +0.070 A 
ATOM     14  C   UNL     1     -10.997  12.443  65.399  0.00  0.00    +0.026 A 
ATOM     15  C   UNL     1     -10.187  16.958  65.976  0.00  0.00    +0.021 A 
ATOM     16  S   UNL     1     -11.675  14.550  68.631  0.00  0.00    -0.084 S 
ATOM     17  C   UNL     1      -9.364  17.810  66.705  0.00  0.00    +0.016 A 
ENDROOT
BRANCH   1  19
ATOM     18  C   UNL     1      -7.333  19.187  68.446  0.00  0.00    +0.112 C 
ATOM     19  N   UNL     1      -7.975  17.910  68.750  0.00  0.00    -0.304 N 
ATOM     20  C   UNL     1      -7.068  16.765  68.799  0.00  0.00    +0.112 C 
ENDBRANCH   1  19
TORSDOF 1
ENDMDL
