MODEL 1
REMARK VINA RESULT:      -6.8      0.000      0.000
REMARK  Name = 
REMARK  26 active torsions:
REMARK  status: ('A' for Active; 'I' for Inactive)
REMARK    1  A    between atoms: O_2  and  C_3
REMARK    2  A    between atoms: C_6  and  C_7
REMARK    3  A    between atoms: C_7  and  C_8
REMARK    4  A    between atoms: C_11  and  O_12
REMARK    5  A    between atoms: C_14  and  O_15
REMARK    6  A    between atoms: N_21  and  C_23
REMARK    7  A    between atoms: C_23  and  C_24
REMARK    8  A    between atoms: C_24  and  C_25
REMARK    9  A    between atoms: C_25  and  O_27
REMARK   10  A    between atoms: O_27  and  C_28
REMARK   11  A    between atoms: C_28  and  C_29
REMARK   12  A    between atoms: C_29  and  C_30
REMARK   13  A    between atoms: C_30  and  C_31
REMARK   14  A    between atoms: C_31  and  C_32
REMARK   15  A    between atoms: C_32  and  O_33
REMARK   16  A    between atoms: O_33  and  C_34
REMARK   17  A    between atoms: C_34  and  C_36
REMARK   18  A    between atoms: C_36  and  C_37
REMARK   19  A    between atoms: C_37  and  N_38
REMARK   20  A    between atoms: C_44  and  O_45
REMARK   21  A    between atoms: C_47  and  O_48
REMARK   22  A    between atoms: C_52  and  C_53
REMARK   23  A    between atoms: C_53  and  C_54
REMARK   24  A    between atoms: C_57  and  O_58
REMARK   25  A    between atoms: C_60  and  O_61
REMARK   26  A    between atoms: C_65  and  O_66
REMARK                            x       y       z     vdW  Elec       q    Type
REMARK                         _______ _______ _______ _____ _____    ______ ____
ROOT
ATOM      1  C   UNL     1     -11.745  12.288  63.731  0.00  0.00    +0.008 C 
ENDROOT
BRANCH   1   2
ATOM      2  C   UNL     1     -12.112  12.477  65.176  0.00  0.00    +0.048 C 
BRANCH   2   3
ATOM      3  C   UNL     1     -12.795  13.806  65.344  0.00  0.00    +0.208 C 
BRANCH   3   4
ATOM      4  O   UNL     1     -12.262  14.726  64.394  0.00  0.00    -0.448 OA
BRANCH   4   5
ATOM      5  C   UNL     1     -11.290  15.657  64.730  0.00  0.00    +0.323 C 
ATOM      6  O   UNL     1     -11.319  16.753  64.101  0.00  0.00    -0.250 OA
BRANCH   5   7
ATOM      7  C   UNL     1     -10.680  15.711  66.094  0.00  0.00    +0.170 C 
BRANCH   7   8
ATOM      8  C   UNL     1      -9.608  16.744  66.058  0.00  0.00    +0.121 C 
BRANCH   8   9
ATOM      9  N   UNL     1      -9.837  17.626  67.156  0.00  0.00    +0.301 N 
ATOM     10  C   UNL     1      -8.384  18.120  67.615  0.00  0.00    +0.086 C 
ATOM     11  C   UNL     1      -7.774  16.592  67.559  0.00  0.00    +0.027 A 
ATOM     12  C   UNL     1      -8.202  15.973  68.731  0.00  0.00    -0.012 A 
ATOM     13  C   UNL     1      -7.382  15.111  69.448  0.00  0.00    +0.036 A 
ATOM     14  C   UNL     1      -6.029  15.064  69.134  0.00  0.00    +0.172 A 
ATOM     15  C   UNL     1      -5.603  15.700  67.974  0.00  0.00    +0.172 A 
ATOM     16  C   UNL     1      -9.421  16.586  69.352  0.00  0.00    +0.087 C 
ATOM     17  C   UNL     1      -6.421  16.578  67.276  0.00  0.00    +0.041 A 
ATOM     18  C   UNL     1     -10.413  17.019  68.319  0.00  0.00    +0.114 C 
ATOM     19  C   UNL     1     -10.488  18.860  66.789  0.00  0.00    +0.171 C 
BRANCH  14  20
ATOM     20  O   UNL     1      -5.069  14.741  70.070  0.00  0.00    -0.468 OA
ATOM     21  C   UNL     1      -4.815  13.415  70.465  0.00  0.00    +0.253 C 
ENDBRANCH  14  20
BRANCH  15  22
ATOM     22  O   UNL     1      -4.426  15.250  67.372  0.00  0.00    -0.468 OA
ATOM     23  C   UNL     1      -3.162  15.848  67.642  0.00  0.00    +0.253 C 
ENDBRANCH  15  22
BRANCH  10  24
ATOM     24  C   UNL     1      -7.914  18.429  66.035  0.00  0.00    +0.086 C 
BRANCH  24  25
ATOM     25  C   UNL     1      -7.191  19.724  66.124  0.00  0.00    -0.013 A 
ATOM     26  C   UNL     1      -6.939  20.365  67.333  0.00  0.00    +0.036 A 
ATOM     27  C   UNL     1      -5.794  21.137  67.510  0.00  0.00    +0.172 A 
ATOM     28  C   UNL     1      -4.773  21.080  66.567  0.00  0.00    +0.172 A 
ATOM     29  C   UNL     1      -5.213  20.821  65.272  0.00  0.00    +0.040 A 
ATOM     30  C   UNL     1      -6.465  20.250  65.060  0.00  0.00    -0.001 A 
BRANCH  28  31
ATOM     31  O   UNL     1      -3.437  20.888  66.935  0.00  0.00    -0.468 OA
ATOM     32  C   UNL     1      -2.897  19.569  66.985  0.00  0.00    +0.253 C 
ENDBRANCH  28  31
BRANCH  27  33
ATOM     33  O   UNL     1      -5.426  21.357  68.841  0.00  0.00    -0.468 OA
ATOM     34  C   UNL     1      -5.812  20.380  69.785  0.00  0.00    +0.253 C 
ENDBRANCH  27  33
ENDBRANCH  24  25
ENDBRANCH  10  24
ENDBRANCH   8   9
ENDBRANCH   7   8
ENDBRANCH   5   7
ENDBRANCH   4   5
ENDBRANCH   3   4
ENDBRANCH   2   3
ENDBRANCH   1   2
BRANCH   1  35
ATOM     35  C   UNL     1     -10.243  12.172  63.573  0.00  0.00    +0.048 C 
BRANCH  35  36
ATOM     36  C   UNL     1      -9.928  10.822  62.989  0.00  0.00    +0.208 C 
BRANCH  36  37
ATOM     37  O   UNL     1      -9.944   9.873  64.046  0.00  0.00    -0.448 OA
BRANCH  37  38
ATOM     38  C   UNL     1      -8.764   9.177  64.270  0.00  0.00    +0.323 C 
ATOM     39  O   UNL     1      -8.343   8.459  63.332  0.00  0.00    -0.250 OA
BRANCH  38  40
ATOM     40  C   UNL     1      -7.739   9.684  65.236  0.00  0.00    +0.170 C 
BRANCH  40  41
ATOM     41  C   UNL     1      -8.442   9.803  66.562  0.00  0.00    +0.121 C 
BRANCH  41  43
ATOM     42  C   UNL     1      -8.408   9.439  68.953  0.00  0.00    +0.086 C 
ATOM     43  N   UNL     1      -7.534   9.763  67.647  0.00  0.00    +0.301 N 
ATOM     44  C   UNL     1      -6.645   8.620  67.637  0.00  0.00    +0.171 C 
ATOM     45  C   UNL     1      -6.849  10.981  67.949  0.00  0.00    +0.114 C 
ATOM     46  C   UNL     1      -7.797  12.140  67.864  0.00  0.00    +0.087 C 
ATOM     47  C   UNL     1      -9.143  11.771  68.330  0.00  0.00    -0.012 A 
ATOM     48  C   UNL     1     -10.114  12.764  68.275  0.00  0.00    +0.036 A 
ATOM     49  C   UNL     1     -11.363  12.537  68.842  0.00  0.00    +0.172 A 
ATOM     50  C   UNL     1     -11.580  11.395  69.603  0.00  0.00    +0.172 A 
ATOM     51  C   UNL     1     -10.694  10.351  69.364  0.00  0.00    +0.041 A 
ATOM     52  C   UNL     1      -9.595  10.493  68.520  0.00  0.00    +0.027 A 
BRANCH  50  53
ATOM     53  O   UNL     1     -12.362  11.455  70.758  0.00  0.00    -0.468 OA
ATOM     54  C   UNL     1     -12.950  10.225  71.170  0.00  0.00    +0.253 C 
ENDBRANCH  50  53
BRANCH  49  55
ATOM     55  O   UNL     1     -12.259  13.592  68.919  0.00  0.00    -0.468 OA
ATOM     56  C   UNL     1     -12.345  14.463  70.030  0.00  0.00    +0.253 C 
ENDBRANCH  49  55
BRANCH  42  57
ATOM     57  C   UNL     1      -9.186   8.173  68.176  0.00  0.00    +0.086 C 
BRANCH  57  61
ATOM     58  C   UNL     1     -10.463   6.143  71.581  0.00  0.00    +0.172 A 
ATOM     59  C   UNL     1      -9.109   6.122  71.285  0.00  0.00    +0.172 A 
ATOM     60  C   UNL     1      -8.626   6.611  70.077  0.00  0.00    +0.036 A 
ATOM     61  C   UNL     1      -9.558   7.261  69.277  0.00  0.00    -0.013 A 
ATOM     62  C   UNL     1     -10.823   6.688  69.275  0.00  0.00    -0.001 A 
ATOM     63  C   UNL     1     -11.310   6.211  70.487  0.00  0.00    +0.040 A 
BRANCH  58  65
ATOM     64  C   UNL     1     -11.321   4.629  73.302  0.00  0.00    +0.253 C 
ATOM     65  O   UNL     1     -10.967   5.895  72.846  0.00  0.00    -0.468 OA
ENDBRANCH  58  65
BRANCH  59  66
ATOM     66  O   UNL     1      -8.252   5.911  72.361  0.00  0.00    -0.468 OA
ATOM     67  C   UNL     1      -7.141   5.037  72.266  0.00  0.00    +0.253 C 
ENDBRANCH  59  66
ENDBRANCH  57  61
ENDBRANCH  42  57
ENDBRANCH  41  43
ENDBRANCH  40  41
ENDBRANCH  38  40
ENDBRANCH  37  38
ENDBRANCH  36  37
ENDBRANCH  35  36
ENDBRANCH   1  35
TORSDOF 26
ENDMDL
MODEL 2
REMARK VINA RESULT:      -6.6      2.103     11.018
REMARK  Name = 
REMARK  26 active torsions:
REMARK  status: ('A' for Active; 'I' for Inactive)
REMARK    1  A    between atoms: O_2  and  C_3
REMARK    2  A    between atoms: C_6  and  C_7
REMARK    3  A    between atoms: C_7  and  C_8
REMARK    4  A    between atoms: C_11  and  O_12
REMARK    5  A    between atoms: C_14  and  O_15
REMARK    6  A    between atoms: N_21  and  C_23
REMARK    7  A    between atoms: C_23  and  C_24
REMARK    8  A    between atoms: C_24  and  C_25
REMARK    9  A    between atoms: C_25  and  O_27
REMARK   10  A    between atoms: O_27  and  C_28
REMARK   11  A    between atoms: C_28  and  C_29
REMARK   12  A    between atoms: C_29  and  C_30
REMARK   13  A    between atoms: C_30  and  C_31
REMARK   14  A    between atoms: C_31  and  C_32
REMARK   15  A    between atoms: C_32  and  O_33
REMARK   16  A    between atoms: O_33  and  C_34
REMARK   17  A    between atoms: C_34  and  C_36
REMARK   18  A    between atoms: C_36  and  C_37
REMARK   19  A    between atoms: C_37  and  N_38
REMARK   20  A    between atoms: C_44  and  O_45
REMARK   21  A    between atoms: C_47  and  O_48
REMARK   22  A    between atoms: C_52  and  C_53
REMARK   23  A    between atoms: C_53  and  C_54
REMARK   24  A    between atoms: C_57  and  O_58
REMARK   25  A    between atoms: C_60  and  O_61
REMARK   26  A    between atoms: C_65  and  O_66
REMARK                            x       y       z     vdW  Elec       q    Type
REMARK                         _______ _______ _______ _____ _____    ______ ____
ROOT
ATOM      1  C   UNL     1     -10.001  11.169  65.192  0.00  0.00    +0.008 C 
ENDROOT
BRANCH   1   2
ATOM      2  C   UNL     1     -10.268  10.053  66.162  0.00  0.00    +0.048 C 
BRANCH   2   3
ATOM      3  C   UNL     1      -9.274   8.948  65.934  0.00  0.00    +0.208 C 
BRANCH   3   4
ATOM      4  O   UNL     1      -9.928   7.693  66.105  0.00  0.00    -0.448 OA
BRANCH   4   5
ATOM      5  C   UNL     1     -10.168   7.148  67.358  0.00  0.00    +0.323 C 
ATOM      6  O   UNL     1     -11.298   6.606  67.527  0.00  0.00    -0.250 OA
BRANCH   5   7
ATOM      7  C   UNL     1      -9.066   6.627  68.222  0.00  0.00    +0.170 C 
BRANCH   7   8
ATOM      8  C   UNL     1      -9.412   6.963  69.631  0.00  0.00    +0.121 C 
BRANCH   8   9
ATOM      9  N   UNL     1      -8.403   7.849  70.111  0.00  0.00    +0.301 N 
ATOM     10  C   UNL     1      -8.983   8.454  71.478  0.00  0.00    +0.086 C 
ATOM     11  C   UNL     1     -10.454   8.747  70.800  0.00  0.00    +0.027 A 
ATOM     12  C   UNL     1     -10.301   9.918  70.062  0.00  0.00    -0.012 A 
ATOM     13  C   UNL     1     -11.292  10.891  70.013  0.00  0.00    +0.036 A 
ATOM     14  C   UNL     1     -12.345  10.814  70.917  0.00  0.00    +0.172 A 
ATOM     15  C   UNL     1     -12.482   9.651  71.666  0.00  0.00    +0.172 A 
ATOM     16  C   UNL     1      -8.889  10.224  69.660  0.00  0.00    +0.087 C 
ATOM     17  C   UNL     1     -11.478   8.696  71.727  0.00  0.00    +0.041 A 
ATOM     18  C   UNL     1      -8.140   8.986  69.279  0.00  0.00    +0.114 C 
ATOM     19  C   UNL     1      -7.198   7.185  70.547  0.00  0.00    +0.171 C 
BRANCH  14  20
ATOM     20  O   UNL     1     -13.020  11.934  71.354  0.00  0.00    -0.468 OA
ATOM     21  C   UNL     1     -12.616  13.239  71.017  0.00  0.00    +0.253 C 
ENDBRANCH  14  20
BRANCH  15  22
ATOM     22  O   UNL     1     -13.750   9.331  72.155  0.00  0.00    -0.468 OA
ATOM     23  C   UNL     1     -14.484   8.208  71.677  0.00  0.00    +0.253 C 
ENDBRANCH  15  22
BRANCH  10  24
ATOM     24  C   UNL     1      -9.468   6.942  72.019  0.00  0.00    +0.086 C 
BRANCH  24  25
ATOM     25  C   UNL     1      -9.431   7.065  73.499  0.00  0.00    -0.013 A 
ATOM     26  C   UNL     1     -10.121   6.203  74.345  0.00  0.00    +0.036 A 
ATOM     27  C   UNL     1      -9.622   5.883  75.606  0.00  0.00    +0.172 A 
ATOM     28  C   UNL     1      -8.315   6.226  75.935  0.00  0.00    +0.172 A 
ATOM     29  C   UNL     1      -7.858   7.381  75.308  0.00  0.00    +0.040 A 
ATOM     30  C   UNL     1      -8.492   7.852  74.161  0.00  0.00    -0.001 A 
BRANCH  28  31
ATOM     31  O   UNL     1      -7.428   5.302  76.497  0.00  0.00    -0.468 OA
ATOM     32  C   UNL     1      -6.187   5.025  75.849  0.00  0.00    +0.253 C 
ENDBRANCH  28  31
BRANCH  27  33
ATOM     33  O   UNL     1     -10.139   4.712  76.168  0.00  0.00    -0.468 OA
ATOM     34  C   UNL     1     -10.203   3.572  75.337  0.00  0.00    +0.253 C 
ENDBRANCH  27  33
ENDBRANCH  24  25
ENDBRANCH  10  24
ENDBRANCH   8   9
ENDBRANCH   7   8
ENDBRANCH   5   7
ENDBRANCH   4   5
ENDBRANCH   3   4
ENDBRANCH   2   3
ENDBRANCH   1   2
BRANCH   1  35
ATOM     35  C   UNL     1     -10.907  11.054  63.984  0.00  0.00    +0.048 C 
BRANCH  35  36
ATOM     36  C   UNL     1     -11.264  12.441  63.523  0.00  0.00    +0.208 C 
BRANCH  36  37
ATOM     37  O   UNL     1     -10.836  13.358  64.519  0.00  0.00    -0.448 OA
BRANCH  37  38
ATOM     38  C   UNL     1     -11.612  14.498  64.683  0.00  0.00    +0.323 C 
ATOM     39  O   UNL     1     -12.797  14.327  65.051  0.00  0.00    -0.250 OA
BRANCH  38  40
ATOM     40  C   UNL     1     -10.988  15.816  65.024  0.00  0.00    +0.170 C 
BRANCH  40  41
ATOM     41  C   UNL     1      -9.875  15.511  65.991  0.00  0.00    +0.121 C 
BRANCH  41  43
ATOM     42  C   UNL     1      -8.793  16.326  67.995  0.00  0.00    +0.086 C 
ATOM     43  N   UNL     1     -10.188  15.930  67.306  0.00  0.00    +0.301 N 
ATOM     44  C   UNL     1     -10.883  17.198  67.377  0.00  0.00    +0.171 C 
ATOM     45  C   UNL     1     -10.764  14.945  68.168  0.00  0.00    +0.114 C 
ATOM     46  C   UNL     1     -10.060  13.633  67.993  0.00  0.00    +0.087 C 
ATOM     47  C   UNL     1      -8.623  13.820  67.742  0.00  0.00    -0.012 A 
ATOM     48  C   UNL     1      -7.871  12.669  67.541  0.00  0.00    +0.036 A 
ATOM     49  C   UNL     1      -6.486  12.758  67.455  0.00  0.00    +0.172 A 
ATOM     50  C   UNL     1      -5.851  13.962  67.735  0.00  0.00    +0.172 A 
ATOM     51  C   UNL     1      -6.656  15.090  67.630  0.00  0.00    +0.041 A 
ATOM     52  C   UNL     1      -8.025  15.001  67.391  0.00  0.00    +0.027 A 
BRANCH  50  53
ATOM     53  O   UNL     1      -4.640  13.976  68.430  0.00  0.00    -0.468 OA
ATOM     54  C   UNL     1      -4.686  14.538  69.738  0.00  0.00    +0.253 C 
ENDBRANCH  50  53
BRANCH  49  55
ATOM     55  O   UNL     1      -5.746  11.586  67.417  0.00  0.00    -0.468 OA
ATOM     56  C   UNL     1      -5.127  11.092  66.244  0.00  0.00    +0.253 C 
ENDBRANCH  49  55
BRANCH  42  57
ATOM     57  C   UNL     1      -8.345  17.247  66.669  0.00  0.00    +0.086 C 
BRANCH  57  61
ATOM     58  C   UNL     1      -6.020  20.397  68.088  0.00  0.00    +0.172 A 
ATOM     59  C   UNL     1      -6.632  19.574  69.020  0.00  0.00    +0.172 A 
ATOM     60  C   UNL     1      -7.569  18.621  68.638  0.00  0.00    +0.036 A 
ATOM     61  C   UNL     1      -7.719  18.444  67.267  0.00  0.00    -0.013 A 
ATOM     62  C   UNL     1      -7.652  19.612  66.519  0.00  0.00    -0.001 A 
ATOM     63  C   UNL     1      -6.705  20.558  66.896  0.00  0.00    +0.040 A 
BRANCH  58  65
ATOM     64  C   UNL     1      -3.611  20.833  68.064  0.00  0.00    +0.253 C 
ATOM     65  O   UNL     1      -4.920  21.186  68.379  0.00  0.00    -0.468 OA
ENDBRANCH  58  65
BRANCH  59  66
ATOM     66  O   UNL     1      -6.029  19.515  70.274  0.00  0.00    -0.468 OA
ATOM     67  C   UNL     1      -5.199  18.431  70.650  0.00  0.00    +0.253 C 
ENDBRANCH  59  66
ENDBRANCH  57  61
ENDBRANCH  42  57
ENDBRANCH  41  43
ENDBRANCH  40  41
ENDBRANCH  38  40
ENDBRANCH  37  38
ENDBRANCH  36  37
ENDBRANCH  35  36
ENDBRANCH   1  35
TORSDOF 26
ENDMDL
MODEL 3
REMARK VINA RESULT:      -6.4      3.217      7.646
REMARK  Name = 
REMARK  26 active torsions:
REMARK  status: ('A' for Active; 'I' for Inactive)
REMARK    1  A    between atoms: O_2  and  C_3
REMARK    2  A    between atoms: C_6  and  C_7
REMARK    3  A    between atoms: C_7  and  C_8
REMARK    4  A    between atoms: C_11  and  O_12
REMARK    5  A    between atoms: C_14  and  O_15
REMARK    6  A    between atoms: N_21  and  C_23
REMARK    7  A    between atoms: C_23  and  C_24
REMARK    8  A    between atoms: C_24  and  C_25
REMARK    9  A    between atoms: C_25  and  O_27
REMARK   10  A    between atoms: O_27  and  C_28
REMARK   11  A    between atoms: C_28  and  C_29
REMARK   12  A    between atoms: C_29  and  C_30
REMARK   13  A    between atoms: C_30  and  C_31
REMARK   14  A    between atoms: C_31  and  C_32
REMARK   15  A    between atoms: C_32  and  O_33
REMARK   16  A    between atoms: O_33  and  C_34
REMARK   17  A    between atoms: C_34  and  C_36
REMARK   18  A    between atoms: C_36  and  C_37
REMARK   19  A    between atoms: C_37  and  N_38
REMARK   20  A    between atoms: C_44  and  O_45
REMARK   21  A    between atoms: C_47  and  O_48
REMARK   22  A    between atoms: C_52  and  C_53
REMARK   23  A    between atoms: C_53  and  C_54
REMARK   24  A    between atoms: C_57  and  O_58
REMARK   25  A    between atoms: C_60  and  O_61
REMARK   26  A    between atoms: C_65  and  O_66
REMARK                            x       y       z     vdW  Elec       q    Type
REMARK                         _______ _______ _______ _____ _____    ______ ____
ROOT
ATOM      1  C   UNL     1     -13.562  13.044  72.125  0.00  0.00    +0.008 C 
ENDROOT
BRANCH   1   2
ATOM      2  C   UNL     1     -13.640  14.544  72.102  0.00  0.00    +0.048 C 
BRANCH   2   3
ATOM      3  C   UNL     1     -12.252  15.114  72.213  0.00  0.00    +0.208 C 
BRANCH   3   4
ATOM      4  O   UNL     1     -12.094  16.143  71.240  0.00  0.00    -0.448 OA
BRANCH   4   5
ATOM      5  C   UNL     1     -11.385  15.947  70.063  0.00  0.00    +0.323 C 
ATOM      6  O   UNL     1     -10.186  15.564  70.186  0.00  0.00    -0.250 OA
BRANCH   5   7
ATOM      7  C   UNL     1     -12.059  15.560  68.786  0.00  0.00    +0.170 C 
BRANCH   7   8
ATOM      8  C   UNL     1     -11.330  14.383  68.240  0.00  0.00    +0.121 C 
BRANCH   8   9
ATOM      9  N   UNL     1     -11.225  14.570  66.830  0.00  0.00    +0.301 N 
ATOM     10  C   UNL     1     -10.231  13.421  66.320  0.00  0.00    +0.086 C 
ATOM     11  C   UNL     1      -9.162  13.713  67.537  0.00  0.00    +0.027 A 
ATOM     12  C   UNL     1      -8.448  14.843  67.146  0.00  0.00    -0.012 A 
ATOM     13  C   UNL     1      -7.084  14.966  67.379  0.00  0.00    +0.036 A 
ATOM     14  C   UNL     1      -6.372  13.840  67.775  0.00  0.00    +0.172 A 
ATOM     15  C   UNL     1      -7.089  12.708  68.145  0.00  0.00    +0.172 A 
ATOM     16  C   UNL     1      -9.149  15.711  66.145  0.00  0.00    +0.087 C 
ATOM     17  C   UNL     1      -8.447  12.584  67.889  0.00  0.00    +0.041 A 
ATOM     18  C   UNL     1     -10.617  15.801  66.420  0.00  0.00    +0.114 C 
ATOM     19  C   UNL     1     -12.440  14.279  66.108  0.00  0.00    +0.171 C 
BRANCH  14  20
ATOM     20  O   UNL     1      -5.034  13.678  67.482  0.00  0.00    -0.468 OA
ATOM     21  C   UNL     1      -4.039  14.525  68.001  0.00  0.00    +0.253 C 
ENDBRANCH  14  20
BRANCH  15  22
ATOM     22  O   UNL     1      -6.478  11.799  69.011  0.00  0.00    -0.468 OA
ATOM     23  C   UNL     1      -7.159  10.647  69.501  0.00  0.00    +0.253 C 
ENDBRANCH  15  22
BRANCH  10  24
ATOM     24  C   UNL     1     -11.022  12.245  67.218  0.00  0.00    +0.086 C 
BRANCH  24  25
ATOM     25  C   UNL     1     -10.831  11.003  66.425  0.00  0.00    -0.013 A 
ATOM     26  C   UNL     1     -10.445  11.013  65.089  0.00  0.00    +0.036 A 
ATOM     27  C   UNL     1      -9.668   9.986  64.559  0.00  0.00    +0.172 A 
ATOM     28  C   UNL     1      -9.068   9.067  65.413  0.00  0.00    +0.172 A 
ATOM     29  C   UNL     1      -9.784   8.830  66.582  0.00  0.00    +0.040 A 
ATOM     30  C   UNL     1     -10.739   9.746  67.016  0.00  0.00    -0.001 A 
BRANCH  28  31
ATOM     31  O   UNL     1      -7.712   8.737  65.309  0.00  0.00    -0.468 OA
ATOM     32  C   UNL     1      -6.974   8.391  66.480  0.00  0.00    +0.253 C 
ENDBRANCH  28  31
BRANCH  27  33
ATOM     33  O   UNL     1      -8.988  10.304  63.379  0.00  0.00    -0.468 OA
ATOM     34  C   UNL     1      -9.436  11.437  62.663  0.00  0.00    +0.253 C 
ENDBRANCH  27  33
ENDBRANCH  24  25
ENDBRANCH  10  24
ENDBRANCH   8   9
ENDBRANCH   7   8
ENDBRANCH   5   7
ENDBRANCH   4   5
ENDBRANCH   3   4
ENDBRANCH   2   3
ENDBRANCH   1   2
BRANCH   1  35
ATOM     35  C   UNL     1     -12.567  12.545  71.098  0.00  0.00    +0.048 C 
BRANCH  35  36
ATOM     36  C   UNL     1     -12.805  11.075  70.879  0.00  0.00    +0.208 C 
BRANCH  36  37
ATOM     37  O   UNL     1     -13.172  10.500  72.125  0.00  0.00    -0.448 OA
BRANCH  37  38
ATOM     38  C   UNL     1     -13.421   9.134  72.125  0.00  0.00    +0.323 C 
ATOM     39  O   UNL     1     -14.451   8.746  72.724  0.00  0.00    -0.250 OA
BRANCH  38  40
ATOM     40  C   UNL     1     -12.918   8.256  71.021  0.00  0.00    +0.170 C 
BRANCH  40  41
ATOM     41  C   UNL     1     -11.899   7.342  71.649  0.00  0.00    +0.121 C 
BRANCH  41  43
ATOM     42  C   UNL     1      -9.777   6.496  70.854  0.00  0.00    +0.086 C 
ATOM     43  N   UNL     1     -10.576   7.777  71.401  0.00  0.00    +0.301 N 
ATOM     44  C   UNL     1     -10.445   8.669  70.268  0.00  0.00    +0.171 C 
ATOM     45  C   UNL     1      -9.830   8.225  72.535  0.00  0.00    +0.114 C 
ATOM     46  C   UNL     1     -10.067   7.312  73.702  0.00  0.00    +0.087 C 
ATOM     47  C   UNL     1     -10.219   5.914  73.270  0.00  0.00    -0.012 A 
ATOM     48  C   UNL     1     -10.467   4.978  74.268  0.00  0.00    +0.036 A 
ATOM     49  C   UNL     1     -10.466   3.624  73.956  0.00  0.00    +0.172 A 
ATOM     50  C   UNL     1     -10.054   3.204  72.697  0.00  0.00    +0.172 A 
ATOM     51  C   UNL     1     -10.116   4.174  71.703  0.00  0.00    +0.041 A 
ATOM     52  C   UNL     1     -10.440   5.499  71.984  0.00  0.00    +0.027 A 
BRANCH  50  53
ATOM     53  O   UNL     1      -9.291   2.043  72.555  0.00  0.00    -0.468 OA
ATOM     54  C   UNL     1      -9.323   1.438  71.265  0.00  0.00    +0.253 C 
ENDBRANCH  50  53
BRANCH  49  55
ATOM     55  O   UNL     1     -10.554   2.704  74.989  0.00  0.00    -0.468 OA
ATOM     56  C   UNL     1      -9.824   2.815  76.197  0.00  0.00    +0.253 C 
ENDBRANCH  49  55
BRANCH  42  57
ATOM     57  C   UNL     1     -10.998   6.143  69.761  0.00  0.00    +0.086 C 
BRANCH  57  61
ATOM     58  C   UNL     1      -9.173   4.459  66.418  0.00  0.00    +0.172 A 
ATOM     59  C   UNL     1      -8.357   5.017  67.389  0.00  0.00    +0.172 A 
ATOM     60  C   UNL     1      -8.884   5.760  68.438  0.00  0.00    +0.036 A 
ATOM     61  C   UNL     1     -10.271   5.762  68.533  0.00  0.00    -0.013 A 
ATOM     62  C   UNL     1     -10.938   5.810  67.315  0.00  0.00    -0.001 A 
ATOM     63  C   UNL     1     -10.415   5.054  66.272  0.00  0.00    +0.040 A 
BRANCH  58  65
ATOM     64  C   UNL     1      -9.062   2.172  65.553  0.00  0.00    +0.253 C 
ATOM     65  O   UNL     1      -8.730   3.522  65.500  0.00  0.00    -0.468 OA
ENDBRANCH  58  65
BRANCH  59  66
ATOM     66  O   UNL     1      -7.056   4.523  67.450  0.00  0.00    -0.468 OA
ATOM     67  C   UNL     1      -6.713   3.435  68.288  0.00  0.00    +0.253 C 
ENDBRANCH  59  66
ENDBRANCH  57  61
ENDBRANCH  42  57
ENDBRANCH  41  43
ENDBRANCH  40  41
ENDBRANCH  38  40
ENDBRANCH  37  38
ENDBRANCH  36  37
ENDBRANCH  35  36
ENDBRANCH   1  35
TORSDOF 26
ENDMDL
MODEL 4
REMARK VINA RESULT:      -6.4      2.893      7.265
REMARK  Name = 
REMARK  26 active torsions:
REMARK  status: ('A' for Active; 'I' for Inactive)
REMARK    1  A    between atoms: O_2  and  C_3
REMARK    2  A    between atoms: C_6  and  C_7
REMARK    3  A    between atoms: C_7  and  C_8
REMARK    4  A    between atoms: C_11  and  O_12
REMARK    5  A    between atoms: C_14  and  O_15
REMARK    6  A    between atoms: N_21  and  C_23
REMARK    7  A    between atoms: C_23  and  C_24
REMARK    8  A    between atoms: C_24  and  C_25
REMARK    9  A    between atoms: C_25  and  O_27
REMARK   10  A    between atoms: O_27  and  C_28
REMARK   11  A    between atoms: C_28  and  C_29
REMARK   12  A    between atoms: C_29  and  C_30
REMARK   13  A    between atoms: C_30  and  C_31
REMARK   14  A    between atoms: C_31  and  C_32
REMARK   15  A    between atoms: C_32  and  O_33
REMARK   16  A    between atoms: O_33  and  C_34
REMARK   17  A    between atoms: C_34  and  C_36
REMARK   18  A    between atoms: C_36  and  C_37
REMARK   19  A    between atoms: C_37  and  N_38
REMARK   20  A    between atoms: C_44  and  O_45
REMARK   21  A    between atoms: C_47  and  O_48
REMARK   22  A    between atoms: C_52  and  C_53
REMARK   23  A    between atoms: C_53  and  C_54
REMARK   24  A    between atoms: C_57  and  O_58
REMARK   25  A    between atoms: C_60  and  O_61
REMARK   26  A    between atoms: C_65  and  O_66
REMARK                            x       y       z     vdW  Elec       q    Type
REMARK                         _______ _______ _______ _____ _____    ______ ____
ROOT
ATOM      1  C   UNL     1      -5.165   9.044  74.605  0.00  0.00    +0.008 C 
ENDROOT
BRANCH   1   2
ATOM      2  C   UNL     1      -4.720  10.347  74.004  0.00  0.00    +0.048 C 
BRANCH   2   3
ATOM      3  C   UNL     1      -4.561  10.179  72.517  0.00  0.00    +0.208 C 
BRANCH   3   4
ATOM      4  O   UNL     1      -5.549   9.266  72.045  0.00  0.00    -0.448 OA
BRANCH   4   5
ATOM      5  C   UNL     1      -6.260   9.486  70.874  0.00  0.00    +0.323 C 
ATOM      6  O   UNL     1      -7.431   9.945  71.005  0.00  0.00    -0.250 OA
BRANCH   5   7
ATOM      7  C   UNL     1      -5.582   9.807  69.581  0.00  0.00    +0.170 C 
BRANCH   7   8
ATOM      8  C   UNL     1      -6.297  10.967  68.983  0.00  0.00    +0.121 C 
BRANCH   8   9
ATOM      9  N   UNL     1      -5.428  11.539  68.007  0.00  0.00    +0.301 N 
ATOM     10  C   UNL     1      -6.369  12.443  67.076  0.00  0.00    +0.086 C 
ATOM     11  C   UNL     1      -7.504  11.256  66.958  0.00  0.00    +0.027 A 
ATOM     12  C   UNL     1      -7.013  10.360  66.011  0.00  0.00    -0.012 A 
ATOM     13  C   UNL     1      -7.844   9.749  65.079  0.00  0.00    +0.036 A 
ATOM     14  C   UNL     1      -9.138  10.232  64.923  0.00  0.00    +0.172 A 
ATOM     15  C   UNL     1      -9.615  11.142  65.859  0.00  0.00    +0.172 A 
ATOM     16  C   UNL     1      -5.527  10.402  65.821  0.00  0.00    +0.087 C 
ATOM     17  C   UNL     1      -8.776  11.764  66.771  0.00  0.00    +0.041 A 
ATOM     18  C   UNL     1      -4.807  10.603  67.117  0.00  0.00    +0.114 C 
ATOM     19  C   UNL     1      -4.497  12.502  68.543  0.00  0.00    +0.171 C 
BRANCH  14  20
ATOM     20  O   UNL     1      -9.816  10.136  63.726  0.00  0.00    -0.468 OA
ATOM     21  C   UNL     1      -9.288  10.621  62.517  0.00  0.00    +0.253 C 
ENDBRANCH  14  20
BRANCH  15  22
ATOM     22  O   UNL     1     -10.997  11.231  66.042  0.00  0.00    -0.468 OA
ATOM     23  C   UNL     1     -11.778  12.244  65.415  0.00  0.00    +0.253 C 
ENDBRANCH  15  22
BRANCH  10  24
ATOM     24  C   UNL     1      -7.137  13.128  68.400  0.00  0.00    +0.086 C 
BRANCH  24  25
ATOM     25  C   UNL     1      -7.116  14.584  68.110  0.00  0.00    -0.013 A 
ATOM     26  C   UNL     1      -7.679  15.133  66.962  0.00  0.00    +0.036 A 
ATOM     27  C   UNL     1      -8.236  16.409  66.976  0.00  0.00    +0.172 A 
ATOM     28  C   UNL     1      -8.454  17.051  68.190  0.00  0.00    +0.172 A 
ATOM     29  C   UNL     1      -7.542  16.708  69.183  0.00  0.00    +0.040 A 
ATOM     30  C   UNL     1      -6.800  15.535  69.077  0.00  0.00    -0.001 A 
BRANCH  28  31
ATOM     31  O   UNL     1      -9.682  17.646  68.501  0.00  0.00    -0.468 OA
ATOM     32  C   UNL     1      -9.816  19.065  68.450  0.00  0.00    +0.253 C 
ENDBRANCH  28  31
BRANCH  27  33
ATOM     33  O   UNL     1      -9.135  16.675  65.939  0.00  0.00    -0.468 OA
ATOM     34  C   UNL     1      -9.902  15.590  65.457  0.00  0.00    +0.253 C 
ENDBRANCH  27  33
ENDBRANCH  24  25
ENDBRANCH  10  24
ENDBRANCH   8   9
ENDBRANCH   7   8
ENDBRANCH   5   7
ENDBRANCH   4   5
ENDBRANCH   3   4
ENDBRANCH   2   3
ENDBRANCH   1   2
BRANCH   1  35
ATOM     35  C   UNL     1      -6.353   9.256  75.520  0.00  0.00    +0.048 C 
BRANCH  35  36
ATOM     36  C   UNL     1      -7.386   8.206  75.213  0.00  0.00    +0.208 C 
BRANCH  36  37
ATOM     37  O   UNL     1      -8.244   8.717  74.202  0.00  0.00    -0.448 OA
BRANCH  37  38
ATOM     38  C   UNL     1      -8.774   7.790  73.316  0.00  0.00    +0.323 C 
ATOM     39  O   UNL     1      -8.023   6.851  72.963  0.00  0.00    -0.250 OA
BRANCH  38  40
ATOM     40  C   UNL     1     -10.247   7.526  73.263  0.00  0.00    +0.170 C 
BRANCH  40  41
ATOM     41  C   UNL     1     -10.793   8.434  72.193  0.00  0.00    +0.121 C 
BRANCH  41  43
ATOM     42  C   UNL     1     -11.606   8.520  69.916  0.00  0.00    +0.086 C 
ATOM     43  N   UNL     1     -11.680   7.754  71.324  0.00  0.00    +0.301 N 
ATOM     44  C   UNL     1     -11.231   6.436  70.928  0.00  0.00    +0.171 C 
ATOM     45  C   UNL     1     -13.063   7.772  71.686  0.00  0.00    +0.114 C 
ATOM     46  C   UNL     1     -13.453   9.138  72.167  0.00  0.00    +0.087 C 
ATOM     47  C   UNL     1     -12.745  10.192  71.425  0.00  0.00    -0.012 A 
ATOM     48  C   UNL     1     -13.012  11.504  71.801  0.00  0.00    +0.036 A 
ATOM     49  C   UNL     1     -12.502  12.553  71.046  0.00  0.00    +0.172 A 
ATOM     50  C   UNL     1     -11.876  12.293  69.833  0.00  0.00    +0.172 A 
ATOM     51  C   UNL     1     -11.397  10.996  69.684  0.00  0.00    +0.041 A 
ATOM     52  C   UNL     1     -11.648  10.004  70.628  0.00  0.00    +0.027 A 
BRANCH  50  53
ATOM     53  O   UNL     1     -12.069  13.143  68.742  0.00  0.00    -0.468 OA
ATOM     54  C   UNL     1     -11.055  14.121  68.535  0.00  0.00    +0.253 C 
ENDBRANCH  50  53
BRANCH  49  55
ATOM     55  O   UNL     1     -12.911  13.845  71.342  0.00  0.00    -0.468 OA
ATOM     56  C   UNL     1     -13.261  14.273  72.644  0.00  0.00    +0.253 C 
ENDBRANCH  49  55
BRANCH  42  57
ATOM     57  C   UNL     1      -9.930   8.505  69.942  0.00  0.00    +0.086 C 
BRANCH  57  61
ATOM     58  C   UNL     1      -9.178   6.350  66.458  0.00  0.00    +0.172 A 
ATOM     59  C   UNL     1      -8.089   6.820  67.176  0.00  0.00    +0.172 A 
ATOM     60  C   UNL     1      -8.250   7.701  68.240  0.00  0.00    +0.036 A 
ATOM     61  C   UNL     1      -9.563   7.938  68.628  0.00  0.00    -0.013 A 
ATOM     62  C   UNL     1     -10.473   8.024  67.582  0.00  0.00    -0.001 A 
ATOM     63  C   UNL     1     -10.317   7.133  66.526  0.00  0.00    +0.040 A 
BRANCH  58  65
ATOM     64  C   UNL     1      -9.352   3.975  65.895  0.00  0.00    +0.253 C 
ATOM     65  O   UNL     1      -9.097   5.301  65.559  0.00  0.00    -0.468 OA
ENDBRANCH  58  65
BRANCH  59  66
ATOM     66  O   UNL     1      -6.897   6.123  67.005  0.00  0.00    -0.468 OA
ATOM     67  C   UNL     1      -5.745   6.742  66.463  0.00  0.00    +0.253 C 
ENDBRANCH  59  66
ENDBRANCH  57  61
ENDBRANCH  42  57
ENDBRANCH  41  43
ENDBRANCH  40  41
ENDBRANCH  38  40
ENDBRANCH  37  38
ENDBRANCH  36  37
ENDBRANCH  35  36
ENDBRANCH   1  35
TORSDOF 26
ENDMDL
MODEL 5
REMARK VINA RESULT:      -6.4      2.920      5.447
REMARK  Name = 
REMARK  26 active torsions:
REMARK  status: ('A' for Active; 'I' for Inactive)
REMARK    1  A    between atoms: O_2  and  C_3
REMARK    2  A    between atoms: C_6  and  C_7
REMARK    3  A    between atoms: C_7  and  C_8
REMARK    4  A    between atoms: C_11  and  O_12
REMARK    5  A    between atoms: C_14  and  O_15
REMARK    6  A    between atoms: N_21  and  C_23
REMARK    7  A    between atoms: C_23  and  C_24
REMARK    8  A    between atoms: C_24  and  C_25
REMARK    9  A    between atoms: C_25  and  O_27
REMARK   10  A    between atoms: O_27  and  C_28
REMARK   11  A    between atoms: C_28  and  C_29
REMARK   12  A    between atoms: C_29  and  C_30
REMARK   13  A    between atoms: C_30  and  C_31
REMARK   14  A    between atoms: C_31  and  C_32
REMARK   15  A    between atoms: C_32  and  O_33
REMARK   16  A    between atoms: O_33  and  C_34
REMARK   17  A    between atoms: C_34  and  C_36
REMARK   18  A    between atoms: C_36  and  C_37
REMARK   19  A    between atoms: C_37  and  N_38
REMARK   20  A    between atoms: C_44  and  O_45
REMARK   21  A    between atoms: C_47  and  O_48
REMARK   22  A    between atoms: C_52  and  C_53
REMARK   23  A    between atoms: C_53  and  C_54
REMARK   24  A    between atoms: C_57  and  O_58
REMARK   25  A    between atoms: C_60  and  O_61
REMARK   26  A    between atoms: C_65  and  O_66
REMARK                            x       y       z     vdW  Elec       q    Type
REMARK                         _______ _______ _______ _____ _____    ______ ____
ROOT
ATOM      1  C   UNL     1     -10.380  12.157  63.797  0.00  0.00    +0.008 C 
ENDROOT
BRANCH   1   2
ATOM      2  C   UNL     1     -11.759  12.584  63.380  0.00  0.00    +0.048 C 
BRANCH   2   3
ATOM      3  C   UNL     1     -12.670  12.553  64.577  0.00  0.00    +0.208 C 
BRANCH   3   4
ATOM      4  O   UNL     1     -12.878  13.886  65.037  0.00  0.00    -0.448 OA
BRANCH   4   5
ATOM      5  C   UNL     1     -12.182  14.966  64.514  0.00  0.00    +0.323 C 
ATOM      6  O   UNL     1     -12.837  15.747  63.765  0.00  0.00    -0.250 OA
BRANCH   5   7
ATOM      7  C   UNL     1     -11.015  15.577  65.220  0.00  0.00    +0.170 C 
BRANCH   7   8
ATOM      8  C   UNL     1     -10.745  14.746  66.426  0.00  0.00    +0.121 C 
BRANCH   8   9
ATOM      9  N   UNL     1      -9.757  15.431  67.195  0.00  0.00    +0.301 N 
ATOM     10  C   UNL     1      -9.447  14.471  68.441  0.00  0.00    +0.086 C 
ATOM     11  C   UNL     1     -11.048  14.205  68.719  0.00  0.00    +0.027 A 
ATOM     12  C   UNL     1     -11.505  15.336  69.390  0.00  0.00    -0.012 A 
ATOM     13  C   UNL     1     -12.421  15.251  70.432  0.00  0.00    +0.036 A 
ATOM     14  C   UNL     1     -12.689  14.004  70.982  0.00  0.00    +0.172 A 
ATOM     15  C   UNL     1     -12.214  12.879  70.319  0.00  0.00    +0.172 A 
ATOM     16  C   UNL     1     -10.675  16.567  69.181  0.00  0.00    +0.087 C 
ATOM     17  C   UNL     1     -11.282  12.971  69.295  0.00  0.00    +0.041 A 
ATOM     18  C   UNL     1     -10.182  16.671  67.772  0.00  0.00    +0.114 C 
ATOM     19  C   UNL     1      -8.473  15.528  66.545  0.00  0.00    +0.171 C 
BRANCH  14  20
ATOM     20  O   UNL     1     -13.077  13.850  72.297  0.00  0.00    -0.468 OA
ATOM     21  C   UNL     1     -12.747  14.784  73.296  0.00  0.00    +0.253 C 
ENDBRANCH  14  20
BRANCH  15  22
ATOM     22  O   UNL     1     -12.877  11.667  70.523  0.00  0.00    -0.468 OA
ATOM     23  C   UNL     1     -12.271  10.582  71.219  0.00  0.00    +0.253 C 
ENDBRANCH  15  22
BRANCH  10  24
ATOM     24  C   UNL     1      -9.333  13.118  67.457  0.00  0.00    +0.086 C 
BRANCH  24  25
ATOM     25  C   UNL     1      -8.004  12.544  67.793  0.00  0.00    -0.013 A 
ATOM     26  C   UNL     1      -7.248  11.809  66.886  0.00  0.00    +0.036 A 
ATOM     27  C   UNL     1      -5.856  11.839  66.922  0.00  0.00    +0.172 A 
ATOM     28  C   UNL     1      -5.209  12.788  67.706  0.00  0.00    +0.172 A 
ATOM     29  C   UNL     1      -5.917  13.159  68.845  0.00  0.00    +0.040 A 
ATOM     30  C   UNL     1      -7.287  12.930  68.923  0.00  0.00    -0.001 A 
BRANCH  28  31
ATOM     31  O   UNL     1      -4.173  13.581  67.200  0.00  0.00    -0.468 OA
ATOM     32  C   UNL     1      -3.376  14.359  68.091  0.00  0.00    +0.253 C 
ENDBRANCH  28  31
BRANCH  27  33
ATOM     33  O   UNL     1      -5.224  11.443  65.740  0.00  0.00    -0.468 OA
ATOM     34  C   UNL     1      -4.866  10.081  65.624  0.00  0.00    +0.253 C 
ENDBRANCH  27  33
ENDBRANCH  24  25
ENDBRANCH  10  24
ENDBRANCH   8   9
ENDBRANCH   7   8
ENDBRANCH   5   7
ENDBRANCH   4   5
ENDBRANCH   3   4
ENDBRANCH   2   3
ENDBRANCH   1   2
BRANCH   1  35
ATOM     35  C   UNL     1     -10.078  10.762  63.291  0.00  0.00    +0.048 C 
BRANCH  35  36
ATOM     36  C   UNL     1      -9.638   9.917  64.455  0.00  0.00    +0.208 C 
BRANCH  36  37
ATOM     37  O   UNL     1     -10.297  10.397  65.619  0.00  0.00    -0.448 OA
BRANCH  37  38
ATOM     38  C   UNL     1     -10.297   9.552  66.721  0.00  0.00    +0.323 C 
ATOM     39  O   UNL     1     -10.961   9.923  67.717  0.00  0.00    -0.250 OA
BRANCH  38  40
ATOM     40  C   UNL     1     -10.088   8.078  66.565  0.00  0.00    +0.170 C 
BRANCH  40  41
ATOM     41  C   UNL     1      -9.746   7.560  67.938  0.00  0.00    +0.121 C 
BRANCH  41  43
ATOM     42  C   UNL     1      -8.650   5.973  69.397  0.00  0.00    +0.086 C 
ATOM     43  N   UNL     1      -8.977   6.374  67.878  0.00  0.00    +0.301 N 
ATOM     44  C   UNL     1      -9.720   5.205  67.455  0.00  0.00    +0.171 C 
ATOM     45  C   UNL     1      -7.704   6.471  67.235  0.00  0.00    +0.114 C 
ATOM     46  C   UNL     1      -7.016   7.739  67.645  0.00  0.00    +0.087 C 
ATOM     47  C   UNL     1      -7.298   8.076  69.049  0.00  0.00    -0.012 A 
ATOM     48  C   UNL     1      -6.729   9.248  69.534  0.00  0.00    +0.036 A 
ATOM     49  C   UNL     1      -6.823   9.549  70.888  0.00  0.00    +0.172 A 
ATOM     50  C   UNL     1      -7.333   8.606  71.773  0.00  0.00    +0.172 A 
ATOM     51  C   UNL     1      -8.129   7.625  71.194  0.00  0.00    +0.041 A 
ATOM     52  C   UNL     1      -8.291   7.525  69.814  0.00  0.00    +0.027 A 
BRANCH  50  53
ATOM     53  O   UNL     1      -6.769   8.452  73.041  0.00  0.00    -0.468 OA
ATOM     54  C   UNL     1      -7.680   8.124  74.086  0.00  0.00    +0.253 C 
ENDBRANCH  50  53
BRANCH  49  55
ATOM     55  O   UNL     1      -6.113  10.635  71.378  0.00  0.00    -0.468 OA
ATOM     56  C   UNL     1      -4.704  10.737  71.317  0.00  0.00    +0.253 C 
ENDBRANCH  49  55
BRANCH  42  57
ATOM     57  C   UNL     1     -10.253   6.176  69.845  0.00  0.00    +0.086 C 
BRANCH  57  61
ATOM     58  C   UNL     1     -10.188   4.392  73.608  0.00  0.00    +0.172 A 
ATOM     59  C   UNL     1      -9.690   3.665  72.539  0.00  0.00    +0.172 A 
ATOM     60  C   UNL     1      -9.844   4.106  71.230  0.00  0.00    +0.036 A 
ATOM     61  C   UNL     1     -10.373   5.383  71.086  0.00  0.00    -0.013 A 
ATOM     62  C   UNL     1     -11.377   5.703  71.992  0.00  0.00    -0.001 A 
ATOM     63  C   UNL     1     -11.213   5.271  73.304  0.00  0.00    +0.040 A 
BRANCH  58  65
ATOM     64  C   UNL     1      -9.744   5.106  75.907  0.00  0.00    +0.253 C 
ATOM     65  O   UNL     1      -9.857   4.126  74.926  0.00  0.00    -0.468 OA
ENDBRANCH  58  65
BRANCH  59  66
ATOM     66  O   UNL     1      -8.759   2.677  72.851  0.00  0.00    -0.468 OA
ATOM     67  C   UNL     1      -7.513   2.592  72.184  0.00  0.00    +0.253 C 
ENDBRANCH  59  66
ENDBRANCH  57  61
ENDBRANCH  42  57
ENDBRANCH  41  43
ENDBRANCH  40  41
ENDBRANCH  38  40
ENDBRANCH  37  38
ENDBRANCH  36  37
ENDBRANCH  35  36
ENDBRANCH   1  35
TORSDOF 26
ENDMDL
MODEL 6
REMARK VINA RESULT:      -6.3      2.862      9.540
REMARK  Name = 
REMARK  26 active torsions:
REMARK  status: ('A' for Active; 'I' for Inactive)
REMARK    1  A    between atoms: O_2  and  C_3
REMARK    2  A    between atoms: C_6  and  C_7
REMARK    3  A    between atoms: C_7  and  C_8
REMARK    4  A    between atoms: C_11  and  O_12
REMARK    5  A    between atoms: C_14  and  O_15
REMARK    6  A    between atoms: N_21  and  C_23
REMARK    7  A    between atoms: C_23  and  C_24
REMARK    8  A    between atoms: C_24  and  C_25
REMARK    9  A    between atoms: C_25  and  O_27
REMARK   10  A    between atoms: O_27  and  C_28
REMARK   11  A    between atoms: C_28  and  C_29
REMARK   12  A    between atoms: C_29  and  C_30
REMARK   13  A    between atoms: C_30  and  C_31
REMARK   14  A    between atoms: C_31  and  C_32
REMARK   15  A    between atoms: C_32  and  O_33
REMARK   16  A    between atoms: O_33  and  C_34
REMARK   17  A    between atoms: C_34  and  C_36
REMARK   18  A    between atoms: C_36  and  C_37
REMARK   19  A    between atoms: C_37  and  N_38
REMARK   20  A    between atoms: C_44  and  O_45
REMARK   21  A    between atoms: C_47  and  O_48
REMARK   22  A    between atoms: C_52  and  C_53
REMARK   23  A    between atoms: C_53  and  C_54
REMARK   24  A    between atoms: C_57  and  O_58
REMARK   25  A    between atoms: C_60  and  O_61
REMARK   26  A    between atoms: C_65  and  O_66
REMARK                            x       y       z     vdW  Elec       q    Type
REMARK                         _______ _______ _______ _____ _____    ______ ____
ROOT
ATOM      1  C   UNL     1     -13.252  12.487  71.827  0.00  0.00    +0.008 C 
ENDROOT
BRANCH   1   2
ATOM      2  C   UNL     1     -12.345  12.215  70.661  0.00  0.00    +0.048 C 
BRANCH   2   3
ATOM      3  C   UNL     1     -12.448  10.763  70.281  0.00  0.00    +0.208 C 
BRANCH   3   4
ATOM      4  O   UNL     1     -11.842   9.972  71.300  0.00  0.00    -0.448 OA
BRANCH   4   5
ATOM      5  C   UNL     1     -12.519   8.944  71.940  0.00  0.00    +0.323 C 
ATOM      6  O   UNL     1     -13.710   8.738  71.568  0.00  0.00    -0.250 OA
BRANCH   5   7
ATOM      7  C   UNL     1     -11.807   7.761  72.513  0.00  0.00    +0.170 C 
BRANCH   7   8
ATOM      8  C   UNL     1     -10.794   7.327  71.513  0.00  0.00    +0.121 C 
BRANCH   8   9
ATOM      9  N   UNL     1      -9.582   7.078  72.223  0.00  0.00    +0.301 N 
ATOM     10  C   UNL     1      -8.502   6.698  71.101  0.00  0.00    +0.086 C 
ATOM     11  C   UNL     1      -9.549   5.675  70.346  0.00  0.00    +0.027 A 
ATOM     12  C   UNL     1      -9.539   4.505  71.100  0.00  0.00    -0.012 A 
ATOM     13  C   UNL     1      -9.583   3.249  70.506  0.00  0.00    +0.036 A 
ATOM     14  C   UNL     1      -9.374   3.153  69.135  0.00  0.00    +0.172 A 
ATOM     15  C   UNL     1      -9.364   4.326  68.390  0.00  0.00    +0.172 A 
ATOM     16  C   UNL     1      -9.097   4.679  72.522  0.00  0.00    +0.087 C 
ATOM     17  C   UNL     1      -9.298   5.576  68.991  0.00  0.00    +0.041 A 
ATOM     18  C   UNL     1      -9.614   5.953  73.111  0.00  0.00    +0.114 C 
ATOM     19  C   UNL     1      -9.006   8.253  72.829  0.00  0.00    +0.171 C 
BRANCH  14  20
ATOM     20  O   UNL     1      -8.833   2.026  68.553  0.00  0.00    -0.468 OA
ATOM     21  C   UNL     1      -7.446   1.837  68.416  0.00  0.00    +0.253 C 
ENDBRANCH  14  20
BRANCH  15  22
ATOM     22  O   UNL     1      -9.681   4.245  67.033  0.00  0.00    -0.468 OA
ATOM     23  C   UNL     1     -10.536   5.191  66.398  0.00  0.00    +0.253 C 
ENDBRANCH  15  22
BRANCH  10  24
ATOM     24  C   UNL     1      -8.962   7.983  70.127  0.00  0.00    +0.086 C 
BRANCH  24  25
ATOM     25  C   UNL     1      -7.676   8.631  69.762  0.00  0.00    -0.013 A 
ATOM     26  C   UNL     1      -7.390   9.960  70.060  0.00  0.00    +0.036 A 
ATOM     27  C   UNL     1      -6.086  10.370  70.328  0.00  0.00    +0.172 A 
ATOM     28  C   UNL     1      -5.096   9.417  70.541  0.00  0.00    +0.172 A 
ATOM     29  C   UNL     1      -5.293   8.230  69.843  0.00  0.00    +0.040 A 
ATOM     30  C   UNL     1      -6.558   7.904  69.362  0.00  0.00    -0.001 A 
BRANCH  28  31
ATOM     31  O   UNL     1      -4.233   9.482  71.641  0.00  0.00    -0.468 OA
ATOM     32  C   UNL     1      -4.606   8.867  72.873  0.00  0.00    +0.253 C 
ENDBRANCH  28  31
BRANCH  27  33
ATOM     33  O   UNL     1      -5.977  11.577  71.026  0.00  0.00    -0.468 OA
ATOM     34  C   UNL     1      -4.867  12.397  70.724  0.00  0.00    +0.253 C 
ENDBRANCH  27  33
ENDBRANCH  24  25
ENDBRANCH  10  24
ENDBRANCH   8   9
ENDBRANCH   7   8
ENDBRANCH   5   7
ENDBRANCH   4   5
ENDBRANCH   3   4
ENDBRANCH   2   3
ENDBRANCH   1   2
BRANCH   1  35
ATOM     35  C   UNL     1     -13.145  13.935  72.260  0.00  0.00    +0.048 C 
BRANCH  35  36
ATOM     36  C   UNL     1     -13.450  14.810  71.076  0.00  0.00    +0.208 C 
BRANCH  36  37
ATOM     37  O   UNL     1     -12.477  15.845  71.033  0.00  0.00    -0.448 OA
BRANCH  37  38
ATOM     38  C   UNL     1     -11.652  15.871  69.917  0.00  0.00    +0.323 C 
ATOM     39  O   UNL     1     -10.417  15.861  70.126  0.00  0.00    -0.250 OA
BRANCH  38  40
ATOM     40  C   UNL     1     -12.113  15.325  68.602  0.00  0.00    +0.170 C 
BRANCH  40  41
ATOM     41  C   UNL     1     -10.923  14.623  68.003  0.00  0.00    +0.121 C 
BRANCH  41  43
ATOM     42  C   UNL     1      -9.898  13.529  66.105  0.00  0.00    +0.086 C 
ATOM     43  N   UNL     1     -10.960  14.630  66.589  0.00  0.00    +0.301 N 
ATOM     44  C   UNL     1     -12.177  14.085  66.023  0.00  0.00    +0.171 C 
ATOM     45  C   UNL     1     -10.558  15.843  65.948  0.00  0.00    +0.114 C 
ATOM     46  C   UNL     1      -9.345  16.407  66.625  0.00  0.00    +0.087 C 
ATOM     47  C   UNL     1      -8.444  15.341  67.090  0.00  0.00    -0.012 A 
ATOM     48  C   UNL     1      -7.293  15.746  67.756  0.00  0.00    +0.036 A 
ATOM     49  C   UNL     1      -6.322  14.807  68.085  0.00  0.00    +0.172 A 
ATOM     50  C   UNL     1      -6.425  13.507  67.605  0.00  0.00    +0.172 A 
ATOM     51  C   UNL     1      -7.704  13.121  67.222  0.00  0.00    +0.041 A 
ATOM     52  C   UNL     1      -8.771  14.016  67.201  0.00  0.00    +0.027 A 
BRANCH  50  53
ATOM     53  O   UNL     1      -5.285  12.817  67.188  0.00  0.00    -0.468 OA
ATOM     54  C   UNL     1      -5.488  11.455  66.824  0.00  0.00    +0.253 C 
ENDBRANCH  50  53
BRANCH  49  55
ATOM     55  O   UNL     1      -5.115  15.253  68.602  0.00  0.00    -0.468 OA
ATOM     56  C   UNL     1      -4.585  16.540  68.347  0.00  0.00    +0.253 C 
ENDBRANCH  49  55
BRANCH  42  57
ATOM     57  C   UNL     1     -10.515  12.396  67.175  0.00  0.00    +0.086 C 
BRANCH  57  61
ATOM     58  C   UNL     1      -9.241   8.853  65.394  0.00  0.00    +0.172 A 
ATOM     59  C   UNL     1      -9.830   9.810  64.582  0.00  0.00    +0.172 A 
ATOM     60  C   UNL     1     -10.448  10.932  65.120  0.00  0.00    +0.036 A 
ATOM     61  C   UNL     1     -10.289  11.106  66.490  0.00  0.00    -0.013 A 
ATOM     62  C   UNL     1     -10.331   9.934  67.234  0.00  0.00    -0.001 A 
ATOM     63  C   UNL     1      -9.701   8.816  66.699  0.00  0.00    +0.040 A 
BRANCH  58  65
ATOM     64  C   UNL     1      -7.418   7.242  65.667  0.00  0.00    +0.253 C 
ATOM     65  O   UNL     1      -8.414   7.854  64.911  0.00  0.00    -0.468 OA
ENDBRANCH  58  65
BRANCH  59  66
ATOM     66  O   UNL     1      -9.482   9.766  63.235  0.00  0.00    -0.468 OA
ATOM     67  C   UNL     1      -8.448  10.576  62.707  0.00  0.00    +0.253 C 
ENDBRANCH  59  66
ENDBRANCH  57  61
ENDBRANCH  42  57
ENDBRANCH  41  43
ENDBRANCH  40  41
ENDBRANCH  38  40
ENDBRANCH  37  38
ENDBRANCH  36  37
ENDBRANCH  35  36
ENDBRANCH   1  35
TORSDOF 26
ENDMDL
MODEL 7
REMARK VINA RESULT:      -6.3      2.252      4.518
REMARK  Name = 
REMARK  26 active torsions:
REMARK  status: ('A' for Active; 'I' for Inactive)
REMARK    1  A    between atoms: O_2  and  C_3
REMARK    2  A    between atoms: C_6  and  C_7
REMARK    3  A    between atoms: C_7  and  C_8
REMARK    4  A    between atoms: C_11  and  O_12
REMARK    5  A    between atoms: C_14  and  O_15
REMARK    6  A    between atoms: N_21  and  C_23
REMARK    7  A    between atoms: C_23  and  C_24
REMARK    8  A    between atoms: C_24  and  C_25
REMARK    9  A    between atoms: C_25  and  O_27
REMARK   10  A    between atoms: O_27  and  C_28
REMARK   11  A    between atoms: C_28  and  C_29
REMARK   12  A    between atoms: C_29  and  C_30
REMARK   13  A    between atoms: C_30  and  C_31
REMARK   14  A    between atoms: C_31  and  C_32
REMARK   15  A    between atoms: C_32  and  O_33
REMARK   16  A    between atoms: O_33  and  C_34
REMARK   17  A    between atoms: C_34  and  C_36
REMARK   18  A    between atoms: C_36  and  C_37
REMARK   19  A    between atoms: C_37  and  N_38
REMARK   20  A    between atoms: C_44  and  O_45
REMARK   21  A    between atoms: C_47  and  O_48
REMARK   22  A    between atoms: C_52  and  C_53
REMARK   23  A    between atoms: C_53  and  C_54
REMARK   24  A    between atoms: C_57  and  O_58
REMARK   25  A    between atoms: C_60  and  O_61
REMARK   26  A    between atoms: C_65  and  O_66
REMARK                            x       y       z     vdW  Elec       q    Type
REMARK                         _______ _______ _______ _____ _____    ______ ____
ROOT
ATOM      1  C   UNL     1     -11.195  12.374  65.037  0.00  0.00    +0.008 C 
ENDROOT
BRANCH   1   2
ATOM      2  C   UNL     1     -11.940  12.927  66.218  0.00  0.00    +0.048 C 
BRANCH   2   3
ATOM      3  C   UNL     1     -12.053  14.421  66.078  0.00  0.00    +0.208 C 
BRANCH   3   4
ATOM      4  O   UNL     1     -10.971  14.896  65.282  0.00  0.00    -0.448 OA
BRANCH   4   5
ATOM      5  C   UNL     1     -10.838  16.233  64.936  0.00  0.00    +0.323 C 
ATOM      6  O   UNL     1     -11.517  16.626  63.944  0.00  0.00    -0.250 OA
BRANCH   5   7
ATOM      7  C   UNL     1     -10.494  17.283  65.942  0.00  0.00    +0.170 C 
BRANCH   7   8
ATOM      8  C   UNL     1      -9.172  16.923  66.524  0.00  0.00    +0.121 C 
BRANCH   8   9
ATOM      9  N   UNL     1      -9.230  17.223  67.917  0.00  0.00    +0.301 N 
ATOM     10  C   UNL     1      -7.885  16.614  68.540  0.00  0.00    +0.086 C 
ATOM     11  C   UNL     1      -8.071  15.195  67.725  0.00  0.00    +0.027 A 
ATOM     12  C   UNL     1      -9.021  14.472  68.442  0.00  0.00    -0.012 A 
ATOM     13  C   UNL     1      -8.913  13.099  68.625  0.00  0.00    +0.036 A 
ATOM     14  C   UNL     1      -7.710  12.478  68.310  0.00  0.00    +0.172 A 
ATOM     15  C   UNL     1      -6.758  13.210  67.611  0.00  0.00    +0.172 A 
ATOM     16  C   UNL     1      -9.922  15.304  69.303  0.00  0.00    +0.087 C 
ATOM     17  C   UNL     1      -6.862  14.585  67.452  0.00  0.00    +0.041 A 
ATOM     18  C   UNL     1     -10.297  16.589  68.635  0.00  0.00    +0.114 C 
ATOM     19  C   UNL     1      -9.109  18.628  68.220  0.00  0.00    +0.171 C 
BRANCH  14  20
ATOM     20  O   UNL     1      -7.287  11.331  68.949  0.00  0.00    -0.468 OA
ATOM     21  C   UNL     1      -6.348  11.352  69.995  0.00  0.00    +0.253 C 
ENDBRANCH  14  20
BRANCH  15  22
ATOM     22  O   UNL     1      -5.821  12.510  66.848  0.00  0.00    -0.468 OA
ATOM     23  C   UNL     1      -4.442  12.464  67.200  0.00  0.00    +0.253 C 
ENDBRANCH  15  22
BRANCH  10  24
ATOM     24  C   UNL     1      -6.943  17.263  67.314  0.00  0.00    +0.086 C 
BRANCH  24  25
ATOM     25  C   UNL     1      -5.637  17.528  67.970  0.00  0.00    -0.013 A 
ATOM     26  C   UNL     1      -5.525  18.204  69.181  0.00  0.00    +0.036 A 
ATOM     27  C   UNL     1      -4.502  17.903  70.078  0.00  0.00    +0.172 A 
ATOM     28  C   UNL     1      -3.730  16.763  69.883  0.00  0.00    +0.172 A 
ATOM     29  C   UNL     1      -3.575  16.406  68.547  0.00  0.00    +0.040 A 
ATOM     30  C   UNL     1      -4.463  16.884  67.588  0.00  0.00    -0.001 A 
BRANCH  28  31
ATOM     31  O   UNL     1      -3.488  15.849  70.916  0.00  0.00    -0.468 OA
ATOM     32  C   UNL     1      -3.654  14.452  70.680  0.00  0.00    +0.253 C 
ENDBRANCH  28  31
BRANCH  27  33
ATOM     33  O   UNL     1      -4.734  18.303  71.398  0.00  0.00    -0.468 OA
ATOM     34  C   UNL     1      -5.474  19.492  71.590  0.00  0.00    +0.253 C 
ENDBRANCH  27  33
ENDBRANCH  24  25
ENDBRANCH  10  24
ENDBRANCH   8   9
ENDBRANCH   7   8
ENDBRANCH   5   7
ENDBRANCH   4   5
ENDBRANCH   3   4
ENDBRANCH   2   3
ENDBRANCH   1   2
BRANCH   1  35
ATOM     35  C   UNL     1      -9.937  11.660  65.486  0.00  0.00    +0.048 C 
BRANCH  35  36
ATOM     36  C   UNL     1      -9.756  10.432  64.634  0.00  0.00    +0.208 C 
BRANCH  36  37
ATOM     37  O   UNL     1      -9.754   9.300  65.492  0.00  0.00    -0.448 OA
BRANCH  37  38
ATOM     38  C   UNL     1      -8.539   8.648  65.653  0.00  0.00    +0.323 C 
ATOM     39  O   UNL     1      -7.519   9.370  65.751  0.00  0.00    -0.250 OA
BRANCH  38  40
ATOM     40  C   UNL     1      -8.464   7.295  66.286  0.00  0.00    +0.170 C 
BRANCH  40  41
ATOM     41  C   UNL     1      -8.549   7.525  67.772  0.00  0.00    +0.121 C 
BRANCH  41  43
ATOM     42  C   UNL     1      -9.923   7.498  69.762  0.00  0.00    +0.086 C 
ATOM     43  N   UNL     1      -9.598   6.782  68.363  0.00  0.00    +0.301 N 
ATOM     44  C   UNL     1     -10.875   6.921  67.696  0.00  0.00    +0.171 C 
ATOM     45  C   UNL     1      -9.304   5.423  68.699  0.00  0.00    +0.114 C 
ATOM     46  C   UNL     1      -7.938   5.327  69.309  0.00  0.00    +0.087 C 
ATOM     47  C   UNL     1      -7.635   6.502  70.140  0.00  0.00    -0.012 A 
ATOM     48  C   UNL     1      -6.381   6.533  70.740  0.00  0.00    +0.036 A 
ATOM     49  C   UNL     1      -6.084   7.531  71.661  0.00  0.00    +0.172 A 
ATOM     50  C   UNL     1      -7.085   8.388  72.101  0.00  0.00    +0.172 A 
ATOM     51  C   UNL     1      -8.188   8.485  71.260  0.00  0.00    +0.041 A 
ATOM     52  C   UNL     1      -8.329   7.682  70.131  0.00  0.00    +0.027 A 
BRANCH  50  53
ATOM     53  O   UNL     1      -7.133   8.790  73.437  0.00  0.00    -0.468 OA
ATOM     54  C   UNL     1      -7.942   7.990  74.294  0.00  0.00    +0.253 C 
ENDBRANCH  50  53
BRANCH  49  55
ATOM     55  O   UNL     1      -4.893   7.451  72.366  0.00  0.00    -0.468 OA
ATOM     56  C   UNL     1      -4.113   8.580  72.712  0.00  0.00    +0.253 C 
ENDBRANCH  49  55
BRANCH  42  57
ATOM     57  C   UNL     1      -9.975   9.006  69.032  0.00  0.00    +0.086 C 
BRANCH  57  61
ATOM     58  C   UNL     1     -12.772  11.161  71.240  0.00  0.00    +0.172 A 
ATOM     59  C   UNL     1     -12.840   9.777  71.284  0.00  0.00    +0.172 A 
ATOM     60  C   UNL     1     -12.071   8.988  70.437  0.00  0.00    +0.036 A 
ATOM     61  C   UNL     1     -11.127   9.669  69.677  0.00  0.00    -0.013 A 
ATOM     62  C   UNL     1     -11.546  10.903  69.197  0.00  0.00    -0.001 A 
ATOM     63  C   UNL     1     -12.304  11.696  70.052  0.00  0.00    +0.040 A 
BRANCH  58  65
ATOM     64  C   UNL     1     -13.464  13.356  72.072  0.00  0.00    +0.253 C 
ATOM     65  O   UNL     1     -13.326  11.978  72.210  0.00  0.00    -0.468 OA
ENDBRANCH  58  65
BRANCH  59  66
ATOM     66  O   UNL     1     -13.441   9.230  72.415  0.00  0.00    -0.468 OA
ATOM     67  C   UNL     1     -14.535   8.337  72.317  0.00  0.00    +0.253 C 
ENDBRANCH  59  66
ENDBRANCH  57  61
ENDBRANCH  42  57
ENDBRANCH  41  43
ENDBRANCH  40  41
ENDBRANCH  38  40
ENDBRANCH  37  38
ENDBRANCH  36  37
ENDBRANCH  35  36
ENDBRANCH   1  35
TORSDOF 26
ENDMDL
MODEL 8
REMARK VINA RESULT:      -6.3      2.304      7.214
REMARK  Name = 
REMARK  26 active torsions:
REMARK  status: ('A' for Active; 'I' for Inactive)
REMARK    1  A    between atoms: O_2  and  C_3
REMARK    2  A    between atoms: C_6  and  C_7
REMARK    3  A    between atoms: C_7  and  C_8
REMARK    4  A    between atoms: C_11  and  O_12
REMARK    5  A    between atoms: C_14  and  O_15
REMARK    6  A    between atoms: N_21  and  C_23
REMARK    7  A    between atoms: C_23  and  C_24
REMARK    8  A    between atoms: C_24  and  C_25
REMARK    9  A    between atoms: C_25  and  O_27
REMARK   10  A    between atoms: O_27  and  C_28
REMARK   11  A    between atoms: C_28  and  C_29
REMARK   12  A    between atoms: C_29  and  C_30
REMARK   13  A    between atoms: C_30  and  C_31
REMARK   14  A    between atoms: C_31  and  C_32
REMARK   15  A    between atoms: C_32  and  O_33
REMARK   16  A    between atoms: O_33  and  C_34
REMARK   17  A    between atoms: C_34  and  C_36
REMARK   18  A    between atoms: C_36  and  C_37
REMARK   19  A    between atoms: C_37  and  N_38
REMARK   20  A    between atoms: C_44  and  O_45
REMARK   21  A    between atoms: C_47  and  O_48
REMARK   22  A    between atoms: C_52  and  C_53
REMARK   23  A    between atoms: C_53  and  C_54
REMARK   24  A    between atoms: C_57  and  O_58
REMARK   25  A    between atoms: C_60  and  O_61
REMARK   26  A    between atoms: C_65  and  O_66
REMARK                            x       y       z     vdW  Elec       q    Type
REMARK                         _______ _______ _______ _____ _____    ______ ____
ROOT
ATOM      1  C   UNL     1     -12.977  12.718  71.729  0.00  0.00    +0.008 C 
ENDROOT
BRANCH   1   2
ATOM      2  C   UNL     1     -14.032  13.716  72.116  0.00  0.00    +0.048 C 
BRANCH   2   3
ATOM      3  C   UNL     1     -13.368  14.967  72.623  0.00  0.00    +0.208 C 
BRANCH   3   4
ATOM      4  O   UNL     1     -13.129  15.844  71.525  0.00  0.00    -0.448 OA
BRANCH   4   5
ATOM      5  C   UNL     1     -11.884  15.955  70.924  0.00  0.00    +0.323 C 
ATOM      6  O   UNL     1     -10.926  15.368  71.503  0.00  0.00    -0.250 OA
BRANCH   5   7
ATOM      7  C   UNL     1     -11.729  16.145  69.449  0.00  0.00    +0.170 C 
BRANCH   7   8
ATOM      8  C   UNL     1     -10.306  16.501  69.196  0.00  0.00    +0.121 C 
BRANCH   8   9
ATOM      9  N   UNL     1      -9.951  15.944  67.932  0.00  0.00    +0.301 N 
ATOM     10  C   UNL     1      -8.384  16.232  67.765  0.00  0.00    +0.086 C 
ATOM     11  C   UNL     1      -8.551  17.794  68.255  0.00  0.00    +0.027 A 
ATOM     12  C   UNL     1      -9.044  18.483  67.150  0.00  0.00    -0.012 A 
ATOM     13  C   UNL     1      -8.615  19.767  66.833  0.00  0.00    +0.036 A 
ATOM     14  C   UNL     1      -7.491  20.270  67.477  0.00  0.00    +0.172 A 
ATOM     15  C   UNL     1      -6.990  19.568  68.567  0.00  0.00    +0.172 A 
ATOM     16  C   UNL     1      -9.749  17.627  66.141  0.00  0.00    +0.087 C 
ATOM     17  C   UNL     1      -7.408  18.278  68.863  0.00  0.00    +0.041 A 
ATOM     18  C   UNL     1     -10.570  16.561  66.797  0.00  0.00    +0.114 C 
ATOM     19  C   UNL     1     -10.014  14.503  67.889  0.00  0.00    +0.171 C 
BRANCH  14  20
ATOM     20  O   UNL     1      -6.662  21.201  66.885  0.00  0.00    -0.468 OA
ATOM     21  C   UNL     1      -5.913  20.919  65.729  0.00  0.00    +0.253 C 
ENDBRANCH  14  20
BRANCH  15  22
ATOM     22  O   UNL     1      -6.246  20.272  69.515  0.00  0.00    -0.468 OA
ATOM     23  C   UNL     1      -6.417  20.068  70.915  0.00  0.00    +0.253 C 
ENDBRANCH  15  22
BRANCH  10  24
ATOM     24  C   UNL     1      -8.053  15.716  69.326  0.00  0.00    +0.086 C 
BRANCH  24  25
ATOM     25  C   UNL     1      -6.862  14.842  69.168  0.00  0.00    -0.013 A 
ATOM     26  C   UNL     1      -6.361  14.056  70.201  0.00  0.00    +0.036 A 
ATOM     27  C   UNL     1      -5.742  12.836  69.938  0.00  0.00    +0.172 A 
ATOM     28  C   UNL     1      -5.834  12.278  68.667  0.00  0.00    +0.172 A 
ATOM     29  C   UNL     1      -5.928  13.216  67.643  0.00  0.00    +0.040 A 
ATOM     30  C   UNL     1      -6.332  14.518  67.922  0.00  0.00    -0.001 A 
BRANCH  28  31
ATOM     31  O   UNL     1      -6.208  10.944  68.471  0.00  0.00    -0.468 OA
ATOM     32  C   UNL     1      -6.210  10.394  67.154  0.00  0.00    +0.253 C 
ENDBRANCH  28  31
BRANCH  27  33
ATOM     33  O   UNL     1      -5.682  11.955  71.022  0.00  0.00    -0.468 OA
ATOM     34  C   UNL     1      -4.420  11.761  71.625  0.00  0.00    +0.253 C 
ENDBRANCH  27  33
ENDBRANCH  24  25
ENDBRANCH  10  24
ENDBRANCH   8   9
ENDBRANCH   7   8
ENDBRANCH   5   7
ENDBRANCH   4   5
ENDBRANCH   3   4
ENDBRANCH   2   3
ENDBRANCH   1   2
BRANCH   1  35
ATOM     35  C   UNL     1     -13.435  11.309  72.043  0.00  0.00    +0.048 C 
BRANCH  35  36
ATOM     36  C   UNL     1     -12.737  10.361  71.106  0.00  0.00    +0.208 C 
BRANCH  36  37
ATOM     37  O   UNL     1     -13.257   9.059  71.332  0.00  0.00    -0.448 OA
BRANCH  37  38
ATOM     38  C   UNL     1     -12.330   8.027  71.402  0.00  0.00    +0.323 C 
ATOM     39  O   UNL     1     -12.691   6.912  70.959  0.00  0.00    -0.250 OA
BRANCH  38  40
ATOM     40  C   UNL     1     -10.860   8.307  71.394  0.00  0.00    +0.170 C 
BRANCH  40  41
ATOM     41  C   UNL     1     -10.339   7.758  70.092  0.00  0.00    +0.121 C 
BRANCH  41  43
ATOM     42  C   UNL     1      -9.001   8.184  68.123  0.00  0.00    +0.086 C 
ATOM     43  N   UNL     1      -9.119   8.366  69.713  0.00  0.00    +0.301 N 
ATOM     44  C   UNL     1      -9.118   9.810  69.811  0.00  0.00    +0.171 C 
ATOM     45  C   UNL     1      -7.926   7.784  70.244  0.00  0.00    +0.114 C 
ATOM     46  C   UNL     1      -8.015   6.288  70.194  0.00  0.00    +0.087 C 
ATOM     47  C   UNL     1      -8.734   5.831  68.996  0.00  0.00    -0.012 A 
ATOM     48  C   UNL     1      -8.899   4.457  68.855  0.00  0.00    +0.036 A 
ATOM     49  C   UNL     1      -9.428   3.945  67.676  0.00  0.00    +0.172 A 
ATOM     50  C   UNL     1      -9.632   4.784  66.587  0.00  0.00    +0.172 A 
ATOM     51  C   UNL     1      -9.729   6.136  66.895  0.00  0.00    +0.041 A 
ATOM     52  C   UNL     1      -9.505   6.618  68.183  0.00  0.00    +0.027 A 
BRANCH  50  53
ATOM     53  O   UNL     1      -9.368   4.335  65.291  0.00  0.00    -0.468 OA
ATOM     54  C   UNL     1     -10.506   3.939  64.532  0.00  0.00    +0.253 C 
ENDBRANCH  50  53
BRANCH  49  55
ATOM     55  O   UNL     1      -9.433   2.571  67.492  0.00  0.00    -0.468 OA
ATOM     56  C   UNL     1      -9.443   1.641  68.558  0.00  0.00    +0.253 C 
ENDBRANCH  49  55
BRANCH  42  57
ATOM     57  C   UNL     1     -10.571   8.728  67.897  0.00  0.00    +0.086 C 
BRANCH  57  61
ATOM     58  C   UNL     1     -10.854  11.195  64.554  0.00  0.00    +0.172 A 
ATOM     59  C   UNL     1      -9.861  10.228  64.562  0.00  0.00    +0.172 A 
ATOM     60  C   UNL     1      -9.577   9.493  65.707  0.00  0.00    +0.036 A 
ATOM     61  C   UNL     1     -10.455   9.675  66.769  0.00  0.00    -0.013 A 
ATOM     62  C   UNL     1     -10.899  10.980  66.940  0.00  0.00    -0.001 A 
ATOM     63  C   UNL     1     -11.193  11.709  65.793  0.00  0.00    +0.040 A 
BRANCH  58  65
ATOM     64  C   UNL     1     -12.022  12.988  63.366  0.00  0.00    +0.253 C 
ATOM     65  O   UNL     1     -11.333  11.779  63.394  0.00  0.00    -0.468 OA
ENDBRANCH  58  65
BRANCH  59  66
ATOM     66  O   UNL     1      -9.408   9.805  63.315  0.00  0.00    -0.468 OA
ATOM     67  C   UNL     1      -8.377  10.490  62.627  0.00  0.00    +0.253 C 
ENDBRANCH  59  66
ENDBRANCH  57  61
ENDBRANCH  42  57
ENDBRANCH  41  43
ENDBRANCH  40  41
ENDBRANCH  38  40
ENDBRANCH  37  38
ENDBRANCH  36  37
ENDBRANCH  35  36
ENDBRANCH   1  35
TORSDOF 26
ENDMDL
MODEL 9
REMARK VINA RESULT:      -6.3      3.564      6.648
REMARK  Name = 
REMARK  26 active torsions:
REMARK  status: ('A' for Active; 'I' for Inactive)
REMARK    1  A    between atoms: O_2  and  C_3
REMARK    2  A    between atoms: C_6  and  C_7
REMARK    3  A    between atoms: C_7  and  C_8
REMARK    4  A    between atoms: C_11  and  O_12
REMARK    5  A    between atoms: C_14  and  O_15
REMARK    6  A    between atoms: N_21  and  C_23
REMARK    7  A    between atoms: C_23  and  C_24
REMARK    8  A    between atoms: C_24  and  C_25
REMARK    9  A    between atoms: C_25  and  O_27
REMARK   10  A    between atoms: O_27  and  C_28
REMARK   11  A    between atoms: C_28  and  C_29
REMARK   12  A    between atoms: C_29  and  C_30
REMARK   13  A    between atoms: C_30  and  C_31
REMARK   14  A    between atoms: C_31  and  C_32
REMARK   15  A    between atoms: C_32  and  O_33
REMARK   16  A    between atoms: O_33  and  C_34
REMARK   17  A    between atoms: C_34  and  C_36
REMARK   18  A    between atoms: C_36  and  C_37
REMARK   19  A    between atoms: C_37  and  N_38
REMARK   20  A    between atoms: C_44  and  O_45
REMARK   21  A    between atoms: C_47  and  O_48
REMARK   22  A    between atoms: C_52  and  C_53
REMARK   23  A    between atoms: C_53  and  C_54
REMARK   24  A    between atoms: C_57  and  O_58
REMARK   25  A    between atoms: C_60  and  O_61
REMARK   26  A    between atoms: C_65  and  O_66
REMARK                            x       y       z     vdW  Elec       q    Type
REMARK                         _______ _______ _______ _____ _____    ______ ____
ROOT
ATOM      1  C   UNL     1      -9.266   9.882  62.773  0.00  0.00    +0.008 C 
ENDROOT
BRANCH   1   2
ATOM      2  C   UNL     1      -9.488  11.334  63.091  0.00  0.00    +0.048 C 
BRANCH   2   3
ATOM      3  C   UNL     1     -10.773  11.483  63.858  0.00  0.00    +0.208 C 
BRANCH   3   4
ATOM      4  O   UNL     1     -11.309  12.782  63.619  0.00  0.00    -0.448 OA
BRANCH   4   5
ATOM      5  C   UNL     1     -12.341  13.309  64.382  0.00  0.00    +0.323 C 
ATOM      6  O   UNL     1     -13.218  12.491  64.783  0.00  0.00    -0.250 OA
BRANCH   5   7
ATOM      7  C   UNL     1     -12.159  14.528  65.227  0.00  0.00    +0.170 C 
BRANCH   7   8
ATOM      8  C   UNL     1     -11.839  14.067  66.606  0.00  0.00    +0.121 C 
BRANCH   8   9
ATOM      9  N   UNL     1     -10.650  14.743  67.010  0.00  0.00    +0.301 N 
ATOM     10  C   UNL     1     -10.144  13.969  68.319  0.00  0.00    +0.086 C 
ATOM     11  C   UNL     1     -11.656  13.946  68.971  0.00  0.00    +0.027 A 
ATOM     12  C   UNL     1     -11.855  15.218  69.502  0.00  0.00    -0.012 A 
ATOM     13  C   UNL     1     -12.513  15.415  70.710  0.00  0.00    +0.036 A 
ATOM     14  C   UNL     1     -12.750  14.315  71.526  0.00  0.00    +0.172 A 
ATOM     15  C   UNL     1     -12.531  13.048  70.997  0.00  0.00    +0.172 A 
ATOM     16  C   UNL     1     -10.996  16.290  68.899  0.00  0.00    +0.087 C 
ATOM     17  C   UNL     1     -11.852  12.859  69.802  0.00  0.00    +0.041 A 
ATOM     18  C   UNL     1     -10.830  16.103  67.424  0.00  0.00    +0.114 C 
ATOM     19  C   UNL     1      -9.543  14.578  66.099  0.00  0.00    +0.171 C 
BRANCH  14  20
ATOM     20  O   UNL     1     -12.839  14.425  72.897  0.00  0.00    -0.468 OA
ATOM     21  C   UNL     1     -12.457  15.588  73.588  0.00  0.00    +0.253 C 
ENDBRANCH  14  20
BRANCH  15  22
ATOM     22  O   UNL     1     -13.226  11.974  71.557  0.00  0.00    -0.468 OA
ATOM     23  C   UNL     1     -12.795  10.626  71.393  0.00  0.00    +0.253 C 
ENDBRANCH  15  22
BRANCH  10  24
ATOM     24  C   UNL     1     -10.367  12.469  67.602  0.00  0.00    +0.086 C 
BRANCH  24  25
ATOM     25  C   UNL     1      -9.066  11.780  67.805  0.00  0.00    -0.013 A 
ATOM     26  C   UNL     1      -7.956  12.412  68.357  0.00  0.00    +0.036 A 
ATOM     27  C   UNL     1      -7.034  11.702  69.122  0.00  0.00    +0.172 A 
ATOM     28  C   UNL     1      -7.339  10.413  69.544  0.00  0.00    +0.172 A 
ATOM     29  C   UNL     1      -8.165   9.711  68.672  0.00  0.00    +0.040 A 
ATOM     30  C   UNL     1      -8.935  10.396  67.736  0.00  0.00    -0.001 A 
BRANCH  28  31
ATOM     31  O   UNL     1      -7.180  10.016  70.877  0.00  0.00    -0.468 OA
ATOM     32  C   UNL     1      -7.087   8.628  71.197  0.00  0.00    +0.253 C 
ENDBRANCH  28  31
BRANCH  27  33
ATOM     33  O   UNL     1      -6.237  12.483  69.965  0.00  0.00    -0.468 OA
ATOM     34  C   UNL     1      -5.320  13.365  69.351  0.00  0.00    +0.253 C 
ENDBRANCH  27  33
ENDBRANCH  24  25
ENDBRANCH  10  24
ENDBRANCH   8   9
ENDBRANCH   7   8
ENDBRANCH   5   7
ENDBRANCH   4   5
ENDBRANCH   3   4
ENDBRANCH   2   3
ENDBRANCH   1   2
BRANCH   1  35
ATOM     35  C   UNL     1      -8.543   9.730  61.451  0.00  0.00    +0.048 C 
BRANCH  35  36
ATOM     36  C   UNL     1      -9.413   8.929  60.521  0.00  0.00    +0.208 C 
BRANCH  36  37
ATOM     37  O   UNL     1      -8.775   7.681  60.289  0.00  0.00    -0.448 OA
BRANCH  37  38
ATOM     38  C   UNL     1      -9.347   6.573  60.899  0.00  0.00    +0.323 C 
ATOM     39  O   UNL     1     -10.400   6.126  60.387  0.00  0.00    -0.250 OA
BRANCH  38  40
ATOM     40  C   UNL     1      -8.513   5.600  61.673  0.00  0.00    +0.170 C 
BRANCH  40  41
ATOM     41  C   UNL     1      -8.012   6.350  62.879  0.00  0.00    +0.121 C 
BRANCH  41  43
ATOM     42  C   UNL     1      -7.082   6.326  65.112  0.00  0.00    +0.086 C 
ATOM     43  N   UNL     1      -7.234   5.527  63.728  0.00  0.00    +0.301 N 
ATOM     44  C   UNL     1      -7.915   4.335  64.188  0.00  0.00    +0.171 C 
ATOM     45  C   UNL     1      -5.896   5.260  63.303  0.00  0.00    +0.114 C 
ATOM     46  C   UNL     1      -5.268   6.509  62.760  0.00  0.00    +0.087 C 
ATOM     47  C   UNL     1      -5.713   7.700  63.498  0.00  0.00    -0.012 A 
ATOM     48  C   UNL     1      -5.212   8.923  63.067  0.00  0.00    +0.036 A 
ATOM     49  C   UNL     1      -5.463  10.071  63.810  0.00  0.00    +0.172 A 
ATOM     50  C   UNL     1      -6.066   9.969  65.058  0.00  0.00    +0.172 A 
ATOM     51  C   UNL     1      -6.783   8.798  65.271  0.00  0.00    +0.041 A 
ATOM     52  C   UNL     1      -6.784   7.754  64.350  0.00  0.00    +0.027 A 
BRANCH  50  53
ATOM     53  O   UNL     1      -5.652  10.788  66.110  0.00  0.00    -0.468 OA
ATOM     54  C   UNL     1      -4.560  10.296  66.882  0.00  0.00    +0.253 C 
ENDBRANCH  50  53
BRANCH  49  55
ATOM     55  O   UNL     1      -4.822  11.247  63.453  0.00  0.00    -0.468 OA
ATOM     56  C   UNL     1      -4.476  11.573  62.120  0.00  0.00    +0.253 C 
ENDBRANCH  49  55
BRANCH  42  57
ATOM     57  C   UNL     1      -8.727   6.644  65.163  0.00  0.00    +0.086 C 
BRANCH  57  61
ATOM     58  C   UNL     1      -9.724   6.418  69.201  0.00  0.00    +0.172 A 
ATOM     59  C   UNL     1      -8.585   5.751  68.776  0.00  0.00    +0.172 A 
ATOM     60  C   UNL     1      -8.285   5.619  67.426  0.00  0.00    +0.036 A 
ATOM     61  C   UNL     1      -9.102   6.333  66.558  0.00  0.00    -0.013 A 
ATOM     62  C   UNL     1     -10.444   6.366  66.915  0.00  0.00    -0.001 A 
ATOM     63  C   UNL     1     -10.741   6.511  68.266  0.00  0.00    +0.040 A 
BRANCH  58  65
ATOM     64  C   UNL     1     -11.154   7.277  70.991  0.00  0.00    +0.253 C 
ATOM     65  O   UNL     1      -9.942   6.782  70.518  0.00  0.00    -0.468 OA
ENDBRANCH  58  65
BRANCH  59  66
ATOM     66  O   UNL     1      -7.612   5.525  69.746  0.00  0.00    -0.468 OA
ATOM     67  C   UNL     1      -6.667   4.478  69.621  0.00  0.00    +0.253 C 
ENDBRANCH  59  66
ENDBRANCH  57  61
ENDBRANCH  42  57
ENDBRANCH  41  43
ENDBRANCH  40  41
ENDBRANCH  38  40
ENDBRANCH  37  38
ENDBRANCH  36  37
ENDBRANCH  35  36
ENDBRANCH   1  35
TORSDOF 26
ENDMDL
