MODEL 1
REMARK VINA RESULT:      -6.7      0.000      0.000
REMARK  Name = 
REMARK  10 active torsions:
REMARK  status: ('A' for Active; 'I' for Inactive)
REMARK    1  A    between atoms: O_2  and  C_3
REMARK    2  A    between atoms: C_3  and  C_4
REMARK    3  A    between atoms: C_4  and  O_5
REMARK    4  A    between atoms: O_5  and  C_6
REMARK    5  A    between atoms: C_6  and  C_8
REMARK    6  A    between atoms: C_14  and  C_15
REMARK    7  A    between atoms: C_15  and  O_17
REMARK    8  A    between atoms: O_17  and  C_18
REMARK    9  A    between atoms: C_21  and  C_22
REMARK   10  A    between atoms: C_26  and  N_27
REMARK                            x       y       z     vdW  Elec       q    Type
REMARK                         _______ _______ _______ _____ _____    ______ ____
ROOT
ATOM      1  C   UNL     1      -9.942  15.737  67.869  0.00  0.00    +0.073 C 
ATOM      2  C   UNL     1     -11.238  14.782  67.884  0.00  0.00    +0.082 C 
ATOM      3  C   UNL     1     -10.502  13.369  67.660  0.00  0.00    +0.073 C 
ATOM      4  C   UNL     1      -9.457  13.086  68.368  0.00  0.00    +0.051 C 
ATOM      5  C   UNL     1      -8.993  11.657  68.365  0.00  0.00    +0.049 C 
ATOM      6  N   UNL     1      -8.463  14.123  68.353  0.00  0.00    -0.221 NA
ATOM      7  C   UNL     1      -8.796  15.240  67.510  0.00  0.00    +0.051 C 
ATOM      8  C   UNL     1      -7.742  16.174  66.997  0.00  0.00    +0.049 C 
ENDROOT
BRANCH   2   9
ATOM      9  C   UNL     1     -11.232  14.655  69.497  0.00  0.00    -0.008 A 
ATOM     10  C   UNL     1     -12.065  13.648  69.984  0.00  0.00    +0.072 A 
ATOM     11  C   UNL     1     -12.506  13.723  71.300  0.00  0.00    +0.290 A 
ATOM     12  C   UNL     1     -12.232  14.881  72.016  0.00  0.00    +0.075 A 
ATOM     13  C   UNL     1     -11.864  16.041  71.358  0.00  0.00    +0.006 A 
ATOM     14  C   UNL     1     -11.571  15.905  70.007  0.00  0.00    -0.003 A 
BRANCH  11  15
ATOM     15  N   UNL     1     -13.510  12.840  71.816  0.00  0.00    +0.081 N 
ATOM     16  O   UNL     1     -14.386  13.401  72.727  0.00  0.00    -0.576 OA
ATOM     17  O   UNL     1     -13.155  11.663  72.078  0.00  0.00    +0.041 OA
ENDBRANCH  11  15
ENDBRANCH   2   9
BRANCH   1  18
ATOM     18  C   UNL     1     -10.255  17.175  67.835  0.00  0.00    +0.339 C 
ATOM     19  O   UNL     1      -9.818  17.930  68.758  0.00  0.00    -0.245 OA
BRANCH  18  20
ATOM     20  O   UNL     1     -10.434  17.875  66.634  0.00  0.00    -0.443 OA
BRANCH  20  21
ATOM     21  C   UNL     1     -10.226  19.272  66.528  0.00  0.00    +0.241 C 
BRANCH  21  22
ATOM     22  C   UNL     1      -8.833  19.661  66.162  0.00  0.00    +0.190 C 
BRANCH  22  24
ATOM     23  C   UNL     1      -7.105  19.939  67.674  0.00  0.00    +0.174 C 
ATOM     24  O   UNL     1      -8.334  20.428  67.228  0.00  0.00    -0.347 OA
ENDBRANCH  22  24
ENDBRANCH  21  22
ENDBRANCH  20  21
ENDBRANCH  18  20
ENDBRANCH   1  18
BRANCH   3  25
ATOM     25  C   UNL     1     -11.093  12.521  66.622  0.00  0.00    +0.339 C 
ATOM     26  O   UNL     1     -12.001  11.721  67.001  0.00  0.00    -0.245 OA
BRANCH  25  27
ATOM     27  O   UNL     1     -11.006  12.777  65.273  0.00  0.00    -0.449 OA
BRANCH  27  28
ATOM     28  C   UNL     1     -12.204  13.102  64.572  0.00  0.00    +0.169 C 
ATOM     29  C   UNL     1     -12.349  12.303  63.303  0.00  0.00    +0.047 C 
ATOM     30  C   UNL     1     -12.268  14.584  64.285  0.00  0.00    +0.047 C 
ENDBRANCH  27  28
ENDBRANCH  25  27
ENDBRANCH   3  25
TORSDOF 10
ENDMDL
MODEL 2
REMARK VINA RESULT:      -6.2      2.564      4.634
REMARK  Name = 
REMARK  10 active torsions:
REMARK  status: ('A' for Active; 'I' for Inactive)
REMARK    1  A    between atoms: O_2  and  C_3
REMARK    2  A    between atoms: C_3  and  C_4
REMARK    3  A    between atoms: C_4  and  O_5
REMARK    4  A    between atoms: O_5  and  C_6
REMARK    5  A    between atoms: C_6  and  C_8
REMARK    6  A    between atoms: C_14  and  C_15
REMARK    7  A    between atoms: C_15  and  O_17
REMARK    8  A    between atoms: O_17  and  C_18
REMARK    9  A    between atoms: C_21  and  C_22
REMARK   10  A    between atoms: C_26  and  N_27
REMARK                            x       y       z     vdW  Elec       q    Type
REMARK                         _______ _______ _______ _____ _____    ______ ____
ROOT
ATOM      1  C   UNL     1     -10.354  14.790  68.975  0.00  0.00    +0.073 C 
ATOM      2  C   UNL     1     -11.189  13.704  68.128  0.00  0.00    +0.082 C 
ATOM      3  C   UNL     1     -10.002  13.170  67.180  0.00  0.00    +0.073 C 
ATOM      4  C   UNL     1      -8.862  12.869  67.712  0.00  0.00    +0.051 C 
ATOM      5  C   UNL     1      -7.899  12.085  66.868  0.00  0.00    +0.049 C 
ATOM      6  N   UNL     1      -8.337  13.906  68.557  0.00  0.00    -0.221 NA
ATOM      7  C   UNL     1      -9.148  15.093  68.598  0.00  0.00    +0.051 C 
ATOM      8  C   UNL     1      -8.580  16.414  69.019  0.00  0.00    +0.049 C 
ENDROOT
BRANCH   2   9
ATOM      9  C   UNL     1     -10.972  12.546  69.237  0.00  0.00    -0.008 A 
ATOM     10  C   UNL     1     -10.673  11.297  68.694  0.00  0.00    +0.072 A 
ATOM     11  C   UNL     1     -10.914  10.160  69.457  0.00  0.00    +0.290 A 
ATOM     12  C   UNL     1     -11.595  10.311  70.658  0.00  0.00    +0.075 A 
ATOM     13  C   UNL     1     -12.316  11.465  70.914  0.00  0.00    +0.006 A 
ATOM     14  C   UNL     1     -12.122  12.512  70.022  0.00  0.00    -0.003 A 
BRANCH  11  15
ATOM     15  N   UNL     1     -10.816   8.841  68.907  0.00  0.00    +0.081 N 
ATOM     16  O   UNL     1     -10.079   7.938  69.651  0.00  0.00    -0.576 OA
ATOM     17  O   UNL     1     -10.661   8.752  67.663  0.00  0.00    +0.041 OA
ENDBRANCH  11  15
ENDBRANCH   2   9
BRANCH   1  18
ATOM     18  C   UNL     1     -11.187  15.657  69.826  0.00  0.00    +0.339 C 
ATOM     19  O   UNL     1     -12.263  16.141  69.356  0.00  0.00    -0.245 OA
BRANCH  18  20
ATOM     20  O   UNL     1     -11.250  15.505  71.217  0.00  0.00    -0.443 OA
BRANCH  20  21
ATOM     21  C   UNL     1     -12.430  15.760  71.959  0.00  0.00    +0.241 C 
BRANCH  21  22
ATOM     22  C   UNL     1     -12.682  14.792  73.065  0.00  0.00    +0.190 C 
BRANCH  22  24
ATOM     23  C   UNL     1     -14.593  14.795  71.762  0.00  0.00    +0.174 C 
ATOM     24  O   UNL     1     -13.876  14.120  72.751  0.00  0.00    -0.347 OA
ENDBRANCH  22  24
ENDBRANCH  21  22
ENDBRANCH  20  21
ENDBRANCH  18  20
ENDBRANCH   1  18
BRANCH   3  25
ATOM     25  C   UNL     1     -10.333  13.099  65.756  0.00  0.00    +0.339 C 
ATOM     26  O   UNL     1      -9.977  14.090  65.048  0.00  0.00    -0.245 OA
BRANCH  25  27
ATOM     27  O   UNL     1     -10.649  11.936  65.093  0.00  0.00    -0.449 OA
BRANCH  27  28
ATOM     28  C   UNL     1     -10.854  12.001  63.683  0.00  0.00    +0.169 C 
ATOM     29  C   UNL     1     -12.313  11.911  63.320  0.00  0.00    +0.047 C 
ATOM     30  C   UNL     1     -10.058  10.926  62.979  0.00  0.00    +0.047 C 
ENDBRANCH  27  28
ENDBRANCH  25  27
ENDBRANCH   3  25
TORSDOF 10
ENDMDL
MODEL 3
REMARK VINA RESULT:      -6.0      2.336      5.086
REMARK  Name = 
REMARK  10 active torsions:
REMARK  status: ('A' for Active; 'I' for Inactive)
REMARK    1  A    between atoms: O_2  and  C_3
REMARK    2  A    between atoms: C_3  and  C_4
REMARK    3  A    between atoms: C_4  and  O_5
REMARK    4  A    between atoms: O_5  and  C_6
REMARK    5  A    between atoms: C_6  and  C_8
REMARK    6  A    between atoms: C_14  and  C_15
REMARK    7  A    between atoms: C_15  and  O_17
REMARK    8  A    between atoms: O_17  and  C_18
REMARK    9  A    between atoms: C_21  and  C_22
REMARK   10  A    between atoms: C_26  and  N_27
REMARK                            x       y       z     vdW  Elec       q    Type
REMARK                         _______ _______ _______ _____ _____    ______ ____
ROOT
ATOM      1  C   UNL     1     -10.353  15.184  68.687  0.00  0.00    +0.073 C 
ATOM      2  C   UNL     1      -9.647  14.298  67.542  0.00  0.00    +0.082 C 
ATOM      3  C   UNL     1     -10.162  12.846  68.005  0.00  0.00    +0.073 C 
ATOM      4  C   UNL     1     -11.412  12.686  68.296  0.00  0.00    +0.051 C 
ATOM      5  C   UNL     1     -11.914  11.275  68.410  0.00  0.00    +0.049 C 
ATOM      6  N   UNL     1     -11.909  13.662  69.226  0.00  0.00    -0.221 NA
ATOM      7  C   UNL     1     -10.909  14.582  69.696  0.00  0.00    +0.051 C 
ATOM      8  C   UNL     1     -11.089  15.348  70.972  0.00  0.00    +0.049 C 
ENDROOT
BRANCH   2   9
ATOM      9  C   UNL     1     -10.865  14.520  66.500  0.00  0.00    -0.008 A 
ATOM     10  C   UNL     1     -11.082  13.434  65.652  0.00  0.00    +0.072 A 
ATOM     11  C   UNL     1     -11.749  13.645  64.450  0.00  0.00    +0.290 A 
ATOM     12  C   UNL     1     -12.020  14.955  64.076  0.00  0.00    +0.075 A 
ATOM     13  C   UNL     1     -11.348  16.008  64.673  0.00  0.00    +0.006 A 
ATOM     14  C   UNL     1     -10.591  15.687  65.792  0.00  0.00    -0.003 A 
BRANCH  11  15
ATOM     15  N   UNL     1     -11.842  12.630  63.444  0.00  0.00    +0.081 N 
ATOM     16  O   UNL     1     -13.074  12.012  63.334  0.00  0.00    -0.576 OA
ATOM     17  O   UNL     1     -10.853  11.867  63.310  0.00  0.00    +0.041 OA
ENDBRANCH  11  15
ENDBRANCH   2   9
BRANCH   1  18
ATOM     18  C   UNL     1      -9.921  16.591  68.711  0.00  0.00    +0.339 C 
ATOM     19  O   UNL     1      -8.698  16.870  68.513  0.00  0.00    -0.245 OA
BRANCH  18  20
ATOM     20  O   UNL     1     -10.763  17.641  68.319  0.00  0.00    -0.443 OA
BRANCH  20  21
ATOM     21  C   UNL     1     -10.275  18.936  68.018  0.00  0.00    +0.241 C 
BRANCH  21  22
ATOM     22  C   UNL     1     -10.447  19.343  66.593  0.00  0.00    +0.190 C 
BRANCH  22  24
ATOM     23  C   UNL     1      -8.173  19.661  66.314  0.00  0.00    +0.174 C 
ATOM     24  O   UNL     1      -9.291  18.928  65.911  0.00  0.00    -0.347 OA
ENDBRANCH  22  24
ENDBRANCH  21  22
ENDBRANCH  20  21
ENDBRANCH  18  20
ENDBRANCH   1  18
BRANCH   3  25
ATOM     25  C   UNL     1      -9.123  11.816  68.079  0.00  0.00    +0.339 C 
ATOM     26  O   UNL     1      -8.393  11.681  67.052  0.00  0.00    -0.245 OA
BRANCH  25  27
ATOM     27  O   UNL     1      -8.660  11.269  69.253  0.00  0.00    -0.449 OA
BRANCH  27  28
ATOM     28  C   UNL     1      -8.616   9.848  69.361  0.00  0.00    +0.169 C 
ATOM     29  C   UNL     1      -9.463   9.341  70.499  0.00  0.00    +0.047 C 
ATOM     30  C   UNL     1      -7.189   9.368  69.496  0.00  0.00    +0.047 C 
ENDBRANCH  27  28
ENDBRANCH  25  27
ENDBRANCH   3  25
TORSDOF 10
ENDMDL
MODEL 4
REMARK VINA RESULT:      -6.0      3.551      5.148
REMARK  Name = 
REMARK  10 active torsions:
REMARK  status: ('A' for Active; 'I' for Inactive)
REMARK    1  A    between atoms: O_2  and  C_3
REMARK    2  A    between atoms: C_3  and  C_4
REMARK    3  A    between atoms: C_4  and  O_5
REMARK    4  A    between atoms: O_5  and  C_6
REMARK    5  A    between atoms: C_6  and  C_8
REMARK    6  A    between atoms: C_14  and  C_15
REMARK    7  A    between atoms: C_15  and  O_17
REMARK    8  A    between atoms: O_17  and  C_18
REMARK    9  A    between atoms: C_21  and  C_22
REMARK   10  A    between atoms: C_26  and  N_27
REMARK                            x       y       z     vdW  Elec       q    Type
REMARK                         _______ _______ _______ _____ _____    ______ ____
ROOT
ATOM      1  C   UNL     1     -10.677  12.358  67.959  0.00  0.00    +0.073 C 
ATOM      2  C   UNL     1     -11.239  10.870  67.709  0.00  0.00    +0.082 C 
ATOM      3  C   UNL     1      -9.852  10.144  67.336  0.00  0.00    +0.073 C 
ATOM      4  C   UNL     1      -8.816  10.349  68.083  0.00  0.00    +0.051 C 
ATOM      5  C   UNL     1      -7.647   9.424  67.901  0.00  0.00    +0.049 C 
ATOM      6  N   UNL     1      -8.551  11.741  68.319  0.00  0.00    -0.221 NA
ATOM      7  C   UNL     1      -9.449  12.631  67.632  0.00  0.00    +0.051 C 
ATOM      8  C   UNL     1      -9.083  14.060  67.366  0.00  0.00    +0.049 C 
ENDROOT
BRANCH   2   9
ATOM      9  C   UNL     1     -11.149  10.480  69.277  0.00  0.00    -0.008 A 
ATOM     10  C   UNL     1     -10.979   9.116  69.508  0.00  0.00    +0.072 A 
ATOM     11  C   UNL     1     -11.340   8.596  70.746  0.00  0.00    +0.290 A 
ATOM     12  C   UNL     1     -12.006   9.429  71.635  0.00  0.00    +0.075 A 
ATOM     13  C   UNL     1     -12.605  10.595  71.189  0.00  0.00    +0.006 A 
ATOM     14  C   UNL     1     -12.299  10.973  69.888  0.00  0.00    -0.003 A 
BRANCH  11  15
ATOM     15  N   UNL     1     -11.377   7.185  70.996  0.00  0.00    +0.081 N 
ATOM     16  O   UNL     1     -10.339   6.688  71.762  0.00  0.00    -0.576 OA
ATOM     17  O   UNL     1     -11.735   6.446  70.044  0.00  0.00    +0.041 OA
ENDBRANCH  11  15
ENDBRANCH   2   9
BRANCH   1  18
ATOM     18  C   UNL     1     -11.726  13.378  68.119  0.00  0.00    +0.339 C 
ATOM     19  O   UNL     1     -11.789  14.042  69.201  0.00  0.00    -0.245 OA
BRANCH  18  20
ATOM     20  O   UNL     1     -12.239  14.103  67.035  0.00  0.00    -0.443 OA
BRANCH  20  21
ATOM     21  C   UNL     1     -12.441  13.523  65.759  0.00  0.00    +0.241 C 
BRANCH  21  22
ATOM     22  C   UNL     1     -12.126  14.428  64.616  0.00  0.00    +0.190 C 
BRANCH  22  24
ATOM     23  C   UNL     1     -12.153  12.472  63.381  0.00  0.00    +0.174 C 
ATOM     24  O   UNL     1     -12.598  13.793  63.454  0.00  0.00    -0.347 OA
ENDBRANCH  22  24
ENDBRANCH  21  22
ENDBRANCH  20  21
ENDBRANCH  18  20
ENDBRANCH   1  18
BRANCH   3  25
ATOM     25  C   UNL     1      -9.893   9.314  66.131  0.00  0.00    +0.339 C 
ATOM     26  O   UNL     1     -10.265   8.112  66.291  0.00  0.00    -0.245 OA
BRANCH  25  27
ATOM     27  O   UNL     1      -9.917   9.812  64.849  0.00  0.00    -0.449 OA
BRANCH  27  28
ATOM     28  C   UNL     1      -8.872   9.428  63.959  0.00  0.00    +0.169 C 
ATOM     29  C   UNL     1      -7.562  10.083  64.312  0.00  0.00    +0.047 C 
ATOM     30  C   UNL     1      -9.254   9.728  62.528  0.00  0.00    +0.047 C 
ENDBRANCH  27  28
ENDBRANCH  25  27
ENDBRANCH   3  25
TORSDOF 10
ENDMDL
MODEL 5
REMARK VINA RESULT:      -6.0      2.905      7.373
REMARK  Name = 
REMARK  10 active torsions:
REMARK  status: ('A' for Active; 'I' for Inactive)
REMARK    1  A    between atoms: O_2  and  C_3
REMARK    2  A    between atoms: C_3  and  C_4
REMARK    3  A    between atoms: C_4  and  O_5
REMARK    4  A    between atoms: O_5  and  C_6
REMARK    5  A    between atoms: C_6  and  C_8
REMARK    6  A    between atoms: C_14  and  C_15
REMARK    7  A    between atoms: C_15  and  O_17
REMARK    8  A    between atoms: O_17  and  C_18
REMARK    9  A    between atoms: C_21  and  C_22
REMARK   10  A    between atoms: C_26  and  N_27
REMARK                            x       y       z     vdW  Elec       q    Type
REMARK                         _______ _______ _______ _____ _____    ______ ____
ROOT
ATOM      1  C   UNL     1      -8.603  11.912  68.207  0.00  0.00    +0.073 C 
ATOM      2  C   UNL     1     -10.067  12.474  67.840  0.00  0.00    +0.082 C 
ATOM      3  C   UNL     1      -9.700  14.033  67.692  0.00  0.00    +0.073 C 
ATOM      4  C   UNL     1      -8.662  14.370  66.996  0.00  0.00    +0.051 C 
ATOM      5  C   UNL     1      -8.534  15.817  66.616  0.00  0.00    +0.049 C 
ATOM      6  N   UNL     1      -7.472  13.656  67.367  0.00  0.00    -0.221 NA
ATOM      7  C   UNL     1      -7.652  12.757  68.475  0.00  0.00    +0.051 C 
ATOM      8  C   UNL     1      -6.491  12.286  69.297  0.00  0.00    +0.049 C 
ENDROOT
BRANCH   2   9
ATOM      9  C   UNL     1      -9.884  12.166  66.263  0.00  0.00    -0.008 A 
ATOM     10  C   UNL     1     -10.837  12.787  65.456  0.00  0.00    +0.072 A 
ATOM     11  C   UNL     1     -11.085  12.266  64.190  0.00  0.00    +0.290 A 
ATOM     12  C   UNL     1     -10.492  11.056  63.855  0.00  0.00    +0.075 A 
ATOM     13  C   UNL     1      -9.981  10.229  64.841  0.00  0.00    +0.006 A 
ATOM     14  C   UNL     1      -9.894  10.782  66.112  0.00  0.00    -0.003 A 
BRANCH  11  15
ATOM     15  N   UNL     1     -12.174  12.724  63.380  0.00  0.00    +0.081 N 
ATOM     16  O   UNL     1     -12.493  14.063  63.511  0.00  0.00    -0.576 OA
ATOM     17  O   UNL     1     -13.161  11.954  63.263  0.00  0.00    +0.041 OA
ENDBRANCH  11  15
ENDBRANCH   2   9
BRANCH   1  18
ATOM     18  C   UNL     1      -8.589  10.503  68.635  0.00  0.00    +0.339 C 
ATOM     19  O   UNL     1      -7.625   9.755  68.283  0.00  0.00    -0.245 OA
BRANCH  18  20
ATOM     20  O   UNL     1      -9.159  10.081  69.844  0.00  0.00    -0.443 OA
BRANCH  20  21
ATOM     21  C   UNL     1      -8.580   9.067  70.646  0.00  0.00    +0.241 C 
BRANCH  21  22
ATOM     22  C   UNL     1      -9.430   8.629  71.791  0.00  0.00    +0.190 C 
BRANCH  22  24
ATOM     23  C   UNL     1     -11.684   8.287  71.401  0.00  0.00    +0.174 C 
ATOM     24  O   UNL     1     -10.685   9.237  71.619  0.00  0.00    -0.347 OA
ENDBRANCH  22  24
ENDBRANCH  21  22
ENDBRANCH  20  21
ENDBRANCH  18  20
ENDBRANCH   1  18
BRANCH   3  25
ATOM     25  C   UNL     1     -10.592  14.950  68.405  0.00  0.00    +0.339 C 
ATOM     26  O   UNL     1     -11.617  15.341  67.770  0.00  0.00    -0.245 OA
BRANCH  25  27
ATOM     27  O   UNL     1     -10.599  15.115  69.770  0.00  0.00    -0.449 OA
BRANCH  27  28
ATOM     28  C   UNL     1     -11.858  15.135  70.438  0.00  0.00    +0.169 C 
ATOM     29  C   UNL     1     -11.836  16.021  71.657  0.00  0.00    +0.047 C 
ATOM     30  C   UNL     1     -12.291  13.733  70.800  0.00  0.00    +0.047 C 
ENDBRANCH  27  28
ENDBRANCH  25  27
ENDBRANCH   3  25
TORSDOF 10
ENDMDL
MODEL 6
REMARK VINA RESULT:      -6.0      2.676      6.514
REMARK  Name = 
REMARK  10 active torsions:
REMARK  status: ('A' for Active; 'I' for Inactive)
REMARK    1  A    between atoms: O_2  and  C_3
REMARK    2  A    between atoms: C_3  and  C_4
REMARK    3  A    between atoms: C_4  and  O_5
REMARK    4  A    between atoms: O_5  and  C_6
REMARK    5  A    between atoms: C_6  and  C_8
REMARK    6  A    between atoms: C_14  and  C_15
REMARK    7  A    between atoms: C_15  and  O_17
REMARK    8  A    between atoms: O_17  and  C_18
REMARK    9  A    between atoms: C_21  and  C_22
REMARK   10  A    between atoms: C_26  and  N_27
REMARK                            x       y       z     vdW  Elec       q    Type
REMARK                         _______ _______ _______ _____ _____    ______ ____
ROOT
ATOM      1  C   UNL     1     -10.315  11.283  67.787  0.00  0.00    +0.073 C 
ATOM      2  C   UNL     1     -10.173  12.746  68.446  0.00  0.00    +0.082 C 
ATOM      3  C   UNL     1     -10.804  13.615  67.247  0.00  0.00    +0.073 C 
ATOM      4  C   UNL     1     -11.917  13.230  66.710  0.00  0.00    +0.051 C 
ATOM      5  C   UNL     1     -12.631  14.217  65.832  0.00  0.00    +0.049 C 
ATOM      6  N   UNL     1     -11.909  11.849  66.315  0.00  0.00    -0.221 NA
ATOM      7  C   UNL     1     -10.652  11.185  66.536  0.00  0.00    +0.051 C 
ATOM      8  C   UNL     1     -10.287   9.935  65.795  0.00  0.00    +0.049 C 
ENDROOT
BRANCH   2   9
ATOM      9  C   UNL     1     -11.577  12.618  69.240  0.00  0.00    -0.008 A 
ATOM     10  C   UNL     1     -11.925  13.765  69.952  0.00  0.00    +0.072 A 
ATOM     11  C   UNL     1     -12.820  13.651  71.011  0.00  0.00    +0.290 A 
ATOM     12  C   UNL     1     -13.196  12.376  71.413  0.00  0.00    +0.075 A 
ATOM     13  C   UNL     1     -12.450  11.273  71.032  0.00  0.00    +0.006 A 
ATOM     14  C   UNL     1     -11.480  11.501  70.065  0.00  0.00    -0.003 A 
BRANCH  11  15
ATOM     15  N   UNL     1     -13.080  14.738  71.907  0.00  0.00    +0.081 N 
ATOM     16  O   UNL     1     -13.340  14.380  73.218  0.00  0.00    -0.576 OA
ATOM     17  O   UNL     1     -13.780  15.685  71.468  0.00  0.00    +0.041 OA
ENDBRANCH  11  15
ENDBRANCH   2   9
BRANCH   1  18
ATOM     18  C   UNL     1      -9.625  10.219  68.534  0.00  0.00    +0.339 C 
ATOM     19  O   UNL     1      -8.600  10.508  69.227  0.00  0.00    -0.245 OA
BRANCH  18  20
ATOM     20  O   UNL     1     -10.300   9.104  69.047  0.00  0.00    -0.443 OA
BRANCH  20  21
ATOM     21  C   UNL     1      -9.651   8.107  69.816  0.00  0.00    +0.241 C 
BRANCH  21  22
ATOM     22  C   UNL     1     -10.574   7.124  70.454  0.00  0.00    +0.190 C 
BRANCH  22  24
ATOM     23  C   UNL     1     -11.407   7.956  72.445  0.00  0.00    +0.174 C 
ATOM     24  O   UNL     1     -11.597   7.868  71.066  0.00  0.00    -0.347 OA
ENDBRANCH  22  24
ENDBRANCH  21  22
ENDBRANCH  20  21
ENDBRANCH  18  20
ENDBRANCH   1  18
BRANCH   3  25
ATOM     25  C   UNL     1     -10.017  14.784  66.850  0.00  0.00    +0.339 C 
ATOM     26  O   UNL     1      -9.233  14.624  65.866  0.00  0.00    -0.245 OA
BRANCH  25  27
ATOM     27  O   UNL     1     -10.322  16.078  67.204  0.00  0.00    -0.449 OA
BRANCH  27  28
ATOM     28  C   UNL     1      -9.946  16.526  68.504  0.00  0.00    +0.169 C 
ATOM     29  C   UNL     1     -10.074  18.020  68.644  0.00  0.00    +0.047 C 
ATOM     30  C   UNL     1      -8.543  16.073  68.838  0.00  0.00    +0.047 C 
ENDBRANCH  27  28
ENDBRANCH  25  27
ENDBRANCH   3  25
TORSDOF 10
ENDMDL
MODEL 7
REMARK VINA RESULT:      -5.9      3.179      7.050
REMARK  Name = 
REMARK  10 active torsions:
REMARK  status: ('A' for Active; 'I' for Inactive)
REMARK    1  A    between atoms: O_2  and  C_3
REMARK    2  A    between atoms: C_3  and  C_4
REMARK    3  A    between atoms: C_4  and  O_5
REMARK    4  A    between atoms: O_5  and  C_6
REMARK    5  A    between atoms: C_6  and  C_8
REMARK    6  A    between atoms: C_14  and  C_15
REMARK    7  A    between atoms: C_15  and  O_17
REMARK    8  A    between atoms: O_17  and  C_18
REMARK    9  A    between atoms: C_21  and  C_22
REMARK   10  A    between atoms: C_26  and  N_27
REMARK                            x       y       z     vdW  Elec       q    Type
REMARK                         _______ _______ _______ _____ _____    ______ ____
ROOT
ATOM      1  C   UNL     1     -10.105  10.366  67.631  0.00  0.00    +0.073 C 
ATOM      2  C   UNL     1      -9.829  11.521  68.720  0.00  0.00    +0.082 C 
ATOM      3  C   UNL     1     -10.305  12.791  67.854  0.00  0.00    +0.073 C 
ATOM      4  C   UNL     1     -11.428  12.730  67.215  0.00  0.00    +0.051 C 
ATOM      5  C   UNL     1     -11.988  14.021  66.690  0.00  0.00    +0.049 C 
ATOM      6  N   UNL     1     -11.558  11.553  66.403  0.00  0.00    -0.221 NA
ATOM      7  C   UNL     1     -10.395  10.707  66.411  0.00  0.00    +0.051 C 
ATOM      8  C   UNL     1     -10.140   9.717  65.315  0.00  0.00    +0.049 C 
ENDROOT
BRANCH   2   9
ATOM      9  C   UNL     1     -11.273  11.321  69.424  0.00  0.00    -0.008 A 
ATOM     10  C   UNL     1     -11.772  12.479  70.019  0.00  0.00    +0.072 A 
ATOM     11  C   UNL     1     -12.730  12.357  71.019  0.00  0.00    +0.290 A 
ATOM     12  C   UNL     1     -13.023  11.085  71.492  0.00  0.00    +0.075 A 
ATOM     13  C   UNL     1     -12.158  10.031  71.251  0.00  0.00    +0.006 A 
ATOM     14  C   UNL     1     -11.141  10.279  70.338  0.00  0.00    -0.003 A 
BRANCH  11  15
ATOM     15  N   UNL     1     -13.151  13.477  71.809  0.00  0.00    +0.081 N 
ATOM     16  O   UNL     1     -14.295  13.280  72.559  0.00  0.00    -0.576 OA
ATOM     17  O   UNL     1     -13.050  14.615  71.284  0.00  0.00    +0.041 OA
ENDBRANCH  11  15
ENDBRANCH   2   9
BRANCH   1  18
ATOM     18  C   UNL     1      -9.572   9.047  68.007  0.00  0.00    +0.339 C 
ATOM     19  O   UNL     1      -8.463   8.975  68.623  0.00  0.00    -0.245 OA
BRANCH  18  20
ATOM     20  O   UNL     1     -10.404   7.961  68.309  0.00  0.00    -0.443 OA
BRANCH  20  21
ATOM     21  C   UNL     1      -9.905   6.736  68.818  0.00  0.00    +0.241 C 
BRANCH  21  22
ATOM     22  C   UNL     1     -10.955   5.808  69.328  0.00  0.00    +0.190 C 
BRANCH  22  24
ATOM     23  C   UNL     1     -11.531   6.349  71.502  0.00  0.00    +0.174 C 
ATOM     24  O   UNL     1     -11.803   6.569  70.151  0.00  0.00    -0.347 OA
ENDBRANCH  22  24
ENDBRANCH  21  22
ENDBRANCH  20  21
ENDBRANCH  18  20
ENDBRANCH   1  18
BRANCH   3  25
ATOM     25  C   UNL     1      -9.375  13.922  67.852  0.00  0.00    +0.339 C 
ATOM     26  O   UNL     1      -8.852  14.216  66.735  0.00  0.00    -0.245 OA
BRANCH  25  27
ATOM     27  O   UNL     1      -9.315  14.875  68.842  0.00  0.00    -0.449 OA
BRANCH  27  28
ATOM     28  C   UNL     1      -9.678  16.213  68.510  0.00  0.00    +0.169 C 
ATOM     29  C   UNL     1      -8.515  17.162  68.639  0.00  0.00    +0.047 C 
ATOM     30  C   UNL     1     -10.844  16.674  69.355  0.00  0.00    +0.047 C 
ENDBRANCH  27  28
ENDBRANCH  25  27
ENDBRANCH   3  25
TORSDOF 10
ENDMDL
MODEL 8
REMARK VINA RESULT:      -5.9      2.660      5.289
REMARK  Name = 
REMARK  10 active torsions:
REMARK  status: ('A' for Active; 'I' for Inactive)
REMARK    1  A    between atoms: O_2  and  C_3
REMARK    2  A    between atoms: C_3  and  C_4
REMARK    3  A    between atoms: C_4  and  O_5
REMARK    4  A    between atoms: O_5  and  C_6
REMARK    5  A    between atoms: C_6  and  C_8
REMARK    6  A    between atoms: C_14  and  C_15
REMARK    7  A    between atoms: C_15  and  O_17
REMARK    8  A    between atoms: O_17  and  C_18
REMARK    9  A    between atoms: C_21  and  C_22
REMARK   10  A    between atoms: C_26  and  N_27
REMARK                            x       y       z     vdW  Elec       q    Type
REMARK                         _______ _______ _______ _____ _____    ______ ____
ROOT
ATOM      1  C   UNL     1      -9.532  17.725  67.348  0.00  0.00    +0.073 C 
ATOM      2  C   UNL     1      -9.120  16.200  67.033  0.00  0.00    +0.082 C 
ATOM      3  C   UNL     1      -9.459  15.554  68.467  0.00  0.00    +0.073 C 
ATOM      4  C   UNL     1     -10.588  15.837  69.032  0.00  0.00    +0.051 C 
ATOM      5  C   UNL     1     -11.005  14.982  70.194  0.00  0.00    +0.049 C 
ATOM      6  N   UNL     1     -10.855  17.247  69.094  0.00  0.00    -0.221 NA
ATOM      7  C   UNL     1      -9.793  18.067  68.575  0.00  0.00    +0.051 C 
ATOM      8  C   UNL     1      -9.660  19.509  68.957  0.00  0.00    +0.049 C 
ENDROOT
BRANCH   2   9
ATOM      9  C   UNL     1     -10.570  15.848  66.407  0.00  0.00    -0.008 A 
ATOM     10  C   UNL     1     -10.897  14.494  66.479  0.00  0.00    +0.072 A 
ATOM     11  C   UNL     1     -11.854  13.990  65.605  0.00  0.00    +0.290 A 
ATOM     12  C   UNL     1     -12.315  14.820  64.592  0.00  0.00    +0.075 A 
ATOM     13  C   UNL     1     -11.607  15.957  64.240  0.00  0.00    +0.006 A 
ATOM     14  C   UNL     1     -10.575  16.317  65.097  0.00  0.00    -0.003 A 
BRANCH  11  15
ATOM     15  N   UNL     1     -12.107  12.585  65.484  0.00  0.00    +0.081 N 
ATOM     16  O   UNL     1     -13.113  12.234  64.602  0.00  0.00    -0.576 OA
ATOM     17  O   UNL     1     -12.067  11.905  66.540  0.00  0.00    +0.041 OA
ENDBRANCH  11  15
ENDBRANCH   2   9
BRANCH   1  18
ATOM     18  C   UNL     1      -9.146  18.682  66.298  0.00  0.00    +0.339 C 
ATOM     19  O   UNL     1     -10.045  19.371  65.723  0.00  0.00    -0.245 OA
BRANCH  18  20
ATOM     20  O   UNL     1      -7.910  19.341  66.302  0.00  0.00    -0.443 OA
BRANCH  20  21
ATOM     21  C   UNL     1      -6.783  18.851  65.597  0.00  0.00    +0.241 C 
BRANCH  21  22
ATOM     22  C   UNL     1      -6.236  19.796  64.580  0.00  0.00    +0.190 C 
BRANCH  22  24
ATOM     23  C   UNL     1      -5.507  19.833  62.385  0.00  0.00    +0.174 C 
ATOM     24  O   UNL     1      -5.887  19.025  63.458  0.00  0.00    -0.347 OA
ENDBRANCH  22  24
ENDBRANCH  21  22
ENDBRANCH  20  21
ENDBRANCH  18  20
ENDBRANCH   1  18
BRANCH   3  25
ATOM     25  C   UNL     1      -8.409  14.700  69.024  0.00  0.00    +0.339 C 
ATOM     26  O   UNL     1      -8.232  13.582  68.452  0.00  0.00    -0.245 OA
BRANCH  25  27
ATOM     27  O   UNL     1      -7.400  15.150  69.844  0.00  0.00    -0.449 OA
BRANCH  27  28
ATOM     28  C   UNL     1      -6.239  15.711  69.235  0.00  0.00    +0.169 C 
ATOM     29  C   UNL     1      -4.969  15.148  69.818  0.00  0.00    +0.047 C 
ATOM     30  C   UNL     1      -6.257  17.218  69.341  0.00  0.00    +0.047 C 
ENDBRANCH  27  28
ENDBRANCH  25  27
ENDBRANCH   3  25
TORSDOF 10
ENDMDL
MODEL 9
REMARK VINA RESULT:      -5.9      3.153      5.904
REMARK  Name = 
REMARK  10 active torsions:
REMARK  status: ('A' for Active; 'I' for Inactive)
REMARK    1  A    between atoms: O_2  and  C_3
REMARK    2  A    between atoms: C_3  and  C_4
REMARK    3  A    between atoms: C_4  and  O_5
REMARK    4  A    between atoms: O_5  and  C_6
REMARK    5  A    between atoms: C_6  and  C_8
REMARK    6  A    between atoms: C_14  and  C_15
REMARK    7  A    between atoms: C_15  and  O_17
REMARK    8  A    between atoms: O_17  and  C_18
REMARK    9  A    between atoms: C_21  and  C_22
REMARK   10  A    between atoms: C_26  and  N_27
REMARK                            x       y       z     vdW  Elec       q    Type
REMARK                         _______ _______ _______ _____ _____    ______ ____
ROOT
ATOM      1  C   UNL     1      -7.592  14.945  67.618  0.00  0.00    +0.073 C 
ATOM      2  C   UNL     1      -9.099  14.593  68.064  0.00  0.00    +0.082 C 
ATOM      3  C   UNL     1      -9.808  15.975  67.643  0.00  0.00    +0.073 C 
ATOM      4  C   UNL     1      -9.557  16.480  66.479  0.00  0.00    +0.051 C 
ATOM      5  C   UNL     1     -10.463  17.578  65.999  0.00  0.00    +0.049 C 
ATOM      6  N   UNL     1      -8.153  16.584  66.194  0.00  0.00    -0.221 NA
ATOM      7  C   UNL     1      -7.305  16.167  67.278  0.00  0.00    +0.051 C 
ATOM      8  C   UNL     1      -5.878  16.616  67.373  0.00  0.00    +0.049 C 
ENDROOT
BRANCH   2   9
ATOM      9  C   UNL     1      -9.436  13.865  66.658  0.00  0.00    -0.008 A 
ATOM     10  C   UNL     1     -10.775  13.962  66.283  0.00  0.00    +0.072 A 
ATOM     11  C   UNL     1     -11.288  13.032  65.385  0.00  0.00    +0.290 A 
ATOM     12  C   UNL     1     -10.487  11.953  65.033  0.00  0.00    +0.075 A 
ATOM     13  C   UNL     1      -9.387  11.617  65.804  0.00  0.00    +0.006 A 
ATOM     14  C   UNL     1      -9.021  12.541  66.774  0.00  0.00    -0.003 A 
BRANCH  11  15
ATOM     15  N   UNL     1     -12.689  12.946  65.098  0.00  0.00    +0.081 N 
ATOM     16  O   UNL     1     -13.023  12.212  63.974  0.00  0.00    -0.576 OA
ATOM     17  O   UNL     1     -13.373  13.985  65.275  0.00  0.00    +0.041 OA
ENDBRANCH  11  15
ENDBRANCH   2   9
BRANCH   1  18
ATOM     18  C   UNL     1      -6.589  13.962  68.058  0.00  0.00    +0.339 C 
ATOM     19  O   UNL     1      -5.625  13.667  67.285  0.00  0.00    -0.245 OA
BRANCH  18  20
ATOM     20  O   UNL     1      -6.244  13.795  69.406  0.00  0.00    -0.443 OA
BRANCH  20  21
ATOM     21  C   UNL     1      -5.002  14.227  69.933  0.00  0.00    +0.241 C 
BRANCH  21  22
ATOM     22  C   UNL     1      -5.090  15.436  70.802  0.00  0.00    +0.190 C 
BRANCH  22  24
ATOM     23  C   UNL     1      -4.982  14.380  72.857  0.00  0.00    +0.174 C 
ATOM     24  O   UNL     1      -4.301  15.177  71.936  0.00  0.00    -0.347 OA
ENDBRANCH  22  24
ENDBRANCH  21  22
ENDBRANCH  20  21
ENDBRANCH  18  20
ENDBRANCH   1  18
BRANCH   3  25
ATOM     25  C   UNL     1     -10.677  16.560  68.665  0.00  0.00    +0.339 C 
ATOM     26  O   UNL     1     -10.434  17.763  68.987  0.00  0.00    -0.245 OA
BRANCH  25  27
ATOM     27  O   UNL     1     -11.908  16.055  69.015  0.00  0.00    -0.449 OA
BRANCH  27  28
ATOM     28  C   UNL     1     -11.982  15.182  70.139  0.00  0.00    +0.169 C 
ATOM     29  C   UNL     1     -12.107  13.739  69.724  0.00  0.00    +0.047 C 
ATOM     30  C   UNL     1     -13.120  15.580  71.050  0.00  0.00    +0.047 C 
ENDBRANCH  27  28
ENDBRANCH  25  27
ENDBRANCH   3  25
TORSDOF 10
ENDMDL
