MODEL 1
REMARK VINA RESULT:      -5.3      0.000      0.000
REMARK  Name = 
REMARK  0 active torsions:
REMARK  status: ('A' for Active; 'I' for Inactive)
REMARK                            x       y       z     vdW  Elec       q    Type
REMARK                         _______ _______ _______ _____ _____    ______ ____
ROOT
ATOM      1  C   UNL     1     -11.762  12.416  65.695  0.00  0.00    +0.115 C 
ATOM      2  N   UNL     1     -11.903  13.424  66.721  0.00  0.00    -0.275 N 
ATOM      3  C   UNL     1     -11.956  12.979  68.078  0.00  0.00    +0.225 A 
ATOM      4  N   UNL     1     -11.851  13.856  69.106  0.00  0.00    -0.181 NA
ATOM      5  C   UNL     1     -12.116  13.432  70.365  0.00  0.00    +0.225 A 
ATOM      6  N   UNL     1     -12.663  14.396  71.271  0.00  0.00    -0.275 N 
ATOM      7  C   UNL     1     -13.934  14.087  71.893  0.00  0.00    +0.115 C 
ATOM      8  C   UNL     1     -12.315  15.801  71.087  0.00  0.00    +0.115 C 
ATOM      9  N   UNL     1     -12.244  12.108  70.624  0.00  0.00    -0.181 NA
ATOM     10  C   UNL     1     -11.833  11.239  69.678  0.00  0.00    +0.225 A 
ATOM     11  N   UNL     1     -11.214   9.990  69.999  0.00  0.00    -0.275 N 
ATOM     12  C   UNL     1     -11.778   9.180  71.065  0.00  0.00    +0.115 C 
ATOM     13  C   UNL     1     -10.420   9.302  69.003  0.00  0.00    +0.115 C 
ATOM     14  N   UNL     1     -11.974  11.664  68.398  0.00  0.00    -0.181 NA
ATOM     15  C   UNL     1     -11.348  14.753  66.485  0.00  0.00    +0.115 C 
ENDROOT
TORSDOF 0
ENDMDL
MODEL 2
REMARK VINA RESULT:      -5.3      2.495      4.915
REMARK  Name = 
REMARK  0 active torsions:
REMARK  status: ('A' for Active; 'I' for Inactive)
REMARK                            x       y       z     vdW  Elec       q    Type
REMARK                         _______ _______ _______ _____ _____    ______ ____
ROOT
ATOM      1  C   UNL     1      -9.681  12.888  66.949  0.00  0.00    +0.115 C 
ATOM      2  N   UNL     1     -10.664  12.974  68.004  0.00  0.00    -0.275 N 
ATOM      3  C   UNL     1     -10.950  14.269  68.534  0.00  0.00    +0.225 A 
ATOM      4  N   UNL     1     -12.013  14.472  69.350  0.00  0.00    -0.181 NA
ATOM      5  C   UNL     1     -12.131  15.655  69.999  0.00  0.00    +0.225 A 
ATOM      6  N   UNL     1     -12.771  15.631  71.279  0.00  0.00    -0.275 N 
ATOM      7  C   UNL     1     -12.026  16.139  72.412  0.00  0.00    +0.115 C 
ATOM      8  C   UNL     1     -13.788  14.614  71.530  0.00  0.00    +0.115 C 
ATOM      9  N   UNL     1     -11.339  16.701  69.656  0.00  0.00    -0.181 NA
ATOM     10  C   UNL     1     -10.652  16.617  68.499  0.00  0.00    +0.225 A 
ATOM     11  N   UNL     1     -10.421  17.751  67.659  0.00  0.00    -0.275 N 
ATOM     12  C   UNL     1     -10.020  19.007  68.270  0.00  0.00    +0.115 C 
ATOM     13  C   UNL     1     -10.073  17.559  66.267  0.00  0.00    +0.115 C 
ATOM     14  N   UNL     1     -10.262  15.368  68.144  0.00  0.00    -0.181 NA
ATOM     15  C   UNL     1     -11.746  11.994  68.040  0.00  0.00    +0.115 C 
ENDROOT
TORSDOF 0
ENDMDL
MODEL 3
REMARK VINA RESULT:      -5.3      2.653      4.094
REMARK  Name = 
REMARK  0 active torsions:
REMARK  status: ('A' for Active; 'I' for Inactive)
REMARK                            x       y       z     vdW  Elec       q    Type
REMARK                         _______ _______ _______ _____ _____    ______ ____
ROOT
ATOM      1  C   UNL     1     -10.095  18.439  66.513  0.00  0.00    +0.115 C 
ATOM      2  N   UNL     1     -10.450  18.253  67.901  0.00  0.00    -0.275 N 
ATOM      3  C   UNL     1     -10.895  16.955  68.299  0.00  0.00    +0.225 A 
ATOM      4  N   UNL     1     -11.022  16.631  69.609  0.00  0.00    -0.181 NA
ATOM      5  C   UNL     1     -11.643  15.475  69.945  0.00  0.00    +0.225 A 
ATOM      6  N   UNL     1     -12.358  15.461  71.186  0.00  0.00    -0.275 N 
ATOM      7  C   UNL     1     -13.766  15.125  71.146  0.00  0.00    +0.115 C 
ATOM      8  C   UNL     1     -11.890  16.321  72.268  0.00  0.00    +0.115 C 
ATOM      9  N   UNL     1     -11.914  14.547  68.995  0.00  0.00    -0.181 NA
ATOM     10  C   UNL     1     -11.315  14.681  67.796  0.00  0.00    +0.225 A 
ATOM     11  N   UNL     1     -10.881  13.558  67.024  0.00  0.00    -0.275 N 
ATOM     12  C   UNL     1     -11.759  12.406  66.903  0.00  0.00    +0.115 C 
ATOM     13  C   UNL     1      -9.888  13.736  65.985  0.00  0.00    +0.115 C 
ATOM     14  N   UNL     1     -11.078  15.957  67.403  0.00  0.00    -0.181 NA
ATOM     15  C   UNL     1      -9.774  19.057  68.915  0.00  0.00    +0.115 C 
ENDROOT
TORSDOF 0
ENDMDL
MODEL 4
REMARK VINA RESULT:      -5.2      1.482      1.713
REMARK  Name = 
REMARK  0 active torsions:
REMARK  status: ('A' for Active; 'I' for Inactive)
REMARK                            x       y       z     vdW  Elec       q    Type
REMARK                         _______ _______ _______ _____ _____    ______ ____
ROOT
ATOM      1  C   UNL     1     -12.448  12.562  64.503  0.00  0.00    +0.115 C 
ATOM      2  N   UNL     1     -12.131  13.706  65.326  0.00  0.00    -0.275 N 
ATOM      3  C   UNL     1     -11.897  13.473  66.716  0.00  0.00    +0.225 A 
ATOM      4  N   UNL     1     -11.370  14.437  67.509  0.00  0.00    -0.181 NA
ATOM      5  C   UNL     1     -11.360  14.256  68.851  0.00  0.00    +0.225 A 
ATOM      6  N   UNL     1     -11.467  15.431  69.664  0.00  0.00    -0.275 N 
ATOM      7  C   UNL     1     -12.560  15.495  70.611  0.00  0.00    +0.115 C 
ATOM      8  C   UNL     1     -10.938  16.688  69.143  0.00  0.00    +0.115 C 
ATOM      9  N   UNL     1     -11.647  13.040  69.376  0.00  0.00    -0.181 NA
ATOM     10  C   UNL     1     -11.663  11.982  68.541  0.00  0.00    +0.225 A 
ATOM     11  N   UNL     1     -11.212  10.684  68.936  0.00  0.00    -0.275 N 
ATOM     12  C   UNL     1     -11.605  10.169  70.237  0.00  0.00    +0.115 C 
ATOM     13  C   UNL     1     -10.846   9.710  67.929  0.00  0.00    +0.115 C 
ATOM     14  N   UNL     1     -12.063  12.249  67.273  0.00  0.00    -0.181 NA
ATOM     15  C   UNL     1     -11.433  14.837  64.722  0.00  0.00    +0.115 C 
ENDROOT
TORSDOF 0
ENDMDL
MODEL 5
REMARK VINA RESULT:      -5.2      2.925      4.806
REMARK  Name = 
REMARK  0 active torsions:
REMARK  status: ('A' for Active; 'I' for Inactive)
REMARK                            x       y       z     vdW  Elec       q    Type
REMARK                         _______ _______ _______ _____ _____    ______ ____
ROOT
ATOM      1  C   UNL     1     -12.397  13.686  66.007  0.00  0.00    +0.115 C 
ATOM      2  N   UNL     1     -11.365  14.696  65.960  0.00  0.00    -0.275 N 
ATOM      3  C   UNL     1     -11.102  15.424  67.161  0.00  0.00    +0.225 A 
ATOM      4  N   UNL     1     -10.007  16.215  67.273  0.00  0.00    -0.181 NA
ATOM      5  C   UNL     1      -9.901  17.048  68.336  0.00  0.00    +0.225 A 
ATOM      6  N   UNL     1      -9.196  18.277  68.127  0.00  0.00    -0.275 N 
ATOM      7  C   UNL     1      -9.900  19.511  68.405  0.00  0.00    +0.115 C 
ATOM      8  C   UNL     1      -8.130  18.307  67.131  0.00  0.00    +0.115 C 
ATOM      9  N   UNL     1     -10.748  16.922  69.387  0.00  0.00    -0.181 NA
ATOM     10  C   UNL     1     -11.489  15.799  69.466  0.00  0.00    +0.225 A 
ATOM     11  N   UNL     1     -11.806  15.173  70.712  0.00  0.00    -0.275 N 
ATOM     12  C   UNL     1     -12.222  16.004  71.830  0.00  0.00    +0.115 C 
ATOM     13  C   UNL     1     -12.217  13.786  70.740  0.00  0.00    +0.115 C 
ATOM     14  N   UNL     1     -11.849  15.256  68.277  0.00  0.00    -0.181 NA
ATOM     15  C   UNL     1     -10.247  14.519  65.039  0.00  0.00    +0.115 C 
ENDROOT
TORSDOF 0
ENDMDL
MODEL 6
REMARK VINA RESULT:      -5.2      0.625      3.955
REMARK  Name = 
REMARK  0 active torsions:
REMARK  status: ('A' for Active; 'I' for Inactive)
REMARK                            x       y       z     vdW  Elec       q    Type
REMARK                         _______ _______ _______ _____ _____    ______ ____
ROOT
ATOM      1  C   UNL     1     -10.793   9.450  69.509  0.00  0.00    +0.115 C 
ATOM      2  N   UNL     1     -11.405  10.355  70.455  0.00  0.00    -0.275 N 
ATOM      3  C   UNL     1     -11.661  11.690  70.018  0.00  0.00    +0.225 A 
ATOM      4  N   UNL     1     -12.436  12.529  70.747  0.00  0.00    -0.181 NA
ATOM      5  C   UNL     1     -12.484  13.841  70.415  0.00  0.00    +0.225 A 
ATOM      6  N   UNL     1     -12.690  14.773  71.483  0.00  0.00    -0.275 N 
ATOM      7  C   UNL     1     -11.695  15.808  71.672  0.00  0.00    +0.115 C 
ATOM      8  C   UNL     1     -13.455  14.338  72.648  0.00  0.00    +0.115 C 
ATOM      9  N   UNL     1     -11.964  14.264  69.237  0.00  0.00    -0.181 NA
ATOM     10  C   UNL     1     -11.663  13.331  68.311  0.00  0.00    +0.225 A 
ATOM     11  N   UNL     1     -11.835  13.556  66.910  0.00  0.00    -0.275 N 
ATOM     12  C   UNL     1     -11.413  14.827  66.345  0.00  0.00    +0.115 C 
ATOM     13  C   UNL     1     -11.914  12.431  66.002  0.00  0.00    +0.115 C 
ATOM     14  N   UNL     1     -11.259  12.134  68.803  0.00  0.00    -0.181 NA
ATOM     15  C   UNL     1     -12.301   9.811  71.470  0.00  0.00    +0.115 C 
ENDROOT
TORSDOF 0
ENDMDL
MODEL 7
REMARK VINA RESULT:      -5.2      2.625      6.330
REMARK  Name = 
REMARK  0 active torsions:
REMARK  status: ('A' for Active; 'I' for Inactive)
REMARK                            x       y       z     vdW  Elec       q    Type
REMARK                         _______ _______ _______ _____ _____    ______ ____
ROOT
ATOM      1  C   UNL     1     -12.305  15.940  71.200  0.00  0.00    +0.115 C 
ATOM      2  N   UNL     1     -12.286  14.933  70.164  0.00  0.00    -0.275 N 
ATOM      3  C   UNL     1     -11.712  15.294  68.906  0.00  0.00    +0.225 A 
ATOM      4  N   UNL     1     -11.441  14.356  67.966  0.00  0.00    -0.181 NA
ATOM      5  C   UNL     1     -11.098  14.753  66.717  0.00  0.00    +0.225 A 
ATOM      6  N   UNL     1     -11.476  13.891  65.637  0.00  0.00    -0.275 N 
ATOM      7  C   UNL     1     -12.303  14.452  64.589  0.00  0.00    +0.115 C 
ATOM      8  C   UNL     1     -11.573  12.458  65.893  0.00  0.00    +0.115 C 
ATOM      9  N   UNL     1     -10.796  16.052  66.475  0.00  0.00    -0.181 NA
ATOM     10  C   UNL     1     -10.578  16.855  67.535  0.00  0.00    +0.225 A 
ATOM     11  N   UNL     1      -9.603  17.901  67.518  0.00  0.00    -0.275 N 
ATOM     12  C   UNL     1      -9.508  18.755  66.346  0.00  0.00    +0.115 C 
ATOM     13  C   UNL     1      -9.104  18.443  68.765  0.00  0.00    +0.115 C 
ATOM     14  N   UNL     1     -11.291  16.555  68.648  0.00  0.00    -0.181 NA
ATOM     15  C   UNL     1     -12.199  13.528  70.548  0.00  0.00    +0.115 C 
ENDROOT
TORSDOF 0
ENDMDL
MODEL 8
REMARK VINA RESULT:      -5.1      1.432      4.221
REMARK  Name = 
REMARK  0 active torsions:
REMARK  status: ('A' for Active; 'I' for Inactive)
REMARK                            x       y       z     vdW  Elec       q    Type
REMARK                         _______ _______ _______ _____ _____    ______ ____
ROOT
ATOM      1  C   UNL     1     -10.986   9.978  68.447  0.00  0.00    +0.115 C 
ATOM      2  N   UNL     1     -11.280  11.089  69.323  0.00  0.00    -0.275 N 
ATOM      3  C   UNL     1     -11.505  12.363  68.717  0.00  0.00    +0.225 A 
ATOM      4  N   UNL     1     -12.013  13.397  69.431  0.00  0.00    -0.181 NA
ATOM      5  C   UNL     1     -12.014  14.638  68.886  0.00  0.00    +0.225 A 
ATOM      6  N   UNL     1     -11.884  15.741  69.789  0.00  0.00    -0.275 N 
ATOM      7  C   UNL     1     -10.782  16.656  69.577  0.00  0.00    +0.115 C 
ATOM      8  C   UNL     1     -12.400  15.594  71.147  0.00  0.00    +0.115 C 
ATOM      9  N   UNL     1     -11.740  14.803  67.569  0.00  0.00    -0.181 NA
ATOM     10  C   UNL     1     -11.745  13.708  66.783  0.00  0.00    +0.225 A 
ATOM     11  N   UNL     1     -12.211  13.734  65.431  0.00  0.00    -0.275 N 
ATOM     12  C   UNL     1     -11.814  14.837  64.573  0.00  0.00    +0.115 C 
ATOM     13  C   UNL     1     -12.598  12.502  64.777  0.00  0.00    +0.115 C 
ATOM     14  N   UNL     1     -11.352  12.558  67.386  0.00  0.00    -0.181 NA
ATOM     15  C   UNL     1     -11.967  10.829  70.584  0.00  0.00    +0.115 C 
ENDROOT
TORSDOF 0
ENDMDL
MODEL 9
REMARK VINA RESULT:      -5.1      2.167      4.719
REMARK  Name = 
REMARK  0 active torsions:
REMARK  status: ('A' for Active; 'I' for Inactive)
REMARK                            x       y       z     vdW  Elec       q    Type
REMARK                         _______ _______ _______ _____ _____    ______ ____
ROOT
ATOM      1  C   UNL     1      -9.744  17.859  68.606  0.00  0.00    +0.115 C 
ATOM      2  N   UNL     1     -10.099  16.962  67.531  0.00  0.00    -0.275 N 
ATOM      3  C   UNL     1     -10.814  15.774  67.873  0.00  0.00    +0.225 A 
ATOM      4  N   UNL     1     -11.387  15.002  66.917  0.00  0.00    -0.181 NA
ATOM      5  C   UNL     1     -11.870  13.782  67.255  0.00  0.00    +0.225 A 
ATOM      6  N   UNL     1     -11.823  12.766  66.248  0.00  0.00    -0.275 N 
ATOM      7  C   UNL     1     -11.109  11.545  66.559  0.00  0.00    +0.115 C 
ATOM      8  C   UNL     1     -11.913  13.168  64.848  0.00  0.00    +0.115 C 
ATOM      9  N   UNL     1     -11.998  13.440  68.560  0.00  0.00    -0.181 NA
ATOM     10  C   UNL     1     -11.902  14.419  69.481  0.00  0.00    +0.225 A 
ATOM     11  N   UNL     1     -12.687  14.430  70.676  0.00  0.00    -0.275 N 
ATOM     12  C   UNL     1     -12.844  13.195  71.426  0.00  0.00    +0.115 C 
ATOM     13  C   UNL     1     -12.873  15.666  71.406  0.00  0.00    +0.115 C 
ATOM     14  N   UNL     1     -11.067  15.438  69.160  0.00  0.00    -0.181 NA
ATOM     15  C   UNL     1     -10.342  17.517  66.202  0.00  0.00    +0.115 C 
ENDROOT
TORSDOF 0
ENDMDL
