MODEL 1
REMARK VINA RESULT:      -8.5      0.000      0.000
REMARK  Name = 
REMARK  6 active torsions:
REMARK  status: ('A' for Active; 'I' for Inactive)
REMARK    1  A    between atoms: C_2  and  N_3
REMARK    2  A    between atoms: N_6  and  C_7
REMARK    3  A    between atoms: C_7  and  C_8
REMARK    4  A    between atoms: C_11  and  N_12
REMARK    5  A    between atoms: C_18  and  C_19
REMARK    6  A    between atoms: N_26  and  C_27
REMARK                            x       y       z     vdW  Elec       q    Type
REMARK                         _______ _______ _______ _____ _____    ______ ____
ROOT
ATOM      1  N   UNL     1     -11.647  11.391  66.574  0.00  0.00    -0.159 NA
ATOM      2  C   UNL     1     -11.641  11.792  67.943  0.00  0.00    +0.242 A 
ATOM      3  N   UNL     1     -11.963  10.872  68.859  0.00  0.00    -0.210 NA
ATOM      4  C   UNL     1     -12.390  11.179  70.110  0.00  0.00    +0.113 A 
ATOM      5  C   UNL     1     -12.123  12.471  70.541  0.00  0.00    +0.177 A 
ATOM      6  F   UNL     1     -12.869  12.900  71.598  0.00  0.00    -0.201 F 
ATOM      7  C   UNL     1     -11.773  13.417  69.588  0.00  0.00    +0.133 A 
ATOM      8  N   UNL     1     -11.437  13.054  68.330  0.00  0.00    -0.208 NA
ENDROOT
BRANCH   4   9
ATOM      9  C   UNL     1     -12.381  10.136  71.143  0.00  0.00    +0.024 A 
ATOM     10  C   UNL     1     -13.558   9.508  71.522  0.00  0.00    +0.033 A 
ATOM     11  C   UNL     1     -13.588   8.203  71.990  0.00  0.00    +0.159 A 
ATOM     12  F   UNL     1     -14.764   7.549  72.186  0.00  0.00    -0.203 F 
ATOM     13  C   UNL     1     -12.454   7.426  71.775  0.00  0.00    +0.126 A 
ATOM     14  N   UNL     1     -12.200   6.108  71.689  0.00  0.00    -0.229 NA
ATOM     15  C   UNL     1     -10.856   5.983  71.563  0.00  0.00    +0.121 A 
ATOM     16  N   UNL     1     -10.305   7.171  71.908  0.00  0.00    -0.317 N 
ATOM     17  C   UNL     1     -10.093   4.807  71.044  0.00  0.00    +0.072 C 
ATOM     18  C   UNL     1     -11.257   8.131  71.803  0.00  0.00    +0.081 A 
ATOM     19  C   UNL     1     -11.212   9.494  71.533  0.00  0.00    +0.020 A 
BRANCH  16  20
ATOM     20  C   UNL     1      -8.945   7.411  72.359  0.00  0.00    +0.087 C 
ATOM     21  C   UNL     1      -8.228   8.423  71.510  0.00  0.00    +0.025 C 
ATOM     22  C   UNL     1      -9.001   7.958  73.781  0.00  0.00    +0.025 C 
ENDBRANCH  16  20
ENDBRANCH   4   9
BRANCH   1  26
ATOM     23  C   UNL     1     -11.137  15.081  65.043  0.00  0.00    +0.013 A 
ATOM     24  C   UNL     1     -10.176  14.129  64.745  0.00  0.00    +0.097 A 
ATOM     25  N   UNL     1     -10.434  12.834  65.028  0.00  0.00    -0.228 NA
ATOM     26  C   UNL     1     -11.600  12.430  65.587  0.00  0.00    +0.155 A 
ATOM     27  C   UNL     1     -12.651  13.333  65.498  0.00  0.00    +0.036 A 
ATOM     28  C   UNL     1     -12.450  14.633  65.055  0.00  0.00    +0.002 A 
BRANCH  23  29
ATOM     29  C   UNL     1     -10.811  16.521  65.229  0.00  0.00    +0.101 C 
BRANCH  29  33
ATOM     30  N   UNL     1      -8.215  17.580  68.154  0.00  0.00    -0.270 NA
ATOM     31  C   UNL     1      -7.874  17.738  66.755  0.00  0.00    +0.090 C 
ATOM     32  C   UNL     1      -8.627  16.667  65.998  0.00  0.00    +0.090 C 
ATOM     33  N   UNL     1     -10.014  16.586  66.453  0.00  0.00    -0.266 NA
ATOM     34  C   UNL     1     -10.388  17.843  67.098  0.00  0.00    +0.090 C 
ATOM     35  C   UNL     1      -9.561  18.054  68.357  0.00  0.00    +0.090 C 
BRANCH  30  37
ATOM     36  C   UNL     1      -7.049  19.631  68.559  0.00  0.00    +0.019 C 
ATOM     37  C   UNL     1      -7.246  18.211  69.011  0.00  0.00    +0.072 C 
ENDBRANCH  30  37
ENDBRANCH  29  33
ENDBRANCH  23  29
ENDBRANCH   1  26
TORSDOF 6
ENDMDL
MODEL 2
REMARK VINA RESULT:      -7.9      2.788      4.797
REMARK  Name = 
REMARK  6 active torsions:
REMARK  status: ('A' for Active; 'I' for Inactive)
REMARK    1  A    between atoms: C_2  and  N_3
REMARK    2  A    between atoms: N_6  and  C_7
REMARK    3  A    between atoms: C_7  and  C_8
REMARK    4  A    between atoms: C_11  and  N_12
REMARK    5  A    between atoms: C_18  and  C_19
REMARK    6  A    between atoms: N_26  and  C_27
REMARK                            x       y       z     vdW  Elec       q    Type
REMARK                         _______ _______ _______ _____ _____    ______ ____
ROOT
ATOM      1  N   UNL     1      -9.946  15.524  67.540  0.00  0.00    -0.159 NA
ATOM      2  C   UNL     1     -10.777  14.575  66.872  0.00  0.00    +0.242 A 
ATOM      3  N   UNL     1     -10.630  13.287  67.199  0.00  0.00    -0.210 NA
ATOM      4  C   UNL     1     -11.026  12.263  66.402  0.00  0.00    +0.113 A 
ATOM      5  C   UNL     1     -11.934  12.590  65.403  0.00  0.00    +0.177 A 
ATOM      6  F   UNL     1     -12.030  11.689  64.385  0.00  0.00    -0.201 F 
ATOM      7  C   UNL     1     -12.094  13.929  65.080  0.00  0.00    +0.133 A 
ATOM      8  N   UNL     1     -11.601  14.906  65.875  0.00  0.00    -0.208 NA
ENDROOT
BRANCH   4   9
ATOM      9  C   UNL     1     -11.151  10.917  66.976  0.00  0.00    +0.024 A 
ATOM     10  C   UNL     1     -10.581   9.824  66.343  0.00  0.00    +0.033 A 
ATOM     11  C   UNL     1     -10.138   8.708  67.038  0.00  0.00    +0.159 A 
ATOM     12  F   UNL     1      -9.424   7.730  66.421  0.00  0.00    -0.203 F 
ATOM     13  C   UNL     1      -9.988   8.838  68.415  0.00  0.00    +0.126 A 
ATOM     14  N   UNL     1      -9.259   8.217  69.360  0.00  0.00    -0.229 NA
ATOM     15  C   UNL     1      -9.636   8.750  70.547  0.00  0.00    +0.121 A 
ATOM     16  N   UNL     1     -10.794   9.421  70.340  0.00  0.00    -0.317 N 
ATOM     17  C   UNL     1      -8.889   8.716  71.842  0.00  0.00    +0.072 C 
ATOM     18  C   UNL     1     -10.899   9.697  69.017  0.00  0.00    +0.081 A 
ATOM     19  C   UNL     1     -11.521  10.713  68.300  0.00  0.00    +0.020 A 
BRANCH  16  20
ATOM     20  C   UNL     1     -11.798   9.769  71.332  0.00  0.00    +0.087 C 
ATOM     21  C   UNL     1     -12.501  11.058  71.012  0.00  0.00    +0.025 C 
ATOM     22  C   UNL     1     -12.848   8.664  71.358  0.00  0.00    +0.025 C 
ENDBRANCH  16  20
ENDBRANCH   4   9
BRANCH   1  26
ATOM     23  C   UNL     1      -8.769  19.351  67.100  0.00  0.00    +0.013 A 
ATOM     24  C   UNL     1      -8.345  18.441  66.146  0.00  0.00    +0.097 A 
ATOM     25  N   UNL     1      -8.913  17.215  66.119  0.00  0.00    -0.228 NA
ATOM     26  C   UNL     1      -9.886  16.846  66.986  0.00  0.00    +0.155 A 
ATOM     27  C   UNL     1     -10.536  17.887  67.636  0.00  0.00    +0.036 A 
ATOM     28  C   UNL     1     -10.071  19.192  67.554  0.00  0.00    +0.002 A 
BRANCH  23  29
ATOM     29  C   UNL     1      -7.935  20.502  67.538  0.00  0.00    +0.101 C 
BRANCH  29  33
ATOM     30  N   UNL     1      -4.520  19.687  69.559  0.00  0.00    -0.270 NA
ATOM     31  C   UNL     1      -4.921  21.051  69.284  0.00  0.00    +0.090 C 
ATOM     32  C   UNL     1      -5.722  21.021  68.002  0.00  0.00    +0.090 C 
ATOM     33  N   UNL     1      -6.682  19.919  68.014  0.00  0.00    -0.266 NA
ATOM     34  C   UNL     1      -6.938  19.513  69.395  0.00  0.00    +0.090 C 
ATOM     35  C   UNL     1      -5.670  18.951  70.021  0.00  0.00    +0.090 C 
BRANCH  30  37
ATOM     36  C   UNL     1      -3.692  20.514  71.647  0.00  0.00    +0.019 C 
ATOM     37  C   UNL     1      -3.401  19.635  70.464  0.00  0.00    +0.072 C 
ENDBRANCH  30  37
ENDBRANCH  29  33
ENDBRANCH  23  29
ENDBRANCH   1  26
TORSDOF 6
ENDMDL
MODEL 3
REMARK VINA RESULT:      -7.8      2.036      3.530
REMARK  Name = 
REMARK  6 active torsions:
REMARK  status: ('A' for Active; 'I' for Inactive)
REMARK    1  A    between atoms: C_2  and  N_3
REMARK    2  A    between atoms: N_6  and  C_7
REMARK    3  A    between atoms: C_7  and  C_8
REMARK    4  A    between atoms: C_11  and  N_12
REMARK    5  A    between atoms: C_18  and  C_19
REMARK    6  A    between atoms: N_26  and  C_27
REMARK                            x       y       z     vdW  Elec       q    Type
REMARK                         _______ _______ _______ _____ _____    ______ ____
ROOT
ATOM      1  N   UNL     1     -10.637  11.056  69.309  0.00  0.00    -0.159 NA
ATOM      2  C   UNL     1     -11.293  10.239  70.279  0.00  0.00    +0.242 A 
ATOM      3  N   UNL     1     -10.636   9.163  70.725  0.00  0.00    -0.210 NA
ATOM      4  C   UNL     1     -11.249   8.102  71.308  0.00  0.00    +0.113 A 
ATOM      5  C   UNL     1     -12.537   8.327  71.773  0.00  0.00    +0.177 A 
ATOM      6  F   UNL     1     -13.283   7.207  71.991  0.00  0.00    -0.201 F 
ATOM      7  C   UNL     1     -13.206   9.454  71.319  0.00  0.00    +0.133 A 
ATOM      8  N   UNL     1     -12.553  10.443  70.668  0.00  0.00    -0.208 NA
ENDROOT
BRANCH   4   9
ATOM      9  C   UNL     1     -10.442   7.144  72.074  0.00  0.00    +0.024 A 
ATOM     10  C   UNL     1     -10.351   7.243  73.455  0.00  0.00    +0.033 A 
ATOM     11  C   UNL     1     -10.149   6.138  74.269  0.00  0.00    +0.159 A 
ATOM     12  F   UNL     1     -10.242   6.232  75.622  0.00  0.00    -0.203 F 
ATOM     13  C   UNL     1     -10.355   4.886  73.699  0.00  0.00    +0.126 A 
ATOM     14  N   UNL     1     -10.658   3.660  74.167  0.00  0.00    -0.229 NA
ATOM     15  C   UNL     1     -10.624   2.824  73.101  0.00  0.00    +0.121 A 
ATOM     16  N   UNL     1      -9.987   3.473  72.097  0.00  0.00    -0.317 N 
ATOM     17  C   UNL     1     -11.252   1.472  72.981  0.00  0.00    +0.072 C 
ATOM     18  C   UNL     1     -10.033   4.804  72.350  0.00  0.00    +0.081 A 
ATOM     19  C   UNL     1     -10.029   5.930  71.536  0.00  0.00    +0.020 A 
BRANCH  16  20
ATOM     20  C   UNL     1      -9.321   2.879  70.951  0.00  0.00    +0.087 C 
ATOM     21  C   UNL     1      -9.641   3.590  69.667  0.00  0.00    +0.025 C 
ATOM     22  C   UNL     1      -7.815   2.975  71.169  0.00  0.00    +0.025 C 
ENDBRANCH  16  20
ENDBRANCH   4   9
BRANCH   1  26
ATOM     23  C   UNL     1     -11.520  14.126  66.857  0.00  0.00    +0.013 A 
ATOM     24  C   UNL     1     -11.878  12.856  66.440  0.00  0.00    +0.097 A 
ATOM     25  N   UNL     1     -11.825  11.840  67.329  0.00  0.00    -0.228 NA
ATOM     26  C   UNL     1     -11.441  12.021  68.616  0.00  0.00    +0.155 A 
ATOM     27  C   UNL     1     -11.480  13.331  69.075  0.00  0.00    +0.036 A 
ATOM     28  C   UNL     1     -11.694  14.393  68.208  0.00  0.00    +0.002 A 
BRANCH  23  29
ATOM     29  C   UNL     1     -11.083  15.189  65.911  0.00  0.00    +0.101 C 
BRANCH  29  33
ATOM     30  N   UNL     1      -8.311  17.870  67.153  0.00  0.00    -0.270 NA
ATOM     31  C   UNL     1      -7.994  16.873  66.152  0.00  0.00    +0.090 C 
ATOM     32  C   UNL     1      -8.875  15.677  66.432  0.00  0.00    +0.090 C 
ATOM     33  N   UNL     1     -10.250  16.095  66.701  0.00  0.00    -0.266 NA
ATOM     34  C   UNL     1     -10.472  17.425  66.136  0.00  0.00    +0.090 C 
ATOM     35  C   UNL     1      -9.594  18.448  66.839  0.00  0.00    +0.090 C 
BRANCH  30  37
ATOM     36  C   UNL     1      -7.095  19.190  68.738  0.00  0.00    +0.019 C 
ATOM     37  C   UNL     1      -7.257  18.843  67.285  0.00  0.00    +0.072 C 
ENDBRANCH  30  37
ENDBRANCH  29  33
ENDBRANCH  23  29
ENDBRANCH   1  26
TORSDOF 6
ENDMDL
MODEL 4
REMARK VINA RESULT:      -7.8      4.148      6.182
REMARK  Name = 
REMARK  6 active torsions:
REMARK  status: ('A' for Active; 'I' for Inactive)
REMARK    1  A    between atoms: C_2  and  N_3
REMARK    2  A    between atoms: N_6  and  C_7
REMARK    3  A    between atoms: C_7  and  C_8
REMARK    4  A    between atoms: C_11  and  N_12
REMARK    5  A    between atoms: C_18  and  C_19
REMARK    6  A    between atoms: N_26  and  C_27
REMARK                            x       y       z     vdW  Elec       q    Type
REMARK                         _______ _______ _______ _____ _____    ______ ____
ROOT
ATOM      1  N   UNL     1      -9.710  15.012  66.470  0.00  0.00    -0.159 NA
ATOM      2  C   UNL     1     -10.646  14.064  65.956  0.00  0.00    +0.242 A 
ATOM      3  N   UNL     1     -10.156  12.947  65.407  0.00  0.00    -0.210 NA
ATOM      4  C   UNL     1     -10.854  12.172  64.539  0.00  0.00    +0.113 A 
ATOM      5  C   UNL     1     -12.229  12.364  64.527  0.00  0.00    +0.177 A 
ATOM      6  F   UNL     1     -12.874  11.896  63.421  0.00  0.00    -0.201 F 
ATOM      7  C   UNL     1     -12.731  13.517  65.113  0.00  0.00    +0.133 A 
ATOM      8  N   UNL     1     -11.959  14.296  65.903  0.00  0.00    -0.208 NA
ENDROOT
BRANCH   4   9
ATOM      9  C   UNL     1     -10.388  10.806  64.268  0.00  0.00    +0.024 A 
ATOM     10  C   UNL     1      -9.867  10.472  63.026  0.00  0.00    +0.033 A 
ATOM     11  C   UNL     1      -8.912   9.480  62.862  0.00  0.00    +0.159 A 
ATOM     12  F   UNL     1      -8.288   9.292  61.669  0.00  0.00    -0.203 F 
ATOM     13  C   UNL     1      -8.253   9.040  64.005  0.00  0.00    +0.126 A 
ATOM     14  N   UNL     1      -7.070   8.450  64.260  0.00  0.00    -0.229 NA
ATOM     15  C   UNL     1      -7.053   8.183  65.588  0.00  0.00    +0.121 A 
ATOM     16  N   UNL     1      -8.324   8.301  66.042  0.00  0.00    -0.317 N 
ATOM     17  C   UNL     1      -5.862   7.908  66.449  0.00  0.00    +0.072 C 
ATOM     18  C   UNL     1      -9.025   9.056  65.161  0.00  0.00    +0.081 A 
ATOM     19  C   UNL     1     -10.121   9.901  65.288  0.00  0.00    +0.020 A 
BRANCH  16  20
ATOM     20  C   UNL     1      -8.889   7.703  67.239  0.00  0.00    +0.087 C 
ATOM     21  C   UNL     1      -9.077   8.701  68.347  0.00  0.00    +0.025 C 
ATOM     22  C   UNL     1     -10.260   7.136  66.890  0.00  0.00    +0.025 C 
ENDBRANCH  16  20
ENDBRANCH   4   9
BRANCH   1  26
ATOM     23  C   UNL     1      -9.619  18.912  67.468  0.00  0.00    +0.013 A 
ATOM     24  C   UNL     1      -9.952  18.597  66.161  0.00  0.00    +0.097 A 
ATOM     25  N   UNL     1     -10.232  17.312  65.854  0.00  0.00    -0.228 NA
ATOM     26  C   UNL     1     -10.207  16.321  66.777  0.00  0.00    +0.155 A 
ATOM     27  C   UNL     1     -10.262  16.735  68.102  0.00  0.00    +0.036 A 
ATOM     28  C   UNL     1     -10.138  18.074  68.445  0.00  0.00    +0.002 A 
BRANCH  23  29
ATOM     29  C   UNL     1      -8.850  20.134  67.830  0.00  0.00    +0.101 C 
BRANCH  29  33
ATOM     30  N   UNL     1      -4.811  19.999  68.110  0.00  0.00    -0.270 NA
ATOM     31  C   UNL     1      -5.501  21.236  67.807  0.00  0.00    +0.090 C 
ATOM     32  C   UNL     1      -6.776  20.859  67.086  0.00  0.00    +0.090 C 
ATOM     33  N   UNL     1      -7.443  19.745  67.758  0.00  0.00    -0.266 NA
ATOM     34  C   UNL     1      -6.985  19.669  69.144  0.00  0.00    +0.090 C 
ATOM     35  C   UNL     1      -5.501  19.339  69.190  0.00  0.00    +0.090 C 
BRANCH  30  37
ATOM     36  C   UNL     1      -3.272  20.942  69.682  0.00  0.00    +0.019 C 
ATOM     37  C   UNL     1      -3.413  20.222  68.371  0.00  0.00    +0.072 C 
ENDBRANCH  30  37
ENDBRANCH  29  33
ENDBRANCH  23  29
ENDBRANCH   1  26
TORSDOF 6
ENDMDL
MODEL 5
REMARK VINA RESULT:      -7.7      2.851     10.741
REMARK  Name = 
REMARK  6 active torsions:
REMARK  status: ('A' for Active; 'I' for Inactive)
REMARK    1  A    between atoms: C_2  and  N_3
REMARK    2  A    between atoms: N_6  and  C_7
REMARK    3  A    between atoms: C_7  and  C_8
REMARK    4  A    between atoms: C_11  and  N_12
REMARK    5  A    between atoms: C_18  and  C_19
REMARK    6  A    between atoms: N_26  and  C_27
REMARK                            x       y       z     vdW  Elec       q    Type
REMARK                         _______ _______ _______ _____ _____    ______ ____
ROOT
ATOM      1  N   UNL     1     -10.052  13.292  68.608  0.00  0.00    -0.159 NA
ATOM      2  C   UNL     1     -10.113  13.942  67.339  0.00  0.00    +0.242 A 
ATOM      3  N   UNL     1      -9.768  15.234  67.289  0.00  0.00    -0.210 NA
ATOM      4  C   UNL     1     -10.148  16.072  66.293  0.00  0.00    +0.113 A 
ATOM      5  C   UNL     1     -10.590  15.464  65.126  0.00  0.00    +0.177 A 
ATOM      6  F   UNL     1     -11.323  16.258  64.296  0.00  0.00    -0.201 F 
ATOM      7  C   UNL     1     -10.931  14.120  65.180  0.00  0.00    +0.133 A 
ATOM      8  N   UNL     1     -10.596  13.354  66.242  0.00  0.00    -0.208 NA
ENDROOT
BRANCH   4   9
ATOM      9  C   UNL     1      -9.448  17.353  66.131  0.00  0.00    +0.024 A 
ATOM     10  C   UNL     1     -10.119  18.552  66.315  0.00  0.00    +0.033 A 
ATOM     11  C   UNL     1      -9.482  19.701  66.761  0.00  0.00    +0.159 A 
ATOM     12  F   UNL     1     -10.187  20.811  67.104  0.00  0.00    -0.203 F 
ATOM     13  C   UNL     1      -8.218  19.548  67.321  0.00  0.00    +0.126 A 
ATOM     14  N   UNL     1      -7.464  20.251  68.186  0.00  0.00    -0.229 NA
ATOM     15  C   UNL     1      -6.269  19.616  68.258  0.00  0.00    +0.121 A 
ATOM     16  N   UNL     1      -6.202  18.761  67.209  0.00  0.00    -0.317 N 
ATOM     17  C   UNL     1      -5.237  19.732  69.332  0.00  0.00    +0.072 C 
ATOM     18  C   UNL     1      -7.461  18.521  66.770  0.00  0.00    +0.081 A 
ATOM     19  C   UNL     1      -8.061  17.441  66.133  0.00  0.00    +0.020 A 
BRANCH  16  20
ATOM     20  C   UNL     1      -5.003  18.207  66.603  0.00  0.00    +0.087 C 
ATOM     21  C   UNL     1      -4.808  16.756  66.936  0.00  0.00    +0.025 C 
ATOM     22  C   UNL     1      -5.137  18.319  65.088  0.00  0.00    +0.025 C 
ENDBRANCH  16  20
ENDBRANCH   4   9
BRANCH   1  26
ATOM     23  C   UNL     1     -11.567  10.004  70.372  0.00  0.00    +0.013 A 
ATOM     24  C   UNL     1     -12.467  10.924  69.861  0.00  0.00    +0.097 A 
ATOM     25  N   UNL     1     -12.007  11.904  69.054  0.00  0.00    -0.228 NA
ATOM     26  C   UNL     1     -10.699  12.016  68.720  0.00  0.00    +0.155 A 
ATOM     27  C   UNL     1      -9.929  10.878  68.920  0.00  0.00    +0.036 A 
ATOM     28  C   UNL     1     -10.429   9.782  69.611  0.00  0.00    +0.002 A 
BRANCH  23  29
ATOM     29  C   UNL     1     -11.841   9.208  71.599  0.00  0.00    +0.101 C 
BRANCH  29  33
ATOM     30  N   UNL     1     -10.011   5.638  72.164  0.00  0.00    -0.270 NA
ATOM     31  C   UNL     1     -10.511   6.409  73.283  0.00  0.00    +0.090 C 
ATOM     32  C   UNL     1     -10.445   7.864  72.875  0.00  0.00    +0.090 C 
ATOM     33  N   UNL     1     -10.956   8.047  71.518  0.00  0.00    -0.266 NA
ATOM     34  C   UNL     1     -11.817   6.921  71.166  0.00  0.00    +0.090 C 
ATOM     35  C   UNL     1     -11.008   5.634  71.123  0.00  0.00    +0.090 C 
BRANCH  30  37
ATOM     36  C   UNL     1     -10.752   3.633  73.241  0.00  0.00    +0.019 C 
ATOM     37  C   UNL     1      -9.596   4.321  72.571  0.00  0.00    +0.072 C 
ENDBRANCH  30  37
ENDBRANCH  29  33
ENDBRANCH  23  29
ENDBRANCH   1  26
TORSDOF 6
ENDMDL
MODEL 6
REMARK VINA RESULT:      -7.6      1.838      3.012
REMARK  Name = 
REMARK  6 active torsions:
REMARK  status: ('A' for Active; 'I' for Inactive)
REMARK    1  A    between atoms: C_2  and  N_3
REMARK    2  A    between atoms: N_6  and  C_7
REMARK    3  A    between atoms: C_7  and  C_8
REMARK    4  A    between atoms: C_11  and  N_12
REMARK    5  A    between atoms: C_18  and  C_19
REMARK    6  A    between atoms: N_26  and  C_27
REMARK                            x       y       z     vdW  Elec       q    Type
REMARK                         _______ _______ _______ _____ _____    ______ ____
ROOT
ATOM      1  N   UNL     1     -11.010  11.272  68.848  0.00  0.00    -0.159 NA
ATOM      2  C   UNL     1     -11.568  10.779  70.065  0.00  0.00    +0.242 A 
ATOM      3  N   UNL     1     -11.276   9.521  70.413  0.00  0.00    -0.210 NA
ATOM      4  C   UNL     1     -12.021   8.793  71.283  0.00  0.00    +0.113 A 
ATOM      5  C   UNL     1     -12.884   9.517  72.094  0.00  0.00    +0.177 A 
ATOM      6  F   UNL     1     -13.888   8.796  72.668  0.00  0.00    -0.201 F 
ATOM      7  C   UNL     1     -13.170  10.827  71.737  0.00  0.00    +0.133 A 
ATOM      8  N   UNL     1     -12.441  11.473  70.799  0.00  0.00    -0.208 NA
ENDROOT
BRANCH   4   9
ATOM      9  C   UNL     1     -11.447   7.576  71.871  0.00  0.00    +0.024 A 
ATOM     10  C   UNL     1     -11.438   6.385  71.159  0.00  0.00    +0.033 A 
ATOM     11  C   UNL     1     -10.461   5.418  71.341  0.00  0.00    +0.159 A 
ATOM     12  F   UNL     1     -10.369   4.344  70.512  0.00  0.00    -0.203 F 
ATOM     13  C   UNL     1      -9.311   5.799  72.023  0.00  0.00    +0.126 A 
ATOM     14  N   UNL     1      -8.038   5.364  72.070  0.00  0.00    -0.229 NA
ATOM     15  C   UNL     1      -7.414   6.106  73.017  0.00  0.00    +0.121 A 
ATOM     16  N   UNL     1      -8.373   6.725  73.744  0.00  0.00    -0.317 N 
ATOM     17  C   UNL     1      -5.943   6.312  73.192  0.00  0.00    +0.072 C 
ATOM     18  C   UNL     1      -9.514   6.753  73.013  0.00  0.00    +0.081 A 
ATOM     19  C   UNL     1     -10.602   7.617  72.973  0.00  0.00    +0.020 A 
BRANCH  16  20
ATOM     20  C   UNL     1      -8.253   7.247  75.095  0.00  0.00    +0.087 C 
ATOM     21  C   UNL     1      -7.587   6.278  76.029  0.00  0.00    +0.025 C 
ATOM     22  C   UNL     1      -7.395   8.506  75.046  0.00  0.00    +0.025 C 
ENDBRANCH  16  20
ENDBRANCH   4   9
BRANCH   1  26
ATOM     23  C   UNL     1     -11.170  14.706  66.749  0.00  0.00    +0.013 A 
ATOM     24  C   UNL     1     -11.922  13.640  66.284  0.00  0.00    +0.097 A 
ATOM     25  N   UNL     1     -12.089  12.565  67.084  0.00  0.00    -0.228 NA
ATOM     26  C   UNL     1     -11.555  12.493  68.327  0.00  0.00    +0.155 A 
ATOM     27  C   UNL     1     -11.166  13.704  68.883  0.00  0.00    +0.036 A 
ATOM     28  C   UNL     1     -11.136  14.868  68.127  0.00  0.00    +0.002 A 
BRANCH  23  29
ATOM     29  C   UNL     1     -10.528  15.694  65.841  0.00  0.00    +0.101 C 
BRANCH  29  33
ATOM     30  N   UNL     1      -8.240  18.680  67.345  0.00  0.00    -0.270 NA
ATOM     31  C   UNL     1      -7.777  17.863  66.243  0.00  0.00    +0.090 C 
ATOM     32  C   UNL     1      -8.429  16.507  66.399  0.00  0.00    +0.090 C 
ATOM     33  N   UNL     1      -9.848  16.647  66.717  0.00  0.00    -0.266 NA
ATOM     34  C   UNL     1     -10.313  17.967  66.297  0.00  0.00    +0.090 C 
ATOM     35  C   UNL     1      -9.611  19.051  67.100  0.00  0.00    +0.090 C 
BRANCH  30  37
ATOM     36  C   UNL     1      -6.774  19.686  68.948  0.00  0.00    +0.019 C 
ATOM     37  C   UNL     1      -7.370  19.804  67.574  0.00  0.00    +0.072 C 
ENDBRANCH  30  37
ENDBRANCH  29  33
ENDBRANCH  23  29
ENDBRANCH   1  26
TORSDOF 6
ENDMDL
MODEL 7
REMARK VINA RESULT:      -7.5      1.840      3.069
REMARK  Name = 
REMARK  6 active torsions:
REMARK  status: ('A' for Active; 'I' for Inactive)
REMARK    1  A    between atoms: C_2  and  N_3
REMARK    2  A    between atoms: N_6  and  C_7
REMARK    3  A    between atoms: C_7  and  C_8
REMARK    4  A    between atoms: C_11  and  N_12
REMARK    5  A    between atoms: C_18  and  C_19
REMARK    6  A    between atoms: N_26  and  C_27
REMARK                            x       y       z     vdW  Elec       q    Type
REMARK                         _______ _______ _______ _____ _____    ______ ____
ROOT
ATOM      1  N   UNL     1     -10.129  14.930  68.537  0.00  0.00    -0.159 NA
ATOM      2  C   UNL     1     -10.752  13.670  68.283  0.00  0.00    +0.242 A 
ATOM      3  N   UNL     1     -10.745  12.767  69.269  0.00  0.00    -0.210 NA
ATOM      4  C   UNL     1     -10.916  11.437  69.067  0.00  0.00    +0.113 A 
ATOM      5  C   UNL     1     -11.476  11.077  67.849  0.00  0.00    +0.177 A 
ATOM      6  F   UNL     1     -11.292   9.777  67.482  0.00  0.00    -0.201 F 
ATOM      7  C   UNL     1     -11.495  12.024  66.835  0.00  0.00    +0.133 A 
ATOM      8  N   UNL     1     -11.233  13.326  67.086  0.00  0.00    -0.208 NA
ENDROOT
BRANCH   4   9
ATOM      9  C   UNL     1     -11.244  10.577  70.211  0.00  0.00    +0.024 A 
ATOM     10  C   UNL     1     -12.566  10.330  70.551  0.00  0.00    +0.033 A 
ATOM     11  C   UNL     1     -12.969   9.152  71.162  0.00  0.00    +0.159 A 
ATOM     12  F   UNL     1     -14.286   8.856  71.324  0.00  0.00    -0.203 F 
ATOM     13  C   UNL     1     -12.073   8.088  71.142  0.00  0.00    +0.126 A 
ATOM     14  N   UNL     1     -12.176   6.749  71.232  0.00  0.00    -0.229 NA
ATOM     15  C   UNL     1     -10.909   6.268  71.243  0.00  0.00    +0.121 A 
ATOM     16  N   UNL     1     -10.082   7.309  71.498  0.00  0.00    -0.317 N 
ATOM     17  C   UNL     1     -10.460   4.876  70.935  0.00  0.00    +0.072 C 
ATOM     18  C   UNL     1     -10.735   8.458  71.197  0.00  0.00    +0.081 A 
ATOM     19  C   UNL     1     -10.313   9.714  70.776  0.00  0.00    +0.020 A 
BRANCH  16  20
ATOM     20  C   UNL     1      -8.735   7.250  72.039  0.00  0.00    +0.087 C 
ATOM     21  C   UNL     1      -7.707   7.787  71.085  0.00  0.00    +0.025 C 
ATOM     22  C   UNL     1      -8.687   8.106  73.300  0.00  0.00    +0.025 C 
ENDBRANCH  16  20
ENDBRANCH   4   9
BRANCH   1  26
ATOM     23  C   UNL     1      -8.735  18.084  66.457  0.00  0.00    +0.013 A 
ATOM     24  C   UNL     1      -8.100  16.868  66.271  0.00  0.00    +0.097 A 
ATOM     25  N   UNL     1      -8.684  15.749  66.752  0.00  0.00    -0.228 NA
ATOM     26  C   UNL     1      -9.871  15.772  67.405  0.00  0.00    +0.155 A 
ATOM     27  C   UNL     1     -10.635  16.916  67.219  0.00  0.00    +0.036 A 
ATOM     28  C   UNL     1     -10.117  18.034  66.581  0.00  0.00    +0.002 A 
BRANCH  23  29
ATOM     29  C   UNL     1      -8.011  19.383  66.415  0.00  0.00    +0.101 C 
BRANCH  29  33
ATOM     30  N   UNL     1      -5.207  20.069  69.256  0.00  0.00    -0.270 NA
ATOM     31  C   UNL     1      -5.496  21.055  68.235  0.00  0.00    +0.090 C 
ATOM     32  C   UNL     1      -5.964  20.294  67.015  0.00  0.00    +0.090 C 
ATOM     33  N   UNL     1      -6.925  19.257  67.385  0.00  0.00    -0.266 NA
ATOM     34  C   UNL     1      -7.517  19.584  68.681  0.00  0.00    +0.090 C 
ATOM     35  C   UNL     1      -6.452  19.554  69.767  0.00  0.00    +0.090 C 
BRANCH  30  37
ATOM     36  C   UNL     1      -4.976  20.374  71.620  0.00  0.00    +0.019 C 
ATOM     37  C   UNL     1      -4.342  20.602  70.277  0.00  0.00    +0.072 C 
ENDBRANCH  30  37
ENDBRANCH  29  33
ENDBRANCH  23  29
ENDBRANCH   1  26
TORSDOF 6
ENDMDL
MODEL 8
REMARK VINA RESULT:      -7.5      2.900     10.879
REMARK  Name = 
REMARK  6 active torsions:
REMARK  status: ('A' for Active; 'I' for Inactive)
REMARK    1  A    between atoms: C_2  and  N_3
REMARK    2  A    between atoms: N_6  and  C_7
REMARK    3  A    between atoms: C_7  and  C_8
REMARK    4  A    between atoms: C_11  and  N_12
REMARK    5  A    between atoms: C_18  and  C_19
REMARK    6  A    between atoms: N_26  and  C_27
REMARK                            x       y       z     vdW  Elec       q    Type
REMARK                         _______ _______ _______ _____ _____    ______ ____
ROOT
ATOM      1  N   UNL     1     -10.680  13.288  66.136  0.00  0.00    -0.159 NA
ATOM      2  C   UNL     1     -10.285  14.342  67.013  0.00  0.00    +0.242 A 
ATOM      3  N   UNL     1      -9.769  15.446  66.460  0.00  0.00    -0.210 NA
ATOM      4  C   UNL     1      -8.996  16.331  67.138  0.00  0.00    +0.113 A 
ATOM      5  C   UNL     1      -9.066  16.260  68.522  0.00  0.00    +0.177 A 
ATOM      6  F   UNL     1      -8.034  16.850  69.190  0.00  0.00    -0.201 F 
ATOM      7  C   UNL     1      -9.617  15.120  69.089  0.00  0.00    +0.133 A 
ATOM      8  N   UNL     1     -10.307  14.229  68.343  0.00  0.00    -0.208 NA
ENDROOT
BRANCH   4   9
ATOM      9  C   UNL     1      -8.772  17.666  66.568  0.00  0.00    +0.024 A 
ATOM     10  C   UNL     1      -9.566  18.738  66.949  0.00  0.00    +0.033 A 
ATOM     11  C   UNL     1      -9.099  20.044  66.955  0.00  0.00    +0.159 A 
ATOM     12  F   UNL     1      -9.831  21.052  67.498  0.00  0.00    -0.203 F 
ATOM     13  C   UNL     1      -7.723  20.226  66.873  0.00  0.00    +0.126 A 
ATOM     14  N   UNL     1      -6.863  21.198  67.229  0.00  0.00    -0.229 NA
ATOM     15  C   UNL     1      -5.642  20.813  66.785  0.00  0.00    +0.121 A 
ATOM     16  N   UNL     1      -5.833  19.809  65.896  0.00  0.00    -0.317 N 
ATOM     17  C   UNL     1      -4.307  21.306  67.243  0.00  0.00    +0.072 C 
ATOM     18  C   UNL     1      -7.057  19.270  66.115  0.00  0.00    +0.081 A 
ATOM     19  C   UNL     1      -7.590  18.001  65.918  0.00  0.00    +0.020 A 
BRANCH  16  20
ATOM     20  C   UNL     1      -4.924  19.379  64.847  0.00  0.00    +0.087 C 
ATOM     21  C   UNL     1      -4.395  17.992  65.077  0.00  0.00    +0.025 C 
ATOM     22  C   UNL     1      -5.686  19.371  63.527  0.00  0.00    +0.025 C 
ENDBRANCH  16  20
ENDBRANCH   4   9
BRANCH   1  26
ATOM     23  C   UNL     1     -10.860  10.445  68.984  0.00  0.00    +0.013 A 
ATOM     24  C   UNL     1     -12.055  11.009  68.571  0.00  0.00    +0.097 A 
ATOM     25  N   UNL     1     -12.062  11.776  67.459  0.00  0.00    -0.228 NA
ATOM     26  C   UNL     1     -10.945  12.009  66.729  0.00  0.00    +0.155 A 
ATOM     27  C   UNL     1      -9.894  11.127  66.945  0.00  0.00    +0.036 A 
ATOM     28  C   UNL     1      -9.924  10.210  67.987  0.00  0.00    +0.002 A 
BRANCH  23  29
ATOM     29  C   UNL     1     -10.621  10.005  70.385  0.00  0.00    +0.101 C 
BRANCH  29  33
ATOM     30  N   UNL     1     -10.539   6.063  71.312  0.00  0.00    -0.270 NA
ATOM     31  C   UNL     1      -9.787   7.030  72.084  0.00  0.00    +0.090 C 
ATOM     32  C   UNL     1      -9.436   8.161  71.143  0.00  0.00    +0.090 C 
ATOM     33  N   UNL     1     -10.593   8.545  70.336  0.00  0.00    -0.266 NA
ATOM     34  C   UNL     1     -11.817   8.106  71.003  0.00  0.00    +0.090 C 
ATOM     35  C   UNL     1     -11.861   6.587  71.076  0.00  0.00    +0.090 C 
BRANCH  30  37
ATOM     36  C   UNL     1     -11.266   4.860  73.250  0.00  0.00    +0.019 C 
ATOM     37  C   UNL     1     -10.537   4.767  71.939  0.00  0.00    +0.072 C 
ENDBRANCH  30  37
ENDBRANCH  29  33
ENDBRANCH  23  29
ENDBRANCH   1  26
TORSDOF 6
ENDMDL
MODEL 9
REMARK VINA RESULT:      -7.4      3.862      6.259
REMARK  Name = 
REMARK  6 active torsions:
REMARK  status: ('A' for Active; 'I' for Inactive)
REMARK    1  A    between atoms: C_2  and  N_3
REMARK    2  A    between atoms: N_6  and  C_7
REMARK    3  A    between atoms: C_7  and  C_8
REMARK    4  A    between atoms: C_11  and  N_12
REMARK    5  A    between atoms: C_18  and  C_19
REMARK    6  A    between atoms: N_26  and  C_27
REMARK                            x       y       z     vdW  Elec       q    Type
REMARK                         _______ _______ _______ _____ _____    ______ ____
ROOT
ATOM      1  N   UNL     1     -10.507  17.118  65.553  0.00  0.00    -0.159 NA
ATOM      2  C   UNL     1      -9.796  15.934  65.912  0.00  0.00    +0.242 A 
ATOM      3  N   UNL     1     -10.319  14.761  65.536  0.00  0.00    -0.210 NA
ATOM      4  C   UNL     1     -10.006  13.580  66.125  0.00  0.00    +0.113 A 
ATOM      5  C   UNL     1      -8.840  13.570  66.879  0.00  0.00    +0.177 A 
ATOM      6  F   UNL     1      -8.730  12.541  67.768  0.00  0.00    -0.201 F 
ATOM      7  C   UNL     1      -8.294  14.789  67.252  0.00  0.00    +0.133 A 
ATOM      8  N   UNL     1      -8.709  15.945  66.687  0.00  0.00    -0.208 NA
ENDROOT
BRANCH   4   9
ATOM      9  C   UNL     1     -10.343  12.327  65.436  0.00  0.00    +0.024 A 
ATOM     10  C   UNL     1     -10.136  12.195  64.071  0.00  0.00    +0.033 A 
ATOM     11  C   UNL     1      -9.856  10.974  63.476  0.00  0.00    +0.159 A 
ATOM     12  F   UNL     1      -9.483  10.895  62.171  0.00  0.00    -0.203 F 
ATOM     13  C   UNL     1      -9.473   9.933  64.314  0.00  0.00    +0.126 A 
ATOM     14  N   UNL     1      -8.769   8.796  64.167  0.00  0.00    -0.229 NA
ATOM     15  C   UNL     1      -8.831   8.149  65.357  0.00  0.00    +0.121 A 
ATOM     16  N   UNL     1      -9.825   8.721  66.077  0.00  0.00    -0.317 N 
ATOM     17  C   UNL     1      -7.923   7.073  65.859  0.00  0.00    +0.072 C 
ATOM     18  C   UNL     1     -10.065   9.956  65.572  0.00  0.00    +0.081 A 
ATOM     19  C   UNL     1     -10.543  11.137  66.126  0.00  0.00    +0.020 A 
BRANCH  16  20
ATOM     20  C   UNL     1     -10.562   8.130  67.181  0.00  0.00    +0.087 C 
ATOM     21  C   UNL     1     -10.929   6.696  66.926  0.00  0.00    +0.025 C 
ATOM     22  C   UNL     1      -9.677   8.167  68.422  0.00  0.00    +0.025 C 
ENDBRANCH  16  20
ENDBRANCH   4   9
BRANCH   1  26
ATOM     23  C   UNL     1      -8.479  19.557  68.035  0.00  0.00    +0.013 A 
ATOM     24  C   UNL     1      -8.209  19.659  66.681  0.00  0.00    +0.097 A 
ATOM     25  N   UNL     1      -9.034  19.044  65.805  0.00  0.00    -0.228 NA
ATOM     26  C   UNL     1     -10.119  18.336  66.202  0.00  0.00    +0.155 A 
ATOM     27  C   UNL     1     -10.560  18.591  67.494  0.00  0.00    +0.036 A 
ATOM     28  C   UNL     1      -9.810  19.358  68.375  0.00  0.00    +0.002 A 
BRANCH  23  29
ATOM     29  C   UNL     1      -7.439  19.759  69.080  0.00  0.00    +0.101 C 
BRANCH  29  33
ATOM     30  N   UNL     1      -4.112  17.455  68.908  0.00  0.00    -0.270 NA
ATOM     31  C   UNL     1      -4.276  18.458  69.939  0.00  0.00    +0.090 C 
ATOM     32  C   UNL     1      -5.145  19.549  69.352  0.00  0.00    +0.090 C 
ATOM     33  N   UNL     1      -6.286  18.977  68.639  0.00  0.00    -0.266 NA
ATOM     34  C   UNL     1      -6.527  17.618  69.118  0.00  0.00    +0.090 C 
ATOM     35  C   UNL     1      -5.346  16.722  68.776  0.00  0.00    +0.090 C 
BRANCH  30  37
ATOM     36  C   UNL     1      -3.315  15.636  70.245  0.00  0.00    +0.019 C 
ATOM     37  C   UNL     1      -2.968  16.617  69.161  0.00  0.00    +0.072 C 
ENDBRANCH  30  37
ENDBRANCH  29  33
ENDBRANCH  23  29
ENDBRANCH   1  26
TORSDOF 6
ENDMDL
