MODEL 1
REMARK VINA RESULT:      -6.7      0.000      0.000
REMARK  Name = 
REMARK  10 active torsions:
REMARK  status: ('A' for Active; 'I' for Inactive)
REMARK    1  A    between atoms: C_2  and  C_4
REMARK    2  A    between atoms: C_7  and  O_8
REMARK    3  A    between atoms: O_8  and  C_9
REMARK    4  A    between atoms: C_9  and  C_10
REMARK    5  A    between atoms: C_10  and  C_11
REMARK    6  A    between atoms: C_11  and  C_12
REMARK    7  A    between atoms: C_12  and  C_13
REMARK    8  A    between atoms: C_13  and  O_14
REMARK    9  A    between atoms: O_14  and  C_15
REMARK   10  A    between atoms: C_18  and  C_19
REMARK                            x       y       z     vdW  Elec       q    Type
REMARK                         _______ _______ _______ _____ _____    ______ ____
ROOT
ATOM      1  C   UNL     1     -13.512  15.369  72.517  0.00  0.00    +0.008 C 
ENDROOT
BRANCH   1   2
ATOM      2  C   UNL     1     -12.006  15.353  72.370  0.00  0.00    +0.047 C 
BRANCH   2   3
ATOM      3  C   UNL     1     -11.636  16.050  71.085  0.00  0.00    +0.205 C 
BRANCH   3   4
ATOM      4  O   UNL     1     -10.854  15.196  70.272  0.00  0.00    -0.475 OA
BRANCH   4   8
ATOM      5  C   UNL     1     -11.678  14.073  66.334  0.00  0.00    +0.098 A 
ATOM      6  C   UNL     1     -11.161  15.330  66.616  0.00  0.00    +0.011 A 
ATOM      7  C   UNL     1     -10.686  15.636  67.879  0.00  0.00    +0.037 A 
ATOM      8  C   UNL     1     -11.141  14.919  68.953  0.00  0.00    +0.139 A 
ATOM      9  C   UNL     1     -11.835  13.750  68.689  0.00  0.00    +0.037 A 
ATOM     10  C   UNL     1     -11.920  13.255  67.415  0.00  0.00    +0.011 A 
BRANCH   5  12
ATOM     11  N   UNL     1     -12.947  12.683  64.901  0.00  0.00    +0.205 NA
ATOM     12  C   UNL     1     -12.332  13.810  65.064  0.00  0.00    +0.477 C 
ATOM     13  N   UNL     1     -12.597  14.824  64.095  0.00  0.00    +0.205 NA
ENDBRANCH   5  12
ENDBRANCH   4   8
ENDBRANCH   3   4
ENDBRANCH   2   3
ENDBRANCH   1   2
BRANCH   1  14
ATOM     14  C   UNL     1     -14.140  14.059  72.133  0.00  0.00    +0.047 C 
BRANCH  14  15
ATOM     15  C   UNL     1     -13.073  13.023  71.918  0.00  0.00    +0.205 C 
BRANCH  15  16
ATOM     16  O   UNL     1     -13.480  11.716  72.254  0.00  0.00    -0.475 OA
BRANCH  16  17
ATOM     17  C   UNL     1     -12.981  10.602  71.571  0.00  0.00    +0.139 A 
ATOM     18  C   UNL     1     -11.934  10.719  70.662  0.00  0.00    +0.037 A 
ATOM     19  C   UNL     1     -10.953   9.738  70.584  0.00  0.00    +0.011 A 
ATOM     20  C   UNL     1     -10.905   8.693  71.498  0.00  0.00    +0.098 A 
ATOM     21  C   UNL     1     -12.127   8.397  72.091  0.00  0.00    +0.011 A 
ATOM     22  C   UNL     1     -13.167   9.318  72.070  0.00  0.00    +0.037 A 
BRANCH  20  23
ATOM     23  C   UNL     1      -9.638   8.265  72.106  0.00  0.00    +0.477 C 
ATOM     24  N   UNL     1      -8.548   7.783  71.312  0.00  0.00    +0.205 NA
ATOM     25  N   UNL     1      -9.518   8.075  73.384  0.00  0.00    +0.205 NA
ENDBRANCH  20  23
ENDBRANCH  16  17
ENDBRANCH  15  16
ENDBRANCH  14  15
ENDBRANCH   1  14
TORSDOF 10
ENDMDL
MODEL 2
REMARK VINA RESULT:      -6.4      4.368      8.569
REMARK  Name = 
REMARK  10 active torsions:
REMARK  status: ('A' for Active; 'I' for Inactive)
REMARK    1  A    between atoms: C_2  and  C_4
REMARK    2  A    between atoms: C_7  and  O_8
REMARK    3  A    between atoms: O_8  and  C_9
REMARK    4  A    between atoms: C_9  and  C_10
REMARK    5  A    between atoms: C_10  and  C_11
REMARK    6  A    between atoms: C_11  and  C_12
REMARK    7  A    between atoms: C_12  and  C_13
REMARK    8  A    between atoms: C_13  and  O_14
REMARK    9  A    between atoms: O_14  and  C_15
REMARK   10  A    between atoms: C_18  and  C_19
REMARK                            x       y       z     vdW  Elec       q    Type
REMARK                         _______ _______ _______ _____ _____    ______ ____
ROOT
ATOM      1  C   UNL     1     -12.299  14.149  65.985  0.00  0.00    +0.008 C 
ENDROOT
BRANCH   1   2
ATOM      2  C   UNL     1     -11.886  12.696  66.064  0.00  0.00    +0.047 C 
BRANCH   2   3
ATOM      3  C   UNL     1     -10.737  12.570  67.034  0.00  0.00    +0.205 C 
BRANCH   3   4
ATOM      4  O   UNL     1     -11.191  12.040  68.264  0.00  0.00    -0.475 OA
BRANCH   4   8
ATOM      5  C   UNL     1     -12.243  14.523  71.454  0.00  0.00    +0.098 A 
ATOM      6  C   UNL     1     -12.790  13.253  71.339  0.00  0.00    +0.011 A 
ATOM      7  C   UNL     1     -12.294  12.347  70.417  0.00  0.00    +0.037 A 
ATOM      8  C   UNL     1     -11.623  12.815  69.319  0.00  0.00    +0.139 A 
ATOM      9  C   UNL     1     -11.234  14.143  69.330  0.00  0.00    +0.037 A 
ATOM     10  C   UNL     1     -11.375  14.909  70.457  0.00  0.00    +0.011 A 
BRANCH   5  12
ATOM     11  N   UNL     1     -12.127  16.409  72.878  0.00  0.00    +0.205 NA
ATOM     12  C   UNL     1     -12.873  15.527  72.295  0.00  0.00    +0.477 C 
ATOM     13  N   UNL     1     -14.276  15.788  72.284  0.00  0.00    +0.205 NA
ENDBRANCH   5  12
ENDBRANCH   4   8
ENDBRANCH   3   4
ENDBRANCH   2   3
ENDBRANCH   1   2
BRANCH   1  14
ATOM     14  C   UNL     1     -11.627  14.876  64.855  0.00  0.00    +0.047 C 
BRANCH  14  15
ATOM     15  C   UNL     1     -10.433  15.630  65.368  0.00  0.00    +0.205 C 
BRANCH  15  16
ATOM     16  O   UNL     1     -10.565  17.029  65.270  0.00  0.00    -0.475 OA
BRANCH  16  17
ATOM     17  C   UNL     1     -10.444  17.851  66.397  0.00  0.00    +0.139 A 
ATOM     18  C   UNL     1      -9.803  17.409  67.550  0.00  0.00    +0.037 A 
ATOM     19  C   UNL     1      -9.001  18.272  68.287  0.00  0.00    +0.011 A 
ATOM     20  C   UNL     1      -8.701  19.548  67.825  0.00  0.00    +0.098 A 
ATOM     21  C   UNL     1      -9.635  20.068  66.938  0.00  0.00    +0.011 A 
ATOM     22  C   UNL     1     -10.533  19.234  66.282  0.00  0.00    +0.037 A 
BRANCH  20  23
ATOM     23  C   UNL     1      -7.336  20.087  67.902  0.00  0.00    +0.477 C 
ATOM     24  N   UNL     1      -6.406  19.641  68.895  0.00  0.00    +0.205 NA
ATOM     25  N   UNL     1      -6.978  21.147  67.243  0.00  0.00    +0.205 NA
ENDBRANCH  20  23
ENDBRANCH  16  17
ENDBRANCH  15  16
ENDBRANCH  14  15
ENDBRANCH   1  14
TORSDOF 10
ENDMDL
MODEL 3
REMARK VINA RESULT:      -6.4      6.022      9.053
REMARK  Name = 
REMARK  10 active torsions:
REMARK  status: ('A' for Active; 'I' for Inactive)
REMARK    1  A    between atoms: C_2  and  C_4
REMARK    2  A    between atoms: C_7  and  O_8
REMARK    3  A    between atoms: O_8  and  C_9
REMARK    4  A    between atoms: C_9  and  C_10
REMARK    5  A    between atoms: C_10  and  C_11
REMARK    6  A    between atoms: C_11  and  C_12
REMARK    7  A    between atoms: C_12  and  C_13
REMARK    8  A    between atoms: C_13  and  O_14
REMARK    9  A    between atoms: O_14  and  C_15
REMARK   10  A    between atoms: C_18  and  C_19
REMARK                            x       y       z     vdW  Elec       q    Type
REMARK                         _______ _______ _______ _____ _____    ______ ____
ROOT
ATOM      1  C   UNL     1      -9.340  19.326  66.414  0.00  0.00    +0.008 C 
ENDROOT
BRANCH   1   2
ATOM      2  C   UNL     1      -8.234  20.359  66.433  0.00  0.00    +0.047 C 
BRANCH   2   3
ATOM      3  C   UNL     1      -6.916  19.663  66.200  0.00  0.00    +0.205 C 
BRANCH   3   4
ATOM      4  O   UNL     1      -6.627  18.790  67.275  0.00  0.00    -0.475 OA
BRANCH   4   8
ATOM      5  C   UNL     1      -4.542  20.075  70.658  0.00  0.00    +0.098 A 
ATOM      6  C   UNL     1      -5.496  19.071  70.756  0.00  0.00    +0.011 A 
ATOM      7  C   UNL     1      -6.036  18.491  69.621  0.00  0.00    +0.037 A 
ATOM      8  C   UNL     1      -6.016  19.189  68.444  0.00  0.00    +0.139 A 
ATOM      9  C   UNL     1      -5.213  20.315  68.385  0.00  0.00    +0.037 A 
ATOM     10  C   UNL     1      -4.355  20.622  69.409  0.00  0.00    +0.011 A 
BRANCH   5  12
ATOM     11  N   UNL     1      -3.116  20.333  72.528  0.00  0.00    +0.205 NA
ATOM     12  C   UNL     1      -4.106  20.800  71.840  0.00  0.00    +0.477 C 
ATOM     13  N   UNL     1      -4.499  22.143  72.122  0.00  0.00    +0.205 NA
ENDBRANCH   5  12
ENDBRANCH   4   8
ENDBRANCH   3   4
ENDBRANCH   2   3
ENDBRANCH   1   2
BRANCH   1  14
ATOM     14  C   UNL     1     -10.230  19.417  67.621  0.00  0.00    +0.047 C 
BRANCH  14  15
ATOM     15  C   UNL     1     -10.025  18.216  68.501  0.00  0.00    +0.205 C 
BRANCH  15  16
ATOM     16  O   UNL     1     -11.048  17.254  68.390  0.00  0.00    -0.475 OA
BRANCH  16  17
ATOM     17  C   UNL     1     -10.778  15.954  67.947  0.00  0.00    +0.139 A 
ATOM     18  C   UNL     1     -11.624  14.894  68.258  0.00  0.00    +0.037 A 
ATOM     19  C   UNL     1     -11.883  13.900  67.322  0.00  0.00    +0.011 A 
ATOM     20  C   UNL     1     -11.427  14.006  66.013  0.00  0.00    +0.098 A 
ATOM     21  C   UNL     1     -10.309  14.816  65.863  0.00  0.00    +0.011 A 
ATOM     22  C   UNL     1      -9.958  15.733  66.847  0.00  0.00    +0.037 A 
BRANCH  20  23
ATOM     23  C   UNL     1     -12.294  13.680  64.873  0.00  0.00    +0.477 C 
ATOM     24  N   UNL     1     -12.574  14.637  63.845  0.00  0.00    +0.205 NA
ATOM     25  N   UNL     1     -13.032  12.614  64.853  0.00  0.00    +0.205 NA
ENDBRANCH  20  23
ENDBRANCH  16  17
ENDBRANCH  15  16
ENDBRANCH  14  15
ENDBRANCH   1  14
TORSDOF 10
ENDMDL
MODEL 4
REMARK VINA RESULT:      -6.4      3.870      7.485
REMARK  Name = 
REMARK  10 active torsions:
REMARK  status: ('A' for Active; 'I' for Inactive)
REMARK    1  A    between atoms: C_2  and  C_4
REMARK    2  A    between atoms: C_7  and  O_8
REMARK    3  A    between atoms: O_8  and  C_9
REMARK    4  A    between atoms: C_9  and  C_10
REMARK    5  A    between atoms: C_10  and  C_11
REMARK    6  A    between atoms: C_11  and  C_12
REMARK    7  A    between atoms: C_12  and  C_13
REMARK    8  A    between atoms: C_13  and  O_14
REMARK    9  A    between atoms: O_14  and  C_15
REMARK   10  A    between atoms: C_18  and  C_19
REMARK                            x       y       z     vdW  Elec       q    Type
REMARK                         _______ _______ _______ _____ _____    ______ ____
ROOT
ATOM      1  C   UNL     1     -11.412  14.995  71.194  0.00  0.00    +0.008 C 
ENDROOT
BRANCH   1   2
ATOM      2  C   UNL     1     -12.691  14.229  70.931  0.00  0.00    +0.047 C 
BRANCH   2   3
ATOM      3  C   UNL     1     -12.336  12.846  70.446  0.00  0.00    +0.205 C 
BRANCH   3   4
ATOM      4  O   UNL     1     -11.265  12.910  69.524  0.00  0.00    -0.475 OA
BRANCH   4   8
ATOM      5  C   UNL     1     -11.957  12.571  65.418  0.00  0.00    +0.098 A 
ATOM      6  C   UNL     1     -11.283  11.571  66.105  0.00  0.00    +0.011 A 
ATOM      7  C   UNL     1     -11.235  11.568  67.488  0.00  0.00    +0.037 A 
ATOM      8  C   UNL     1     -11.414  12.745  68.164  0.00  0.00    +0.139 A 
ATOM      9  C   UNL     1     -11.907  13.821  67.446  0.00  0.00    +0.037 A 
ATOM     10  C   UNL     1     -12.347  13.666  66.158  0.00  0.00    +0.011 A 
BRANCH   5  12
ATOM     11  N   UNL     1     -12.533  13.594  63.364  0.00  0.00    +0.205 NA
ATOM     12  C   UNL     1     -11.861  12.670  63.972  0.00  0.00    +0.477 C 
ATOM     13  N   UNL     1     -10.848  12.014  63.209  0.00  0.00    +0.205 NA
ENDBRANCH   5  12
ENDBRANCH   4   8
ENDBRANCH   3   4
ENDBRANCH   2   3
ENDBRANCH   1   2
BRANCH   1  14
ATOM     14  C   UNL     1     -11.478  16.410  70.692  0.00  0.00    +0.047 C 
BRANCH  14  15
ATOM     15  C   UNL     1     -10.577  16.573  69.500  0.00  0.00    +0.205 C 
BRANCH  15  16
ATOM     16  O   UNL     1     -11.220  17.138  68.381  0.00  0.00    -0.475 OA
BRANCH  16  17
ATOM     17  C   UNL     1     -10.515  17.917  67.455  0.00  0.00    +0.139 A 
ATOM     18  C   UNL     1     -10.681  19.297  67.396  0.00  0.00    +0.037 A 
ATOM     19  C   UNL     1      -9.595  20.129  67.155  0.00  0.00    +0.011 A 
ATOM     20  C   UNL     1      -8.300  19.628  67.108  0.00  0.00    +0.098 A 
ATOM     21  C   UNL     1      -8.221  18.281  66.775  0.00  0.00    +0.011 A 
ATOM     22  C   UNL     1      -9.333  17.455  66.890  0.00  0.00    +0.037 A 
BRANCH  20  23
ATOM     23  C   UNL     1      -7.189  20.314  67.781  0.00  0.00    +0.477 C 
ATOM     24  N   UNL     1      -6.534  21.441  67.189  0.00  0.00    +0.205 NA
ATOM     25  N   UNL     1      -6.591  19.806  68.815  0.00  0.00    +0.205 NA
ENDBRANCH  20  23
ENDBRANCH  16  17
ENDBRANCH  15  16
ENDBRANCH  14  15
ENDBRANCH   1  14
TORSDOF 10
ENDMDL
MODEL 5
REMARK VINA RESULT:      -6.4      2.898      5.233
REMARK  Name = 
REMARK  10 active torsions:
REMARK  status: ('A' for Active; 'I' for Inactive)
REMARK    1  A    between atoms: C_2  and  C_4
REMARK    2  A    between atoms: C_7  and  O_8
REMARK    3  A    between atoms: O_8  and  C_9
REMARK    4  A    between atoms: C_9  and  C_10
REMARK    5  A    between atoms: C_10  and  C_11
REMARK    6  A    between atoms: C_11  and  C_12
REMARK    7  A    between atoms: C_12  and  C_13
REMARK    8  A    between atoms: C_13  and  O_14
REMARK    9  A    between atoms: O_14  and  C_15
REMARK   10  A    between atoms: C_18  and  C_19
REMARK                            x       y       z     vdW  Elec       q    Type
REMARK                         _______ _______ _______ _____ _____    ______ ____
ROOT
ATOM      1  C   UNL     1     -11.574  10.022  70.767  0.00  0.00    +0.008 C 
ENDROOT
BRANCH   1   2
ATOM      2  C   UNL     1     -11.076   9.539  69.422  0.00  0.00    +0.047 C 
BRANCH   2   3
ATOM      3  C   UNL     1     -10.510  10.713  68.664  0.00  0.00    +0.205 C 
BRANCH   3   4
ATOM      4  O   UNL     1     -11.276  10.958  67.499  0.00  0.00    -0.475 OA
BRANCH   4   8
ATOM      5  C   UNL     1     -11.285  14.569  65.399  0.00  0.00    +0.098 A 
ATOM      6  C   UNL     1     -10.732  13.427  64.836  0.00  0.00    +0.011 A 
ATOM      7  C   UNL     1     -10.912  12.187  65.425  0.00  0.00    +0.037 A 
ATOM      8  C   UNL     1     -11.199  12.119  66.762  0.00  0.00    +0.139 A 
ATOM      9  C   UNL     1     -11.568  13.295  67.392  0.00  0.00    +0.037 A 
ATOM     10  C   UNL     1     -11.791  14.440  66.673  0.00  0.00    +0.011 A 
BRANCH   5  12
ATOM     11  N   UNL     1     -11.700  16.399  63.959  0.00  0.00    +0.205 NA
ATOM     12  C   UNL     1     -10.952  15.884  64.880  0.00  0.00    +0.477 C 
ATOM     13  N   UNL     1     -10.037  16.771  65.525  0.00  0.00    +0.205 NA
ENDBRANCH   5  12
ENDBRANCH   4   8
ENDBRANCH   3   4
ENDBRANCH   2   3
ENDBRANCH   1   2
BRANCH   1  14
ATOM     14  C   UNL     1     -12.039  11.451  70.728  0.00  0.00    +0.047 C 
BRANCH  14  15
ATOM     15  C   UNL     1     -13.264  11.615  71.581  0.00  0.00    +0.205 C 
BRANCH  15  16
ATOM     16  O   UNL     1     -13.131  12.605  72.575  0.00  0.00    -0.475 OA
BRANCH  16  17
ATOM     17  C   UNL     1     -13.143  13.966  72.250  0.00  0.00    +0.139 A 
ATOM     18  C   UNL     1     -12.246  14.857  72.830  0.00  0.00    +0.037 A 
ATOM     19  C   UNL     1     -11.687  15.885  72.081  0.00  0.00    +0.011 A 
ATOM     20  C   UNL     1     -11.890  15.971  70.710  0.00  0.00    +0.098 A 
ATOM     21  C   UNL     1     -13.053  15.351  70.266  0.00  0.00    +0.011 A 
ATOM     22  C   UNL     1     -13.700  14.408  71.056  0.00  0.00    +0.037 A 
BRANCH  20  23
ATOM     23  C   UNL     1     -10.786  16.271  69.789  0.00  0.00    +0.477 C 
ATOM     24  N   UNL     1     -10.908  17.267  68.768  0.00  0.00    +0.205 NA
ATOM     25  N   UNL     1      -9.744  15.503  69.692  0.00  0.00    +0.205 NA
ENDBRANCH  20  23
ENDBRANCH  16  17
ENDBRANCH  15  16
ENDBRANCH  14  15
ENDBRANCH   1  14
TORSDOF 10
ENDMDL
MODEL 6
REMARK VINA RESULT:      -6.4      3.416      7.495
REMARK  Name = 
REMARK  10 active torsions:
REMARK  status: ('A' for Active; 'I' for Inactive)
REMARK    1  A    between atoms: C_2  and  C_4
REMARK    2  A    between atoms: C_7  and  O_8
REMARK    3  A    between atoms: O_8  and  C_9
REMARK    4  A    between atoms: C_9  and  C_10
REMARK    5  A    between atoms: C_10  and  C_11
REMARK    6  A    between atoms: C_11  and  C_12
REMARK    7  A    between atoms: C_12  and  C_13
REMARK    8  A    between atoms: C_13  and  O_14
REMARK    9  A    between atoms: O_14  and  C_15
REMARK   10  A    between atoms: C_18  and  C_19
REMARK                            x       y       z     vdW  Elec       q    Type
REMARK                         _______ _______ _______ _____ _____    ______ ____
ROOT
ATOM      1  C   UNL     1      -8.909  10.177  68.254  0.00  0.00    +0.008 C 
ENDROOT
BRANCH   1   2
ATOM      2  C   UNL     1     -10.069   9.270  68.603  0.00  0.00    +0.047 C 
BRANCH   2   3
ATOM      3  C   UNL     1     -10.562   9.621  69.984  0.00  0.00    +0.205 C 
BRANCH   3   4
ATOM      4  O   UNL     1     -11.837  10.229  69.909  0.00  0.00    -0.475 OA
BRANCH   4   8
ATOM      5  C   UNL     1     -12.928  13.965  71.428  0.00  0.00    +0.098 A 
ATOM      6  C   UNL     1     -12.045  13.867  70.362  0.00  0.00    +0.011 A 
ATOM      7  C   UNL     1     -11.842  12.660  69.715  0.00  0.00    +0.037 A 
ATOM      8  C   UNL     1     -12.111  11.495  70.381  0.00  0.00    +0.139 A 
ATOM      9  C   UNL     1     -12.831  11.588  71.560  0.00  0.00    +0.037 A 
ATOM     10  C   UNL     1     -13.385  12.777  71.954  0.00  0.00    +0.011 A 
BRANCH   5  12
ATOM     11  N   UNL     1     -11.922  15.841  72.459  0.00  0.00    +0.205 NA
ATOM     12  C   UNL     1     -13.009  15.184  72.213  0.00  0.00    +0.477 C 
ATOM     13  N   UNL     1     -14.236  15.865  72.476  0.00  0.00    +0.205 NA
ENDBRANCH   5  12
ENDBRANCH   4   8
ENDBRANCH   3   4
ENDBRANCH   2   3
ENDBRANCH   1   2
BRANCH   1  14
ATOM     14  C   UNL     1      -8.760  10.375  66.772  0.00  0.00    +0.047 C 
BRANCH  14  15
ATOM     15  C   UNL     1      -9.932   9.767  66.054  0.00  0.00    +0.205 C 
BRANCH  15  16
ATOM     16  O   UNL     1     -10.316  10.477  64.899  0.00  0.00    -0.475 OA
BRANCH  16  17
ATOM     17  C   UNL     1     -11.333  11.437  64.942  0.00  0.00    +0.139 A 
ATOM     18  C   UNL     1     -11.657  12.097  66.123  0.00  0.00    +0.037 A 
ATOM     19  C   UNL     1     -11.994  13.445  66.111  0.00  0.00    +0.011 A 
ATOM     20  C   UNL     1     -11.879  14.205  64.954  0.00  0.00    +0.098 A 
ATOM     21  C   UNL     1     -11.951  13.468  63.777  0.00  0.00    +0.011 A 
ATOM     22  C   UNL     1     -11.741  12.094  63.787  0.00  0.00    +0.037 A 
BRANCH  20  23
ATOM     23  C   UNL     1     -11.291  15.551  64.977  0.00  0.00    +0.477 C 
ATOM     24  N   UNL     1     -11.487  16.475  63.902  0.00  0.00    +0.205 NA
ATOM     25  N   UNL     1     -10.382  15.888  65.839  0.00  0.00    +0.205 NA
ENDBRANCH  20  23
ENDBRANCH  16  17
ENDBRANCH  15  16
ENDBRANCH  14  15
ENDBRANCH   1  14
TORSDOF 10
ENDMDL
MODEL 7
REMARK VINA RESULT:      -6.3      4.124      6.620
REMARK  Name = 
REMARK  10 active torsions:
REMARK  status: ('A' for Active; 'I' for Inactive)
REMARK    1  A    between atoms: C_2  and  C_4
REMARK    2  A    between atoms: C_7  and  O_8
REMARK    3  A    between atoms: O_8  and  C_9
REMARK    4  A    between atoms: C_9  and  C_10
REMARK    5  A    between atoms: C_10  and  C_11
REMARK    6  A    between atoms: C_11  and  C_12
REMARK    7  A    between atoms: C_12  and  C_13
REMARK    8  A    between atoms: C_13  and  O_14
REMARK    9  A    between atoms: O_14  and  C_15
REMARK   10  A    between atoms: C_18  and  C_19
REMARK                            x       y       z     vdW  Elec       q    Type
REMARK                         _______ _______ _______ _____ _____    ______ ____
ROOT
ATOM      1  C   UNL     1     -11.767  12.865  69.534  0.00  0.00    +0.008 C 
ENDROOT
BRANCH   1   2
ATOM      2  C   UNL     1     -12.133  14.131  68.790  0.00  0.00    +0.047 C 
BRANCH   2   3
ATOM      3  C   UNL     1     -11.960  15.307  69.718  0.00  0.00    +0.205 C 
BRANCH   3   4
ATOM      4  O   UNL     1     -11.730  16.488  68.974  0.00  0.00    -0.475 OA
BRANCH   4   8
ATOM      5  C   UNL     1      -8.159  17.471  67.043  0.00  0.00    +0.098 A 
ATOM      6  C   UNL     1      -8.142  16.873  68.294  0.00  0.00    +0.011 A 
ATOM      7  C   UNL     1      -9.299  16.351  68.848  0.00  0.00    +0.037 A 
ATOM      8  C   UNL     1     -10.512  16.822  68.423  0.00  0.00    +0.139 A 
ATOM      9  C   UNL     1     -10.527  17.591  67.273  0.00  0.00    +0.037 A 
ATOM     10  C   UNL     1      -9.400  17.737  66.508  0.00  0.00    +0.011 A 
BRANCH   5  12
ATOM     11  N   UNL     1      -5.919  18.200  67.269  0.00  0.00    +0.205 NA
ATOM     12  C   UNL     1      -6.988  18.170  66.541  0.00  0.00    +0.477 C 
ATOM     13  N   UNL     1      -6.840  18.569  65.178  0.00  0.00    +0.205 NA
ENDBRANCH   5  12
ENDBRANCH   4   8
ENDBRANCH   3   4
ENDBRANCH   2   3
ENDBRANCH   1   2
BRANCH   1  14
ATOM     14  C   UNL     1     -11.579  11.692  68.615  0.00  0.00    +0.047 C 
BRANCH  14  15
ATOM     15  C   UNL     1     -10.128  11.304  68.569  0.00  0.00    +0.205 C 
BRANCH  15  16
ATOM     16  O   UNL     1      -9.692  10.905  67.290  0.00  0.00    -0.475 OA
BRANCH  16  17
ATOM     17  C   UNL     1      -9.498  11.837  66.264  0.00  0.00    +0.139 A 
ATOM     18  C   UNL     1      -9.995  11.618  64.983  0.00  0.00    +0.037 A 
ATOM     19  C   UNL     1     -10.525  12.667  64.242  0.00  0.00    +0.011 A 
ATOM     20  C   UNL     1     -10.707  13.925  64.802  0.00  0.00    +0.098 A 
ATOM     21  C   UNL     1      -9.868  14.198  65.876  0.00  0.00    +0.011 A 
ATOM     22  C   UNL     1      -9.226  13.169  66.555  0.00  0.00    +0.037 A 
BRANCH  20  23
ATOM     23  C   UNL     1     -11.944  14.688  64.586  0.00  0.00    +0.477 C 
ATOM     24  N   UNL     1     -11.924  16.011  64.039  0.00  0.00    +0.205 NA
ATOM     25  N   UNL     1     -13.079  14.312  65.088  0.00  0.00    +0.205 NA
ENDBRANCH  20  23
ENDBRANCH  16  17
ENDBRANCH  15  16
ENDBRANCH  14  15
ENDBRANCH   1  14
TORSDOF 10
ENDMDL
MODEL 8
REMARK VINA RESULT:      -6.2      3.154      7.097
REMARK  Name = 
REMARK  10 active torsions:
REMARK  status: ('A' for Active; 'I' for Inactive)
REMARK    1  A    between atoms: C_2  and  C_4
REMARK    2  A    between atoms: C_7  and  O_8
REMARK    3  A    between atoms: O_8  and  C_9
REMARK    4  A    between atoms: C_9  and  C_10
REMARK    5  A    between atoms: C_10  and  C_11
REMARK    6  A    between atoms: C_11  and  C_12
REMARK    7  A    between atoms: C_12  and  C_13
REMARK    8  A    between atoms: C_13  and  O_14
REMARK    9  A    between atoms: O_14  and  C_15
REMARK   10  A    between atoms: C_18  and  C_19
REMARK                            x       y       z     vdW  Elec       q    Type
REMARK                         _______ _______ _______ _____ _____    ______ ____
ROOT
ATOM      1  C   UNL     1      -9.455   8.890  69.489  0.00  0.00    +0.008 C 
ENDROOT
BRANCH   1   2
ATOM      2  C   UNL     1     -10.063   9.535  70.715  0.00  0.00    +0.047 C 
BRANCH   2   3
ATOM      3  C   UNL     1     -11.401   8.894  70.988  0.00  0.00    +0.205 C 
BRANCH   3   4
ATOM      4  O   UNL     1     -12.442   9.690  70.456  0.00  0.00    -0.475 OA
BRANCH   4   8
ATOM      5  C   UNL     1     -12.743  13.767  71.314  0.00  0.00    +0.098 A 
ATOM      6  C   UNL     1     -13.451  12.835  72.059  0.00  0.00    +0.011 A 
ATOM      7  C   UNL     1     -13.198  11.480  71.928  0.00  0.00    +0.037 A 
ATOM      8  C   UNL     1     -12.630  11.018  70.772  0.00  0.00    +0.139 A 
ATOM      9  C   UNL     1     -12.085  11.956  69.913  0.00  0.00    +0.037 A 
ATOM     10  C   UNL     1     -11.978  13.271  70.282  0.00  0.00    +0.011 A 
BRANCH   5  12
ATOM     11  N   UNL     1     -12.483  15.996  70.566  0.00  0.00    +0.205 NA
ATOM     12  C   UNL     1     -13.127  15.168  71.323  0.00  0.00    +0.477 C 
ATOM     13  N   UNL     1     -14.353  15.640  71.882  0.00  0.00    +0.205 NA
ENDBRANCH   5  12
ENDBRANCH   4   8
ENDBRANCH   3   4
ENDBRANCH   2   3
ENDBRANCH   1   2
BRANCH   1  14
ATOM     14  C   UNL     1      -8.467   9.787  68.799  0.00  0.00    +0.047 C 
BRANCH  14  15
ATOM     15  C   UNL     1      -8.756   9.830  67.325  0.00  0.00    +0.205 C 
BRANCH  15  16
ATOM     16  O   UNL     1      -8.784  11.134  66.793  0.00  0.00    -0.475 OA
BRANCH  16  17
ATOM     17  C   UNL     1      -9.857  11.997  67.042  0.00  0.00    +0.139 A 
ATOM     18  C   UNL     1      -9.650  13.317  67.432  0.00  0.00    +0.037 A 
ATOM     19  C   UNL     1     -10.469  14.332  66.953  0.00  0.00    +0.011 A 
ATOM     20  C   UNL     1     -11.419  14.087  65.969  0.00  0.00    +0.098 A 
ATOM     21  C   UNL     1     -11.854  12.768  65.912  0.00  0.00    +0.011 A 
ATOM     22  C   UNL     1     -11.111  11.749  66.496  0.00  0.00    +0.037 A 
BRANCH  20  23
ATOM     23  C   UNL     1     -11.596  15.000  64.831  0.00  0.00    +0.477 C 
ATOM     24  N   UNL     1     -10.822  16.198  64.703  0.00  0.00    +0.205 NA
ATOM     25  N   UNL     1     -12.604  14.901  64.021  0.00  0.00    +0.205 NA
ENDBRANCH  20  23
ENDBRANCH  16  17
ENDBRANCH  15  16
ENDBRANCH  14  15
ENDBRANCH   1  14
TORSDOF 10
ENDMDL
MODEL 9
REMARK VINA RESULT:      -6.2      3.271      7.048
REMARK  Name = 
REMARK  10 active torsions:
REMARK  status: ('A' for Active; 'I' for Inactive)
REMARK    1  A    between atoms: C_2  and  C_4
REMARK    2  A    between atoms: C_7  and  O_8
REMARK    3  A    between atoms: O_8  and  C_9
REMARK    4  A    between atoms: C_9  and  C_10
REMARK    5  A    between atoms: C_10  and  C_11
REMARK    6  A    between atoms: C_11  and  C_12
REMARK    7  A    between atoms: C_12  and  C_13
REMARK    8  A    between atoms: C_13  and  O_14
REMARK    9  A    between atoms: O_14  and  C_15
REMARK   10  A    between atoms: C_18  and  C_19
REMARK                            x       y       z     vdW  Elec       q    Type
REMARK                         _______ _______ _______ _____ _____    ______ ____
ROOT
ATOM      1  C   UNL     1     -10.570   8.370  70.295  0.00  0.00    +0.008 C 
ENDROOT
BRANCH   1   2
ATOM      2  C   UNL     1     -11.751   7.969  71.152  0.00  0.00    +0.047 C 
BRANCH   2   3
ATOM      3  C   UNL     1     -12.524   9.210  71.524  0.00  0.00    +0.205 C 
BRANCH   3   4
ATOM      4  O   UNL     1     -12.209  10.266  70.638  0.00  0.00    -0.475 OA
BRANCH   4   8
ATOM      5  C   UNL     1     -13.113  14.233  71.586  0.00  0.00    +0.098 A 
ATOM      6  C   UNL     1     -12.141  13.938  70.641  0.00  0.00    +0.011 A 
ATOM      7  C   UNL     1     -11.982  12.648  70.164  0.00  0.00    +0.037 A 
ATOM      8  C   UNL     1     -12.417  11.598  70.928  0.00  0.00    +0.139 A 
ATOM      9  C   UNL     1     -13.239  11.891  72.002  0.00  0.00    +0.037 A 
ATOM     10  C   UNL     1     -13.723  13.158  72.194  0.00  0.00    +0.011 A 
BRANCH   5  12
ATOM     11  N   UNL     1     -14.298  15.977  72.659  0.00  0.00    +0.205 NA
ATOM     12  C   UNL     1     -13.164  15.543  72.211  0.00  0.00    +0.477 C 
ATOM     13  N   UNL     1     -12.001  16.255  72.633  0.00  0.00    +0.205 NA
ENDBRANCH   5  12
ENDBRANCH   4   8
ENDBRANCH   3   4
ENDBRANCH   2   3
ENDBRANCH   1   2
BRANCH   1  14
ATOM     14  C   UNL     1     -10.439   7.519  69.064  0.00  0.00    +0.047 C 
BRANCH  14  15
ATOM     15  C   UNL     1     -10.036   8.369  67.893  0.00  0.00    +0.205 C 
BRANCH  15  16
ATOM     16  O   UNL     1     -10.958   9.392  67.595  0.00  0.00    -0.475 OA
BRANCH  16  17
ATOM     17  C   UNL     1     -10.558  10.562  66.939  0.00  0.00    +0.139 A 
ATOM     18  C   UNL     1      -9.921  10.517  65.702  0.00  0.00    +0.037 A 
ATOM     19  C   UNL     1     -10.205  11.466  64.728  0.00  0.00    +0.011 A 
ATOM     20  C   UNL     1     -11.225  12.394  64.900  0.00  0.00    +0.098 A 
ATOM     21  C   UNL     1     -11.536  12.659  66.228  0.00  0.00    +0.011 A 
ATOM     22  C   UNL     1     -11.152  11.783  67.236  0.00  0.00    +0.037 A 
BRANCH  20  23
ATOM     23  C   UNL     1     -12.169  12.703  63.817  0.00  0.00    +0.477 C 
ATOM     24  N   UNL     1     -12.471  14.052  63.447  0.00  0.00    +0.205 NA
ATOM     25  N   UNL     1     -12.947  11.800  63.306  0.00  0.00    +0.205 NA
ENDBRANCH  20  23
ENDBRANCH  16  17
ENDBRANCH  15  16
ENDBRANCH  14  15
ENDBRANCH   1  14
TORSDOF 10
ENDMDL
