MODEL 1
REMARK VINA RESULT:      -7.1      0.000      0.000
REMARK  Name = 
REMARK  4 active torsions:
REMARK  status: ('A' for Active; 'I' for Inactive)
REMARK    1  A    between atoms: C_2  and  C_3
REMARK    2  A    between atoms: C_2  and  C_6
REMARK    3  A    between atoms: C_10  and  O_11
REMARK    4  A    between atoms: O_11  and  C_12
REMARK                            x       y       z     vdW  Elec       q    Type
REMARK                         _______ _______ _______ _____ _____    ______ ____
ROOT
ATOM      1  C   UNL     1     -10.950  14.179  66.530  0.00  0.00    -0.009 A 
ATOM      2  C   UNL     1     -11.409  15.203  67.308  0.00  0.00    +0.034 A 
ATOM      3  C   UNL     1     -11.761  14.877  68.613  0.00  0.00    +0.145 A 
ATOM      4  C   UNL     1     -11.821  13.539  68.987  0.00  0.00    +0.037 A 
ATOM      5  C   UNL     1     -11.758  12.573  67.989  0.00  0.00    +0.003 A 
ATOM      6  C   UNL     1     -11.277  12.893  66.723  0.00  0.00    -0.004 A 
ENDROOT
BRANCH   1   8
ATOM      7  C   UNL     1      -9.598  15.984  65.735  0.00  0.00    +0.017 C 
ATOM      8  C   UNL     1     -10.323  14.623  65.097  0.00  0.00    +0.126 C 
BRANCH   8   9
ATOM      9  C   UNL     1     -11.688  15.391  64.643  0.00  0.00    +0.368 C 
ATOM     10  O   UNL     1     -11.333  16.665  64.187  0.00  0.00    -0.245 OA
ATOM     11  O   UNL     1     -12.534  14.771  64.026  0.00  0.00    -0.245 OA
ENDBRANCH   8   9
ENDBRANCH   1   8
BRANCH   3  12
ATOM     12  O   UNL     1     -12.302  15.885  69.419  0.00  0.00    -0.454 OA
BRANCH  12  13
ATOM     13  C   UNL     1     -12.576  15.565  70.750  0.00  0.00    +0.145 A 
ATOM     14  C   UNL     1     -13.868  15.236  71.099  0.00  0.00    +0.037 A 
ATOM     15  C   UNL     1     -14.138  15.046  72.432  0.00  0.00    +0.003 A 
ATOM     16  C   UNL     1     -13.154  15.235  73.364  0.00  0.00    +0.000 A 
ATOM     17  C   UNL     1     -11.974  15.872  73.022  0.00  0.00    +0.003 A 
ATOM     18  C   UNL     1     -11.737  16.124  71.692  0.00  0.00    +0.037 A 
ENDBRANCH  12  13
ENDBRANCH   3  12
TORSDOF 4
ENDMDL
MODEL 2
REMARK VINA RESULT:      -6.4      2.321      4.310
REMARK  Name = 
REMARK  4 active torsions:
REMARK  status: ('A' for Active; 'I' for Inactive)
REMARK    1  A    between atoms: C_2  and  C_3
REMARK    2  A    between atoms: C_2  and  C_6
REMARK    3  A    between atoms: C_10  and  O_11
REMARK    4  A    between atoms: O_11  and  C_12
REMARK                            x       y       z     vdW  Elec       q    Type
REMARK                         _______ _______ _______ _____ _____    ______ ____
ROOT
ATOM      1  C   UNL     1     -11.194  13.909  66.951  0.00  0.00    -0.009 A 
ATOM      2  C   UNL     1     -11.170  15.268  67.085  0.00  0.00    +0.034 A 
ATOM      3  C   UNL     1     -11.199  15.759  68.386  0.00  0.00    +0.145 A 
ATOM      4  C   UNL     1     -11.447  14.886  69.438  0.00  0.00    +0.037 A 
ATOM      5  C   UNL     1     -11.889  13.602  69.138  0.00  0.00    +0.003 A 
ATOM      6  C   UNL     1     -11.730  13.080  67.858  0.00  0.00    -0.004 A 
ENDROOT
BRANCH   1   8
ATOM      7  C   UNL     1     -10.432  14.851  64.889  0.00  0.00    +0.017 C 
ATOM      8  C   UNL     1     -10.920  13.356  65.446  0.00  0.00    +0.126 C 
BRANCH   8   9
ATOM      9  C   UNL     1     -12.477  13.542  65.004  0.00  0.00    +0.368 C 
ATOM     10  O   UNL     1     -12.534  14.570  64.057  0.00  0.00    -0.245 OA
ATOM     11  O   UNL     1     -13.160  12.551  64.822  0.00  0.00    -0.245 OA
ENDBRANCH   8   9
ENDBRANCH   1   8
BRANCH   3  12
ATOM     12  O   UNL     1     -11.248  17.147  68.562  0.00  0.00    -0.454 OA
BRANCH  12  13
ATOM     13  C   UNL     1     -10.269  17.910  67.924  0.00  0.00    +0.145 A 
ATOM     14  C   UNL     1      -8.992  17.915  68.443  0.00  0.00    +0.037 A 
ATOM     15  C   UNL     1      -8.078  18.767  67.873  0.00  0.00    +0.003 A 
ATOM     16  C   UNL     1      -8.461  19.608  66.864  0.00  0.00    +0.000 A 
ATOM     17  C   UNL     1      -9.802  19.812  66.589  0.00  0.00    +0.003 A 
ATOM     18  C   UNL     1     -10.720  19.003  67.213  0.00  0.00    +0.037 A 
ENDBRANCH  12  13
ENDBRANCH   3  12
TORSDOF 4
ENDMDL
MODEL 3
REMARK VINA RESULT:      -6.3      2.647      5.923
REMARK  Name = 
REMARK  4 active torsions:
REMARK  status: ('A' for Active; 'I' for Inactive)
REMARK    1  A    between atoms: C_2  and  C_3
REMARK    2  A    between atoms: C_2  and  C_6
REMARK    3  A    between atoms: C_10  and  O_11
REMARK    4  A    between atoms: O_11  and  C_12
REMARK                            x       y       z     vdW  Elec       q    Type
REMARK                         _______ _______ _______ _____ _____    ______ ____
ROOT
ATOM      1  C   UNL     1     -12.287  14.555  70.801  0.00  0.00    -0.009 A 
ATOM      2  C   UNL     1     -11.925  15.776  70.306  0.00  0.00    +0.034 A 
ATOM      3  C   UNL     1     -11.784  15.864  68.925  0.00  0.00    +0.145 A 
ATOM      4  C   UNL     1     -11.816  14.703  68.162  0.00  0.00    +0.037 A 
ATOM      5  C   UNL     1     -11.753  13.481  68.820  0.00  0.00    +0.003 A 
ATOM      6  C   UNL     1     -12.027  13.394  70.182  0.00  0.00    -0.004 A 
ENDROOT
BRANCH   1   8
ATOM      7  C   UNL     1     -13.551  13.120  72.237  0.00  0.00    +0.017 C 
ATOM      8  C   UNL     1     -12.677  14.534  72.379  0.00  0.00    +0.126 C 
BRANCH   8   9
ATOM      9  C   UNL     1     -13.960  15.516  72.161  0.00  0.00    +0.368 C 
ATOM     10  O   UNL     1     -15.000  14.750  71.624  0.00  0.00    -0.245 OA
ATOM     11  O   UNL     1     -14.229  16.332  73.022  0.00  0.00    -0.245 OA
ENDBRANCH   8   9
ENDBRANCH   1   8
BRANCH   3  12
ATOM     12  O   UNL     1     -11.345  17.080  68.387  0.00  0.00    -0.454 OA
BRANCH  12  13
ATOM     13  C   UNL     1     -10.016  17.439  68.615  0.00  0.00    +0.145 A 
ATOM     14  C   UNL     1      -9.678  18.776  68.586  0.00  0.00    +0.037 A 
ATOM     15  C   UNL     1      -8.347  19.097  68.689  0.00  0.00    +0.003 A 
ATOM     16  C   UNL     1      -7.406  18.106  68.763  0.00  0.00    +0.000 A 
ATOM     17  C   UNL     1      -7.739  16.796  68.467  0.00  0.00    +0.003 A 
ATOM     18  C   UNL     1      -9.067  16.489  68.295  0.00  0.00    +0.037 A 
ENDBRANCH  12  13
ENDBRANCH   3  12
TORSDOF 4
ENDMDL
MODEL 4
REMARK VINA RESULT:      -6.3      1.465      2.033
REMARK  Name = 
REMARK  4 active torsions:
REMARK  status: ('A' for Active; 'I' for Inactive)
REMARK    1  A    between atoms: C_2  and  C_3
REMARK    2  A    between atoms: C_2  and  C_6
REMARK    3  A    between atoms: C_10  and  O_11
REMARK    4  A    between atoms: O_11  and  C_12
REMARK                            x       y       z     vdW  Elec       q    Type
REMARK                         _______ _______ _______ _____ _____    ______ ____
ROOT
ATOM      1  C   UNL     1     -11.027  13.689  67.203  0.00  0.00    -0.009 A 
ATOM      2  C   UNL     1     -11.915  14.328  68.020  0.00  0.00    +0.034 A 
ATOM      3  C   UNL     1     -11.488  15.531  68.574  0.00  0.00    +0.145 A 
ATOM      4  C   UNL     1     -10.157  15.908  68.439  0.00  0.00    +0.037 A 
ATOM      5  C   UNL     1      -9.252  14.967  67.963  0.00  0.00    +0.003 A 
ATOM      6  C   UNL     1      -9.697  13.831  67.293  0.00  0.00    -0.004 A 
ENDROOT
BRANCH   1   8
ATOM      7  C   UNL     1     -10.129  11.968  65.806  0.00  0.00    +0.017 C 
ATOM      8  C   UNL     1     -11.628  12.420  66.383  0.00  0.00    +0.126 C 
BRANCH   8   9
ATOM      9  C   UNL     1     -12.010  13.331  65.087  0.00  0.00    +0.368 C 
ATOM     10  O   UNL     1     -11.300  12.834  63.989  0.00  0.00    -0.245 OA
ATOM     11  O   UNL     1     -13.169  13.663  64.922  0.00  0.00    -0.245 OA
ENDBRANCH   8   9
ENDBRANCH   1   8
BRANCH   3  12
ATOM     12  O   UNL     1     -12.343  16.179  69.473  0.00  0.00    -0.454 OA
BRANCH  12  13
ATOM     13  C   UNL     1     -12.534  15.583  70.720  0.00  0.00    +0.145 A 
ATOM     14  C   UNL     1     -13.752  14.998  70.994  0.00  0.00    +0.037 A 
ATOM     15  C   UNL     1     -13.960  14.528  72.268  0.00  0.00    +0.003 A 
ATOM     16  C   UNL     1     -12.996  14.694  73.225  0.00  0.00    +0.000 A 
ATOM     17  C   UNL     1     -11.935  15.558  73.014  0.00  0.00    +0.003 A 
ATOM     18  C   UNL     1     -11.770  16.083  71.755  0.00  0.00    +0.037 A 
ENDBRANCH  12  13
ENDBRANCH   3  12
TORSDOF 4
ENDMDL
MODEL 5
REMARK VINA RESULT:      -6.2      2.747      6.136
REMARK  Name = 
REMARK  4 active torsions:
REMARK  status: ('A' for Active; 'I' for Inactive)
REMARK    1  A    between atoms: C_2  and  C_3
REMARK    2  A    between atoms: C_2  and  C_6
REMARK    3  A    between atoms: C_10  and  O_11
REMARK    4  A    between atoms: O_11  and  C_12
REMARK                            x       y       z     vdW  Elec       q    Type
REMARK                         _______ _______ _______ _____ _____    ______ ____
ROOT
ATOM      1  C   UNL     1     -12.395  15.043  70.570  0.00  0.00    -0.009 A 
ATOM      2  C   UNL     1     -11.439  15.946  70.202  0.00  0.00    +0.034 A 
ATOM      3  C   UNL     1     -10.703  15.636  69.064  0.00  0.00    +0.145 A 
ATOM      4  C   UNL     1     -10.830  14.374  68.494  0.00  0.00    +0.037 A 
ATOM      5  C   UNL     1     -11.503  13.393  69.213  0.00  0.00    +0.003 A 
ATOM      6  C   UNL     1     -12.341  13.737  70.269  0.00  0.00    -0.004 A 
ENDROOT
BRANCH   1   8
ATOM      7  C   UNL     1     -12.169  16.280  72.604  0.00  0.00    +0.017 C 
ATOM      8  C   UNL     1     -13.396  15.536  71.753  0.00  0.00    +0.126 C 
BRANCH   8   9
ATOM      9  C   UNL     1     -13.284  14.119  72.553  0.00  0.00    +0.368 C 
ATOM     10  O   UNL     1     -12.529  14.339  73.710  0.00  0.00    -0.245 OA
ATOM     11  O   UNL     1     -14.269  13.409  72.633  0.00  0.00    -0.245 OA
ENDBRANCH   8   9
ENDBRANCH   1   8
BRANCH   3  12
ATOM     12  O   UNL     1      -9.667  16.502  68.695  0.00  0.00    -0.454 OA
BRANCH  12  13
ATOM     13  C   UNL     1     -10.019  17.673  68.023  0.00  0.00    +0.145 A 
ATOM     14  C   UNL     1     -10.183  17.627  66.655  0.00  0.00    +0.037 A 
ATOM     15  C   UNL     1     -10.407  18.814  66.001  0.00  0.00    +0.003 A 
ATOM     16  C   UNL     1     -10.409  19.991  66.698  0.00  0.00    +0.000 A 
ATOM     17  C   UNL     1      -9.926  20.042  67.995  0.00  0.00    +0.003 A 
ATOM     18  C   UNL     1      -9.636  18.855  68.624  0.00  0.00    +0.037 A 
ENDBRANCH  12  13
ENDBRANCH   3  12
TORSDOF 4
ENDMDL
MODEL 6
REMARK VINA RESULT:      -6.2      2.441      6.690
REMARK  Name = 
REMARK  4 active torsions:
REMARK  status: ('A' for Active; 'I' for Inactive)
REMARK    1  A    between atoms: C_2  and  C_3
REMARK    2  A    between atoms: C_2  and  C_6
REMARK    3  A    between atoms: C_10  and  O_11
REMARK    4  A    between atoms: O_11  and  C_12
REMARK                            x       y       z     vdW  Elec       q    Type
REMARK                         _______ _______ _______ _____ _____    ______ ____
ROOT
ATOM      1  C   UNL     1     -12.200  14.584  70.797  0.00  0.00    -0.009 A 
ATOM      2  C   UNL     1     -12.354  13.454  70.045  0.00  0.00    +0.034 A 
ATOM      3  C   UNL     1     -11.804  13.483  68.768  0.00  0.00    +0.145 A 
ATOM      4  C   UNL     1     -11.321  14.684  68.262  0.00  0.00    +0.037 A 
ATOM      5  C   UNL     1     -11.616  15.855  68.951  0.00  0.00    +0.003 A 
ATOM      6  C   UNL     1     -12.042  15.809  70.276  0.00  0.00    -0.004 A 
ENDROOT
BRANCH   1   8
ATOM      7  C   UNL     1     -13.506  13.047  72.082  0.00  0.00    +0.017 C 
ATOM      8  C   UNL     1     -12.636  14.445  72.357  0.00  0.00    +0.126 C 
BRANCH   8   9
ATOM      9  C   UNL     1     -13.913  15.442  72.176  0.00  0.00    +0.368 C 
ATOM     10  O   UNL     1     -14.987  14.683  71.700  0.00  0.00    -0.245 OA
ATOM     11  O   UNL     1     -14.132  16.279  73.033  0.00  0.00    -0.245 OA
ENDBRANCH   8   9
ENDBRANCH   1   8
BRANCH   3  12
ATOM     12  O   UNL     1     -12.003  12.371  67.942  0.00  0.00    -0.454 OA
BRANCH  12  13
ATOM     13  C   UNL     1     -11.534  12.453  66.631  0.00  0.00    +0.145 A 
ATOM     14  C   UNL     1     -12.369  12.966  65.661  0.00  0.00    +0.037 A 
ATOM     15  C   UNL     1     -11.933  12.923  64.359  0.00  0.00    +0.003 A 
ATOM     16  C   UNL     1     -10.733  12.340  64.057  0.00  0.00    +0.000 A 
ATOM     17  C   UNL     1     -10.076  11.556  64.991  0.00  0.00    +0.003 A 
ATOM     18  C   UNL     1     -10.556  11.546  66.278  0.00  0.00    +0.037 A 
ENDBRANCH  12  13
ENDBRANCH   3  12
TORSDOF 4
ENDMDL
MODEL 7
REMARK VINA RESULT:      -6.1      4.149      6.412
REMARK  Name = 
REMARK  4 active torsions:
REMARK  status: ('A' for Active; 'I' for Inactive)
REMARK    1  A    between atoms: C_2  and  C_3
REMARK    2  A    between atoms: C_2  and  C_6
REMARK    3  A    between atoms: C_10  and  O_11
REMARK    4  A    between atoms: O_11  and  C_12
REMARK                            x       y       z     vdW  Elec       q    Type
REMARK                         _______ _______ _______ _____ _____    ______ ____
ROOT
ATOM      1  C   UNL     1     -12.448  13.992  70.582  0.00  0.00    -0.009 A 
ATOM      2  C   UNL     1     -12.981  13.104  71.473  0.00  0.00    +0.034 A 
ATOM      3  C   UNL     1     -12.652  11.766  71.283  0.00  0.00    +0.145 A 
ATOM      4  C   UNL     1     -11.989  11.388  70.121  0.00  0.00    +0.037 A 
ATOM      5  C   UNL     1     -11.888  12.314  69.089  0.00  0.00    +0.003 A 
ATOM      6  C   UNL     1     -12.094  13.669  69.331  0.00  0.00    -0.004 A 
ENDROOT
BRANCH   1   8
ATOM      7  C   UNL     1     -11.620  15.467  72.272  0.00  0.00    +0.017 C 
ATOM      8  C   UNL     1     -12.649  15.560  70.962  0.00  0.00    +0.126 C 
BRANCH   8   9
ATOM      9  C   UNL     1     -14.001  15.265  71.823  0.00  0.00    +0.368 C 
ATOM     10  O   UNL     1     -13.813  15.784  73.109  0.00  0.00    -0.245 OA
ATOM     11  O   UNL     1     -15.084  15.422  71.290  0.00  0.00    -0.245 OA
ENDBRANCH   8   9
ENDBRANCH   1   8
BRANCH   3  12
ATOM     12  O   UNL     1     -13.236  10.819  72.132  0.00  0.00    -0.454 OA
BRANCH  12  13
ATOM     13  C   UNL     1     -13.061   9.473  71.808  0.00  0.00    +0.145 A 
ATOM     14  C   UNL     1     -14.177   8.675  71.674  0.00  0.00    +0.037 A 
ATOM     15  C   UNL     1     -13.976   7.330  71.478  0.00  0.00    +0.003 A 
ATOM     16  C   UNL     1     -12.707   6.820  71.472  0.00  0.00    +0.000 A 
ATOM     17  C   UNL     1     -11.641   7.578  71.927  0.00  0.00    +0.003 A 
ATOM     18  C   UNL     1     -11.860   8.909  72.189  0.00  0.00    +0.037 A 
ENDBRANCH  12  13
ENDBRANCH   3  12
TORSDOF 4
ENDMDL
MODEL 8
REMARK VINA RESULT:      -6.1      3.410      4.898
REMARK  Name = 
REMARK  4 active torsions:
REMARK  status: ('A' for Active; 'I' for Inactive)
REMARK    1  A    between atoms: C_2  and  C_3
REMARK    2  A    between atoms: C_2  and  C_6
REMARK    3  A    between atoms: C_10  and  O_11
REMARK    4  A    between atoms: O_11  and  C_12
REMARK                            x       y       z     vdW  Elec       q    Type
REMARK                         _______ _______ _______ _____ _____    ______ ____
ROOT
ATOM      1  C   UNL     1     -10.598  13.605  66.235  0.00  0.00    -0.009 A 
ATOM      2  C   UNL     1     -10.118  14.722  65.612  0.00  0.00    +0.034 A 
ATOM      3  C   UNL     1      -9.217  15.494  66.337  0.00  0.00    +0.145 A 
ATOM      4  C   UNL     1      -9.013  15.217  67.684  0.00  0.00    +0.037 A 
ATOM      5  C   UNL     1      -9.883  14.334  68.313  0.00  0.00    +0.003 A 
ATOM      6  C   UNL     1     -10.684  13.475  67.566  0.00  0.00    -0.004 A 
ENDROOT
BRANCH   1   8
ATOM      7  C   UNL     1     -10.350  12.683  64.042  0.00  0.00    +0.017 C 
ATOM      8  C   UNL     1     -11.455  12.598  65.289  0.00  0.00    +0.126 C 
BRANCH   8   9
ATOM      9  C   UNL     1     -12.400  13.799  64.723  0.00  0.00    +0.368 C 
ATOM     10  O   UNL     1     -12.505  13.645  63.337  0.00  0.00    -0.245 OA
ATOM     11  O   UNL     1     -13.399  14.106  65.347  0.00  0.00    -0.245 OA
ENDBRANCH   8   9
ENDBRANCH   1   8
BRANCH   3  12
ATOM     12  O   UNL     1      -8.758  16.684  65.759  0.00  0.00    -0.454 OA
BRANCH  12  13
ATOM     13  C   UNL     1      -9.102  17.879  66.393  0.00  0.00    +0.145 A 
ATOM     14  C   UNL     1     -10.374  18.380  66.215  0.00  0.00    +0.037 A 
ATOM     15  C   UNL     1     -10.650  19.617  66.745  0.00  0.00    +0.003 A 
ATOM     16  C   UNL     1      -9.666  20.327  67.377  0.00  0.00    +0.000 A 
ATOM     17  C   UNL     1      -8.339  19.950  67.258  0.00  0.00    +0.003 A 
ATOM     18  C   UNL     1      -8.061  18.743  66.664  0.00  0.00    +0.037 A 
ENDBRANCH  12  13
ENDBRANCH   3  12
TORSDOF 4
ENDMDL
MODEL 9
REMARK VINA RESULT:      -6.0      2.418      3.331
REMARK  Name = 
REMARK  4 active torsions:
REMARK  status: ('A' for Active; 'I' for Inactive)
REMARK    1  A    between atoms: C_2  and  C_3
REMARK    2  A    between atoms: C_2  and  C_6
REMARK    3  A    between atoms: C_10  and  O_11
REMARK    4  A    between atoms: O_11  and  C_12
REMARK                            x       y       z     vdW  Elec       q    Type
REMARK                         _______ _______ _______ _____ _____    ______ ____
ROOT
ATOM      1  C   UNL     1      -9.196  17.070  68.231  0.00  0.00    -0.009 A 
ATOM      2  C   UNL     1     -10.466  17.160  68.725  0.00  0.00    +0.034 A 
ATOM      3  C   UNL     1     -11.080  15.962  69.074  0.00  0.00    +0.145 A 
ATOM      4  C   UNL     1     -10.473  14.761  68.726  0.00  0.00    +0.037 A 
ATOM      5  C   UNL     1      -9.400  14.797  67.842  0.00  0.00    +0.003 A 
ATOM      6  C   UNL     1      -8.716  15.985  67.607  0.00  0.00    -0.004 A 
ENDROOT
BRANCH   1   8
ATOM      7  C   UNL     1      -9.771  19.381  68.445  0.00  0.00    +0.017 C 
ATOM      8  C   UNL     1      -8.417  18.487  68.057  0.00  0.00    +0.126 C 
BRANCH   8   9
ATOM      9  C   UNL     1      -8.678  18.527  66.448  0.00  0.00    +0.368 C 
ATOM     10  O   UNL     1      -9.722  19.426  66.205  0.00  0.00    -0.245 OA
ATOM     11  O   UNL     1      -7.720  18.539  65.697  0.00  0.00    -0.245 OA
ENDBRANCH   8   9
ENDBRANCH   1   8
BRANCH   3  12
ATOM     12  O   UNL     1     -12.407  16.008  69.516  0.00  0.00    -0.454 OA
BRANCH  12  13
ATOM     13  C   UNL     1     -12.654  15.648  70.841  0.00  0.00    +0.145 A 
ATOM     14  C   UNL     1     -11.853  16.177  71.831  0.00  0.00    +0.037 A 
ATOM     15  C   UNL     1     -12.034  15.714  73.111  0.00  0.00    +0.003 A 
ATOM     16  C   UNL     1     -12.947  14.725  73.359  0.00  0.00    +0.000 A 
ATOM     17  C   UNL     1     -13.496  13.996  72.319  0.00  0.00    +0.003 A 
ATOM     18  C   UNL     1     -13.256  14.421  71.034  0.00  0.00    +0.037 A 
ENDBRANCH  12  13
ENDBRANCH   3  12
TORSDOF 4
ENDMDL
