MODEL 1
REMARK VINA RESULT:      -6.3      0.000      0.000
REMARK  Name = 
REMARK  2 active torsions:
REMARK  status: ('A' for Active; 'I' for Inactive)
REMARK    1  A    between atoms: C_2  and  C_3
REMARK    2  A    between atoms: C_21  and  C_22
REMARK                            x       y       z     vdW  Elec       q    Type
REMARK                         _______ _______ _______ _____ _____    ______ ____
ROOT
ATOM      1  C   UNL     1     -10.360  13.182  67.228  0.00  0.00    +0.180 C 
ATOM      2  C   UNL     1     -10.079  14.641  66.831  0.00  0.00    +0.037 C 
ATOM      3  C   UNL     1     -10.274  15.042  68.386  0.00  0.00    +0.003 C 
ATOM      4  C   UNL     1     -10.258  16.734  68.323  0.00  0.00    +0.001 C 
ATOM      5  C   UNL     1      -8.581  16.602  68.523  0.00  0.00    +0.004 C 
ATOM      6  C   UNL     1      -8.135  16.276  67.014  0.00  0.00    +0.000 C 
ATOM      7  C   UNL     1      -8.305  18.275  68.545  0.00  0.00    +0.019 C 
ATOM      8  C   UNL     1      -8.678  18.619  67.032  0.00  0.00    -0.042 C 
ATOM      9  C   UNL     1      -8.309  19.893  66.836  0.00  0.00    +0.029 C 
ATOM     10  C   UNL     1      -7.031  20.349  67.326  0.00  0.00    +0.173 C 
ATOM     11  C   UNL     1      -6.118  19.367  67.926  0.00  0.00    +0.069 C 
ATOM     12  O   UNL     1      -6.724  21.547  67.188  0.00  0.00    -0.291 OA
ATOM     13  C   UNL     1     -10.128  18.476  66.666  0.00  0.00    +0.022 C 
ATOM     14  C   UNL     1      -6.733  18.044  68.195  0.00  0.00    +0.012 C 
ATOM     15  C   UNL     1     -10.332  17.019  66.752  0.00  0.00    +0.004 C 
ATOM     16  C   UNL     1     -11.875  14.838  68.202  0.00  0.00    +0.004 C 
ATOM     17  C   UNL     1      -8.660  14.953  66.601  0.00  0.00    +0.003 C 
ATOM     18  C   UNL     1     -11.652  13.332  68.036  0.00  0.00    +0.043 C 
ATOM     19  O   UNL     1      -9.294  12.789  67.997  0.00  0.00    -0.212 OA
ENDROOT
BRANCH   1  21
ATOM     20  C   UNL     1     -10.691  11.785  65.476  0.00  0.00    -0.012 C 
ATOM     21  C   UNL     1     -10.588  12.332  66.045  0.00  0.00    -0.049 C 
ENDBRANCH   1  21
BRANCH   2  22
ATOM     22  C   UNL     1     -11.104  14.937  65.966  0.00  0.00    +0.003 C 
ATOM     23  C   UNL     1     -11.426  15.230  64.663  0.00  0.00    +0.000 C 
ENDBRANCH   2  22
TORSDOF 2
ENDMDL
MODEL 2
REMARK VINA RESULT:      -6.3      1.360      6.293
REMARK  Name = 
REMARK  2 active torsions:
REMARK  status: ('A' for Active; 'I' for Inactive)
REMARK    1  A    between atoms: C_2  and  C_3
REMARK    2  A    between atoms: C_21  and  C_22
REMARK                            x       y       z     vdW  Elec       q    Type
REMARK                         _______ _______ _______ _____ _____    ______ ____
ROOT
ATOM      1  C   UNL     1      -7.228  18.991  66.727  0.00  0.00    +0.180 C 
ATOM      2  C   UNL     1      -7.762  17.691  67.354  0.00  0.00    +0.037 C 
ATOM      3  C   UNL     1      -9.255  18.289  67.177  0.00  0.00    +0.003 C 
ATOM      4  C   UNL     1     -10.194  17.156  68.017  0.00  0.00    +0.001 C 
ATOM      5  C   UNL     1     -10.301  16.335  66.540  0.00  0.00    +0.004 C 
ATOM      6  C   UNL     1      -8.892  15.561  66.536  0.00  0.00    +0.000 C 
ATOM      7  C   UNL     1     -11.301  15.100  67.132  0.00  0.00    +0.019 C 
ATOM      8  C   UNL     1     -10.269  14.381  68.116  0.00  0.00    -0.042 C 
ATOM      9  C   UNL     1     -10.860  13.245  68.512  0.00  0.00    +0.029 C 
ATOM     10  C   UNL     1     -11.542  12.420  67.545  0.00  0.00    +0.173 C 
ATOM     11  C   UNL     1     -11.467  12.794  66.127  0.00  0.00    +0.069 C 
ATOM     12  O   UNL     1     -12.134  11.397  67.934  0.00  0.00    -0.291 OA
ATOM     13  C   UNL     1      -9.870  15.166  69.333  0.00  0.00    +0.022 C 
ATOM     14  C   UNL     1     -10.903  14.144  65.878  0.00  0.00    +0.012 C 
ATOM     15  C   UNL     1      -9.084  16.270  68.752  0.00  0.00    +0.004 C 
ATOM     16  C   UNL     1      -8.965  19.289  68.424  0.00  0.00    +0.004 C 
ATOM     17  C   UNL     1      -7.778  16.533  66.448  0.00  0.00    +0.003 C 
ATOM     18  C   UNL     1      -7.953  20.050  67.561  0.00  0.00    +0.043 C 
ATOM     19  O   UNL     1      -7.636  18.973  65.418  0.00  0.00    -0.212 OA
ENDROOT
BRANCH   1  21
ATOM     20  C   UNL     1      -4.983  19.247  66.894  0.00  0.00    -0.012 C 
ATOM     21  C   UNL     1      -5.768  19.113  66.895  0.00  0.00    -0.049 C 
ENDBRANCH   1  21
BRANCH   2  22
ATOM     22  C   UNL     1      -7.219  17.702  68.615  0.00  0.00    +0.003 C 
ATOM     23  C   UNL     1      -6.301  17.112  69.448  0.00  0.00    +0.000 C 
ENDBRANCH   2  22
TORSDOF 2
ENDMDL
MODEL 3
REMARK VINA RESULT:      -6.2      3.802      5.416
REMARK  Name = 
REMARK  2 active torsions:
REMARK  status: ('A' for Active; 'I' for Inactive)
REMARK    1  A    between atoms: C_2  and  C_3
REMARK    2  A    between atoms: C_21  and  C_22
REMARK                            x       y       z     vdW  Elec       q    Type
REMARK                         _______ _______ _______ _____ _____    ______ ____
ROOT
ATOM      1  C   UNL     1     -10.959  12.670  65.780  0.00  0.00    +0.180 C 
ATOM      2  C   UNL     1     -10.690  13.188  67.204  0.00  0.00    +0.037 C 
ATOM      3  C   UNL     1     -11.667  14.434  66.872  0.00  0.00    +0.003 C 
ATOM      4  C   UNL     1     -11.443  15.431  68.224  0.00  0.00    +0.001 C 
ATOM      5  C   UNL     1     -12.719  14.561  68.921  0.00  0.00    +0.004 C 
ATOM      6  C   UNL     1     -11.935  13.251  69.425  0.00  0.00    +0.000 C 
ATOM      7  C   UNL     1     -12.733  15.454  70.362  0.00  0.00    +0.019 C 
ATOM      8  C   UNL     1     -11.328  14.996  70.965  0.00  0.00    -0.042 C 
ATOM      9  C   UNL     1     -11.287  15.468  72.219  0.00  0.00    +0.029 C 
ATOM     10  C   UNL     1     -12.448  15.342  73.067  0.00  0.00    +0.173 C 
ATOM     11  C   UNL     1     -13.606  14.592  72.565  0.00  0.00    +0.069 C 
ATOM     12  O   UNL     1     -12.417  15.834  74.210  0.00  0.00    -0.291 OA
ATOM     13  C   UNL     1     -10.111  15.479  70.229  0.00  0.00    +0.022 C 
ATOM     14  C   UNL     1     -13.543  14.264  71.119  0.00  0.00    +0.012 C 
ATOM     15  C   UNL     1     -10.200  14.742  68.955  0.00  0.00    +0.004 C 
ATOM     16  C   UNL     1     -10.490  15.066  65.947  0.00  0.00    +0.004 C 
ATOM     17  C   UNL     1     -11.428  12.483  68.263  0.00  0.00    +0.003 C 
ATOM     18  C   UNL     1     -10.682  13.924  64.945  0.00  0.00    +0.043 C 
ATOM     19  O   UNL     1     -12.279  12.297  65.758  0.00  0.00    -0.212 OA
ENDROOT
BRANCH   1  21
ATOM     20  C   UNL     1      -9.605  10.970  65.141  0.00  0.00    -0.012 C 
ATOM     21  C   UNL     1     -10.026  11.589  65.411  0.00  0.00    -0.049 C 
ENDBRANCH   1  21
BRANCH   2  22
ATOM     22  C   UNL     1      -9.337  13.424  67.204  0.00  0.00    +0.003 C 
ATOM     23  C   UNL     1      -8.127  13.023  67.713  0.00  0.00    +0.000 C 
ENDBRANCH   2  22
TORSDOF 2
ENDMDL
MODEL 4
REMARK VINA RESULT:      -6.0      1.359      2.723
REMARK  Name = 
REMARK  2 active torsions:
REMARK  status: ('A' for Active; 'I' for Inactive)
REMARK    1  A    between atoms: C_2  and  C_3
REMARK    2  A    between atoms: C_21  and  C_22
REMARK                            x       y       z     vdW  Elec       q    Type
REMARK                         _______ _______ _______ _____ _____    ______ ____
ROOT
ATOM      1  C   UNL     1     -11.202  13.011  67.591  0.00  0.00    +0.180 C 
ATOM      2  C   UNL     1     -10.112  14.097  67.579  0.00  0.00    +0.037 C 
ATOM      3  C   UNL     1     -10.786  14.675  66.226  0.00  0.00    +0.003 C 
ATOM      4  C   UNL     1      -9.657  15.838  65.734  0.00  0.00    +0.001 C 
ATOM      5  C   UNL     1     -10.544  16.921  66.689  0.00  0.00    +0.004 C 
ATOM      6  C   UNL     1      -9.953  16.576  68.143  0.00  0.00    +0.000 C 
ATOM      7  C   UNL     1      -9.587  18.268  66.307  0.00  0.00    +0.019 C 
ATOM      8  C   UNL     1      -8.233  17.838  67.034  0.00  0.00    -0.042 C 
ATOM      9  C   UNL     1      -7.429  18.911  66.993  0.00  0.00    +0.029 C 
ATOM     10  C   UNL     1      -7.964  20.215  67.302  0.00  0.00    +0.173 C 
ATOM     11  C   UNL     1      -9.354  20.311  67.767  0.00  0.00    +0.069 C 
ATOM     12  O   UNL     1      -7.223  21.209  67.206  0.00  0.00    -0.291 OA
ATOM     13  C   UNL     1      -7.507  16.671  66.428  0.00  0.00    +0.022 C 
ATOM     14  C   UNL     1     -10.138  19.060  67.617  0.00  0.00    +0.012 C 
ATOM     15  C   UNL     1      -8.423  15.550  66.709  0.00  0.00    +0.004 C 
ATOM     16  C   UNL     1     -10.156  13.414  65.416  0.00  0.00    +0.004 C 
ATOM     17  C   UNL     1     -10.330  15.196  68.532  0.00  0.00    +0.003 C 
ATOM     18  C   UNL     1     -11.112  12.476  66.159  0.00  0.00    +0.043 C 
ATOM     19  O   UNL     1     -12.382  13.663  67.843  0.00  0.00    -0.212 OA
ENDROOT
BRANCH   1  21
ATOM     20  C   UNL     1     -10.835  11.341  69.077  0.00  0.00    -0.012 C 
ATOM     21  C   UNL     1     -10.891  11.943  68.560  0.00  0.00    -0.049 C 
ENDBRANCH   1  21
BRANCH   2  22
ATOM     22  C   UNL     1      -8.949  13.378  67.452  0.00  0.00    +0.003 C 
ATOM     23  C   UNL     1      -7.783  13.009  68.076  0.00  0.00    +0.000 C 
ENDBRANCH   2  22
TORSDOF 2
ENDMDL
MODEL 5
REMARK VINA RESULT:      -5.9      1.551      6.277
REMARK  Name = 
REMARK  2 active torsions:
REMARK  status: ('A' for Active; 'I' for Inactive)
REMARK    1  A    between atoms: C_2  and  C_3
REMARK    2  A    between atoms: C_21  and  C_22
REMARK                            x       y       z     vdW  Elec       q    Type
REMARK                         _______ _______ _______ _____ _____    ______ ____
ROOT
ATOM      1  C   UNL     1      -8.744  19.021  67.392  0.00  0.00    +0.180 C 
ATOM      2  C   UNL     1      -8.682  17.483  67.431  0.00  0.00    +0.037 C 
ATOM      3  C   UNL     1     -10.298  17.478  67.512  0.00  0.00    +0.003 C 
ATOM      4  C   UNL     1     -10.634  15.845  67.813  0.00  0.00    +0.001 C 
ATOM      5  C   UNL     1     -10.675  15.672  66.128  0.00  0.00    +0.004 C 
ATOM      6  C   UNL     1      -9.103  15.565  65.810  0.00  0.00    +0.000 C 
ATOM      7  C   UNL     1     -11.070  14.024  66.161  0.00  0.00    +0.019 C 
ATOM      8  C   UNL     1      -9.712  13.444  66.765  0.00  0.00    -0.042 C 
ATOM      9  C   UNL     1      -9.795  12.109  66.660  0.00  0.00    +0.029 C 
ATOM     10  C   UNL     1     -10.284  11.519  65.438  0.00  0.00    +0.173 C 
ATOM     11  C   UNL     1     -10.569  12.400  64.298  0.00  0.00    +0.069 C 
ATOM     12  O   UNL     1     -10.410  10.283  65.374  0.00  0.00    -0.291 OA
ATOM     13  C   UNL     1      -9.429  13.797  68.198  0.00  0.00    +0.022 C 
ATOM     14  C   UNL     1     -10.563  13.847  64.625  0.00  0.00    +0.012 C 
ATOM     15  C   UNL     1      -9.184  15.249  68.121  0.00  0.00    +0.004 C 
ATOM     16  C   UNL     1     -10.187  17.960  69.060  0.00  0.00    +0.004 C 
ATOM     17  C   UNL     1      -8.430  16.846  66.130  0.00  0.00    +0.003 C 
ATOM     18  C   UNL     1      -9.656  19.316  68.586  0.00  0.00    +0.043 C 
ATOM     19  O   UNL     1      -9.320  19.344  66.190  0.00  0.00    -0.212 OA
ENDROOT
BRANCH   1  21
ATOM     20  C   UNL     1      -6.717  20.005  67.614  0.00  0.00    -0.012 C 
ATOM     21  C   UNL     1      -7.414  19.622  67.599  0.00  0.00    -0.049 C 
ENDBRANCH   1  21
BRANCH   2  22
ATOM     22  C   UNL     1      -7.988  17.224  68.587  0.00  0.00    +0.003 C 
ATOM     23  C   UNL     1      -6.849  16.663  69.112  0.00  0.00    +0.000 C 
ENDBRANCH   2  22
TORSDOF 2
ENDMDL
MODEL 6
REMARK VINA RESULT:      -5.9      3.113      5.248
REMARK  Name = 
REMARK  2 active torsions:
REMARK  status: ('A' for Active; 'I' for Inactive)
REMARK    1  A    between atoms: C_2  and  C_3
REMARK    2  A    between atoms: C_21  and  C_22
REMARK                            x       y       z     vdW  Elec       q    Type
REMARK                         _______ _______ _______ _____ _____    ______ ____
ROOT
ATOM      1  C   UNL     1      -8.889   9.493  69.195  0.00  0.00    +0.180 C 
ATOM      2  C   UNL     1      -9.464  10.326  68.036  0.00  0.00    +0.037 C 
ATOM      3  C   UNL     1     -10.311  11.161  69.133  0.00  0.00    +0.003 C 
ATOM      4  C   UNL     1     -11.322  12.107  68.157  0.00  0.00    +0.001 C 
ATOM      5  C   UNL     1     -10.072  13.251  68.187  0.00  0.00    +0.004 C 
ATOM      6  C   UNL     1      -9.101  12.648  67.057  0.00  0.00    +0.000 C 
ATOM      7  C   UNL     1     -10.905  14.401  67.261  0.00  0.00    +0.019 C 
ATOM      8  C   UNL     1     -10.944  13.629  65.864  0.00  0.00    -0.042 C 
ATOM      9  C   UNL     1     -11.400  14.511  64.962  0.00  0.00    +0.029 C 
ATOM     10  C   UNL     1     -10.890  15.860  64.962  0.00  0.00    +0.173 C 
ATOM     11  C   UNL     1      -9.795  16.196  65.882  0.00  0.00    +0.069 C 
ATOM     12  O   UNL     1     -11.362  16.684  64.158  0.00  0.00    -0.291 OA
ATOM     13  C   UNL     1     -11.810  12.403  65.818  0.00  0.00    +0.022 C 
ATOM     14  C   UNL     1      -9.511  15.157  66.902  0.00  0.00    +0.012 C 
ATOM     15  C   UNL     1     -11.088  11.475  66.708  0.00  0.00    +0.004 C 
ATOM     16  C   UNL     1     -11.303   9.883  69.288  0.00  0.00    +0.004 C 
ATOM     17  C   UNL     1      -8.551  11.346  67.500  0.00  0.00    +0.003 C 
ATOM     18  C   UNL     1     -10.165   9.096  69.944  0.00  0.00    +0.043 C 
ATOM     19  O   UNL     1      -8.095  10.348  69.915  0.00  0.00    -0.212 OA
ENDROOT
BRANCH   1  21
ATOM     20  C   UNL     1      -7.711   7.694  68.483  0.00  0.00    -0.012 C 
ATOM     21  C   UNL     1      -8.185   8.294  68.704  0.00  0.00    -0.049 C 
ENDBRANCH   1  21
BRANCH   2  22
ATOM     22  C   UNL     1     -10.141   9.397  67.284  0.00  0.00    +0.003 C 
ATOM     23  C   UNL     1     -10.143   8.690  66.107  0.00  0.00    +0.000 C 
ENDBRANCH   2  22
TORSDOF 2
ENDMDL
MODEL 7
REMARK VINA RESULT:      -5.8      5.457      7.353
REMARK  Name = 
REMARK  2 active torsions:
REMARK  status: ('A' for Active; 'I' for Inactive)
REMARK    1  A    between atoms: C_2  and  C_3
REMARK    2  A    between atoms: C_21  and  C_22
REMARK                            x       y       z     vdW  Elec       q    Type
REMARK                         _______ _______ _______ _____ _____    ______ ____
ROOT
ATOM      1  C   UNL     1      -8.975   7.732  69.316  0.00  0.00    +0.180 C 
ATOM      2  C   UNL     1      -9.875   8.857  68.776  0.00  0.00    +0.037 C 
ATOM      3  C   UNL     1      -8.533   9.614  68.280  0.00  0.00    +0.003 C 
ATOM      4  C   UNL     1      -9.134  11.119  67.788  0.00  0.00    +0.001 C 
ATOM      5  C   UNL     1      -9.341  10.399  66.268  0.00  0.00    +0.004 C 
ATOM      6  C   UNL     1     -10.729   9.623  66.502  0.00  0.00    +0.000 C 
ATOM      7  C   UNL     1      -9.925  11.805  65.520  0.00  0.00    +0.019 C 
ATOM      8  C   UNL     1     -11.319  11.945  66.284  0.00  0.00    -0.042 C 
ATOM      9  C   UNL     1     -11.999  12.910  65.649  0.00  0.00    +0.029 C 
ATOM     10  C   UNL     1     -12.026  12.933  64.207  0.00  0.00    +0.173 C 
ATOM     11  C   UNL     1     -11.400  11.824  63.476  0.00  0.00    +0.069 C 
ATOM     12  O   UNL     1     -12.612  13.866  63.629  0.00  0.00    -0.291 OA
ATOM     13  C   UNL     1     -11.234  12.296  67.743  0.00  0.00    +0.022 C 
ATOM     14  C   UNL     1     -10.575  10.923  64.318  0.00  0.00    +0.012 C 
ATOM     15  C   UNL     1     -10.639  11.079  68.325  0.00  0.00    +0.004 C 
ATOM     16  C   UNL     1      -8.225  10.005  69.827  0.00  0.00    +0.004 C 
ATOM     17  C   UNL     1     -10.548   8.548  67.506  0.00  0.00    +0.003 C 
ATOM     18  C   UNL     1      -7.953   8.529  70.133  0.00  0.00    +0.043 C 
ATOM     19  O   UNL     1      -8.422   7.130  68.215  0.00  0.00    -0.212 OA
ENDROOT
BRANCH   1  21
ATOM     20  C   UNL     1     -10.070   6.229  70.609  0.00  0.00    -0.012 C 
ATOM     21  C   UNL     1      -9.725   6.810  70.189  0.00  0.00    -0.049 C 
ENDBRANCH   1  21
BRANCH   2  22
ATOM     22  C   UNL     1     -10.494   9.337  69.904  0.00  0.00    +0.003 C 
ATOM     23  C   UNL     1     -11.693   9.456  70.562  0.00  0.00    +0.000 C 
ENDBRANCH   2  22
TORSDOF 2
ENDMDL
MODEL 8
REMARK VINA RESULT:      -5.6      1.616      6.809
REMARK  Name = 
REMARK  2 active torsions:
REMARK  status: ('A' for Active; 'I' for Inactive)
REMARK    1  A    between atoms: C_2  and  C_3
REMARK    2  A    between atoms: C_21  and  C_22
REMARK                            x       y       z     vdW  Elec       q    Type
REMARK                         _______ _______ _______ _____ _____    ______ ____
ROOT
ATOM      1  C   UNL     1      -5.738  20.822  67.618  0.00  0.00    +0.180 C 
ATOM      2  C   UNL     1      -6.099  19.351  67.341  0.00  0.00    +0.037 C 
ATOM      3  C   UNL     1      -7.239  19.477  68.483  0.00  0.00    +0.003 C 
ATOM      4  C   UNL     1      -7.757  17.873  68.646  0.00  0.00    +0.001 C 
ATOM      5  C   UNL     1      -8.876  18.241  67.428  0.00  0.00    +0.004 C 
ATOM      6  C   UNL     1      -7.946  18.088  66.126  0.00  0.00    +0.000 C 
ATOM      7  C   UNL     1      -9.607  16.712  67.435  0.00  0.00    +0.019 C 
ATOM      8  C   UNL     1      -8.398  15.843  66.861  0.00  0.00    -0.042 C 
ATOM      9  C   UNL     1      -8.897  14.624  66.613  0.00  0.00    +0.029 C 
ATOM     10  C   UNL     1     -10.176  14.496  65.958  0.00  0.00    +0.173 C 
ATOM     11  C   UNL     1     -10.843  15.714  65.477  0.00  0.00    +0.069 C 
ATOM     12  O   UNL     1     -10.655  13.361  65.785  0.00  0.00    -0.291 OA
ATOM     13  C   UNL     1      -7.207  15.701  67.765  0.00  0.00    +0.022 C 
ATOM     14  C   UNL     1     -10.231  16.977  65.957  0.00  0.00    +0.012 C 
ATOM     15  C   UNL     1      -6.667  17.072  67.794  0.00  0.00    +0.004 C 
ATOM     16  C   UNL     1      -6.067  19.436  69.608  0.00  0.00    +0.004 C 
ATOM     17  C   UNL     1      -6.895  19.133  66.124  0.00  0.00    +0.003 C 
ATOM     18  C   UNL     1      -5.589  20.815  69.142  0.00  0.00    +0.043 C 
ATOM     19  O   UNL     1      -6.813  21.560  67.192  0.00  0.00    -0.212 OA
ENDROOT
BRANCH   1  21
ATOM     20  C   UNL     1      -3.831  21.494  66.599  0.00  0.00    -0.012 C 
ATOM     21  C   UNL     1      -4.464  21.197  66.977  0.00  0.00    -0.049 C 
ENDBRANCH   1  21
BRANCH   2  22
ATOM     22  C   UNL     1      -4.948  18.677  67.665  0.00  0.00    +0.003 C 
ATOM     23  C   UNL     1      -3.907  17.928  67.172  0.00  0.00    +0.000 C 
ENDBRANCH   2  22
TORSDOF 2
ENDMDL
MODEL 9
REMARK VINA RESULT:      -5.6      1.848      6.821
REMARK  Name = 
REMARK  2 active torsions:
REMARK  status: ('A' for Active; 'I' for Inactive)
REMARK    1  A    between atoms: C_2  and  C_3
REMARK    2  A    between atoms: C_21  and  C_22
REMARK                            x       y       z     vdW  Elec       q    Type
REMARK                         _______ _______ _______ _____ _____    ______ ____
ROOT
ATOM      1  C   UNL     1      -4.421  19.876  67.577  0.00  0.00    +0.180 C 
ATOM      2  C   UNL     1      -5.755  19.262  68.037  0.00  0.00    +0.037 C 
ATOM      3  C   UNL     1      -6.358  19.626  66.580  0.00  0.00    +0.003 C 
ATOM      4  C   UNL     1      -8.004  19.279  66.779  0.00  0.00    +0.001 C 
ATOM      5  C   UNL     1      -7.607  17.712  66.271  0.00  0.00    +0.004 C 
ATOM      6  C   UNL     1      -7.038  17.098  67.643  0.00  0.00    +0.000 C 
ATOM      7  C   UNL     1      -9.198  17.130  66.338  0.00  0.00    +0.019 C 
ATOM      8  C   UNL     1      -9.426  17.181  67.917  0.00  0.00    -0.042 C 
ATOM      9  C   UNL     1     -10.587  16.550  68.148  0.00  0.00    +0.029 C 
ATOM     10  C   UNL     1     -10.867  15.305  67.475  0.00  0.00    +0.173 C 
ATOM     11  C   UNL     1      -9.817  14.705  66.642  0.00  0.00    +0.069 C 
ATOM     12  O   UNL     1     -11.970  14.757  67.654  0.00  0.00    -0.291 OA
ATOM     13  C   UNL     1      -9.496  18.553  68.524  0.00  0.00    +0.022 C 
ATOM     14  C   UNL     1      -8.660  15.596  66.379  0.00  0.00    +0.012 C 
ATOM     15  C   UNL     1      -8.115  19.042  68.356  0.00  0.00    +0.004 C 
ATOM     16  C   UNL     1      -6.415  21.186  67.033  0.00  0.00    +0.004 C 
ATOM     17  C   UNL     1      -5.788  17.792  68.032  0.00  0.00    +0.003 C 
ATOM     18  C   UNL     1      -4.884  21.230  67.030  0.00  0.00    +0.043 C 
ATOM     19  O   UNL     1      -3.941  19.044  66.599  0.00  0.00    -0.212 OA
ENDROOT
BRANCH   1  21
ATOM     20  C   UNL     1      -2.931  20.232  69.245  0.00  0.00    -0.012 C 
ATOM     21  C   UNL     1      -3.494  20.068  68.708  0.00  0.00    -0.049 C 
ENDBRANCH   1  21
BRANCH   2  22
ATOM     22  C   UNL     1      -6.123  20.059  69.093  0.00  0.00    +0.003 C 
ATOM     23  C   UNL     1      -6.232  20.132  70.460  0.00  0.00    +0.000 C 
ENDBRANCH   2  22
TORSDOF 2
ENDMDL
