MODEL 1
REMARK VINA RESULT:      -4.8      0.000      0.000
REMARK  Name = 
REMARK  3 active torsions:
REMARK  status: ('A' for Active; 'I' for Inactive)
REMARK    1  A    between atoms: C_5  and  N_6
REMARK    2  A    between atoms: N_9  and  C_10
REMARK    3  A    between atoms: C_10  and  C_11
REMARK                            x       y       z     vdW  Elec       q    Type
REMARK                         _______ _______ _______ _____ _____    ______ ____
ROOT
ATOM      1  C   UNL     1     -11.745  12.826  68.406  0.00  0.00    +0.072 C 
ATOM      2  C   UNL     1     -11.141  13.820  67.551  0.00  0.00    +0.125 A 
ATOM      3  N   UNL     1     -11.338  13.845  66.215  0.00  0.00    -0.255 N 
ATOM      4  C   UNL     1     -11.011  15.064  65.720  0.00  0.00    +0.378 A 
ATOM      5  C   UNL     1     -10.602  15.835  66.800  0.00  0.00    +0.195 A 
ATOM      6  N   UNL     1     -10.705  15.044  67.886  0.00  0.00    -0.223 NA
ENDROOT
BRANCH   4   7
ATOM      7  N   UNL     1     -11.481  15.606  64.478  0.00  0.00    +0.101 N 
ATOM      8  O   UNL     1     -12.672  15.090  63.994  0.00  0.00    -0.575 OA
ATOM      9  O   UNL     1     -11.284  16.805  64.219  0.00  0.00    +0.043 OA
ENDBRANCH   4   7
BRANCH   3  10
ATOM     10  C   UNL     1     -11.722  12.685  65.414  0.00  0.00    +0.146 C 
BRANCH  10  11
ATOM     11  C   UNL     1     -10.218  12.206  64.929  0.00  0.00    +0.175 C 
ATOM     12  O   UNL     1     -10.450  10.795  65.446  0.00  0.00    -0.221 OA
ATOM     13  C   UNL     1     -10.769  11.809  63.425  0.00  0.00    +0.038 C 
ENDBRANCH  10  11
ENDBRANCH   3  10
TORSDOF 3
ENDMDL
MODEL 2
REMARK VINA RESULT:      -4.8      2.355      4.113
REMARK  Name = 
REMARK  3 active torsions:
REMARK  status: ('A' for Active; 'I' for Inactive)
REMARK    1  A    between atoms: C_5  and  N_6
REMARK    2  A    between atoms: N_9  and  C_10
REMARK    3  A    between atoms: C_10  and  C_11
REMARK                            x       y       z     vdW  Elec       q    Type
REMARK                         _______ _______ _______ _____ _____    ______ ____
ROOT
ATOM      1  C   UNL     1     -10.253  17.806  67.213  0.00  0.00    +0.072 C 
ATOM      2  C   UNL     1     -10.281  16.471  66.666  0.00  0.00    +0.125 A 
ATOM      3  N   UNL     1     -11.131  15.521  67.113  0.00  0.00    -0.255 N 
ATOM      4  C   UNL     1     -11.238  14.526  66.198  0.00  0.00    +0.378 A 
ATOM      5  C   UNL     1     -10.426  14.880  65.128  0.00  0.00    +0.195 A 
ATOM      6  N   UNL     1      -9.875  16.066  65.453  0.00  0.00    -0.223 NA
ENDROOT
BRANCH   4   7
ATOM      7  N   UNL     1     -12.331  13.602  66.105  0.00  0.00    +0.101 N 
ATOM      8  O   UNL     1     -13.266  13.853  65.114  0.00  0.00    -0.575 OA
ATOM      9  O   UNL     1     -12.140  12.399  66.353  0.00  0.00    +0.043 OA
ENDBRANCH   4   7
BRANCH   3  10
ATOM     10  C   UNL     1     -11.738  15.513  68.442  0.00  0.00    +0.146 C 
BRANCH  10  11
ATOM     11  C   UNL     1     -10.691  14.477  69.189  0.00  0.00    +0.175 C 
ATOM     12  O   UNL     1     -10.604  15.374  70.413  0.00  0.00    -0.221 OA
ATOM     13  C   UNL     1     -11.932  13.606  69.841  0.00  0.00    +0.038 C 
ENDBRANCH  10  11
ENDBRANCH   3  10
TORSDOF 3
ENDMDL
MODEL 3
REMARK VINA RESULT:      -4.7      1.740      3.271
REMARK  Name = 
REMARK  3 active torsions:
REMARK  status: ('A' for Active; 'I' for Inactive)
REMARK    1  A    between atoms: C_5  and  N_6
REMARK    2  A    between atoms: N_9  and  C_10
REMARK    3  A    between atoms: C_10  and  C_11
REMARK                            x       y       z     vdW  Elec       q    Type
REMARK                         _______ _______ _______ _____ _____    ______ ____
ROOT
ATOM      1  C   UNL     1     -11.539  11.606  63.581  0.00  0.00    +0.072 C 
ATOM      2  C   UNL     1     -11.873  12.873  64.189  0.00  0.00    +0.125 A 
ATOM      3  N   UNL     1     -11.224  13.352  65.273  0.00  0.00    -0.255 N 
ATOM      4  C   UNL     1     -11.441  14.685  65.391  0.00  0.00    +0.378 A 
ATOM      5  C   UNL     1     -12.253  15.053  64.326  0.00  0.00    +0.195 A 
ATOM      6  N   UNL     1     -12.481  13.926  63.622  0.00  0.00    -0.223 NA
ENDROOT
BRANCH   4   7
ATOM      7  N   UNL     1     -10.605  15.598  66.116  0.00  0.00    +0.101 N 
ATOM      8  O   UNL     1     -10.027  16.619  65.380  0.00  0.00    -0.575 OA
ATOM      9  O   UNL     1     -10.892  15.893  67.288  0.00  0.00    +0.043 OA
ENDBRANCH   4   7
BRANCH   3  10
ATOM     10  C   UNL     1     -10.506  12.525  66.240  0.00  0.00    +0.146 C 
BRANCH  10  11
ATOM     11  C   UNL     1     -11.684  12.408  67.392  0.00  0.00    +0.175 C 
ATOM     12  O   UNL     1     -11.646  10.889  67.341  0.00  0.00    -0.221 OA
ATOM     13  C   UNL     1     -10.572  12.453  68.610  0.00  0.00    +0.038 C 
ENDBRANCH  10  11
ENDBRANCH   3  10
TORSDOF 3
ENDMDL
MODEL 4
REMARK VINA RESULT:      -4.7      2.144      3.582
REMARK  Name = 
REMARK  3 active torsions:
REMARK  status: ('A' for Active; 'I' for Inactive)
REMARK    1  A    between atoms: C_5  and  N_6
REMARK    2  A    between atoms: N_9  and  C_10
REMARK    3  A    between atoms: C_10  and  C_11
REMARK                            x       y       z     vdW  Elec       q    Type
REMARK                         _______ _______ _______ _____ _____    ______ ____
ROOT
ATOM      1  C   UNL     1     -11.291  11.582  67.092  0.00  0.00    +0.072 C 
ATOM      2  C   UNL     1     -11.750  12.753  66.384  0.00  0.00    +0.125 A 
ATOM      3  N   UNL     1     -11.232  13.982  66.600  0.00  0.00    -0.255 N 
ATOM      4  C   UNL     1     -11.533  14.801  65.562  0.00  0.00    +0.378 A 
ATOM      5  C   UNL     1     -12.263  14.043  64.655  0.00  0.00    +0.195 A 
ATOM      6  N   UNL     1     -12.362  12.811  65.191  0.00  0.00    -0.223 NA
ENDROOT
BRANCH   4   7
ATOM      7  N   UNL     1     -10.821  15.997  65.219  0.00  0.00    +0.101 N 
ATOM      8  O   UNL     1      -9.443  15.955  65.362  0.00  0.00    -0.575 OA
ATOM      9  O   UNL     1     -11.230  16.709  64.286  0.00  0.00    +0.043 OA
ENDBRANCH   4   7
BRANCH   3  10
ATOM     10  C   UNL     1     -10.561  14.392  67.831  0.00  0.00    +0.146 C 
BRANCH  10  11
ATOM     11  C   UNL     1     -11.863  15.021  68.628  0.00  0.00    +0.175 C 
ATOM     12  O   UNL     1     -11.547  14.213  69.876  0.00  0.00    -0.221 OA
ATOM     13  C   UNL     1     -10.981  16.308  69.166  0.00  0.00    +0.038 C 
ENDBRANCH  10  11
ENDBRANCH   3  10
TORSDOF 3
ENDMDL
MODEL 5
REMARK VINA RESULT:      -4.7      1.602      3.685
REMARK  Name = 
REMARK  3 active torsions:
REMARK  status: ('A' for Active; 'I' for Inactive)
REMARK    1  A    between atoms: C_5  and  N_6
REMARK    2  A    between atoms: N_9  and  C_10
REMARK    3  A    between atoms: C_10  and  C_11
REMARK                            x       y       z     vdW  Elec       q    Type
REMARK                         _______ _______ _______ _____ _____    ______ ____
ROOT
ATOM      1  C   UNL     1     -10.300  16.204  65.964  0.00  0.00    +0.072 C 
ATOM      2  C   UNL     1     -11.026  15.245  66.764  0.00  0.00    +0.125 A 
ATOM      3  N   UNL     1     -11.097  13.936  66.441  0.00  0.00    -0.255 N 
ATOM      4  C   UNL     1     -11.471  13.211  67.524  0.00  0.00    +0.378 A 
ATOM      5  C   UNL     1     -11.630  14.110  68.570  0.00  0.00    +0.195 A 
ATOM      6  N   UNL     1     -11.341  15.326  68.066  0.00  0.00    -0.223 NA
ENDROOT
BRANCH   4   7
ATOM      7  N   UNL     1     -11.238  11.807  67.700  0.00  0.00    +0.101 N 
ATOM      8  O   UNL     1     -10.019  11.451  68.256  0.00  0.00    -0.575 OA
ATOM      9  O   UNL     1     -12.186  11.059  67.992  0.00  0.00    +0.043 OA
ENDBRANCH   4   7
BRANCH   3  10
ATOM     10  C   UNL     1     -10.922  13.406  65.091  0.00  0.00    +0.146 C 
BRANCH  10  11
ATOM     11  C   UNL     1     -12.502  13.079  64.743  0.00  0.00    +0.175 C 
ATOM     12  O   UNL     1     -12.582  14.254  63.781  0.00  0.00    -0.221 OA
ATOM     13  C   UNL     1     -12.078  12.041  63.533  0.00  0.00    +0.038 C 
ENDBRANCH  10  11
ENDBRANCH   3  10
TORSDOF 3
ENDMDL
MODEL 6
REMARK VINA RESULT:      -4.6      1.943      2.513
REMARK  Name = 
REMARK  3 active torsions:
REMARK  status: ('A' for Active; 'I' for Inactive)
REMARK    1  A    between atoms: C_5  and  N_6
REMARK    2  A    between atoms: N_9  and  C_10
REMARK    3  A    between atoms: C_10  and  C_11
REMARK                            x       y       z     vdW  Elec       q    Type
REMARK                         _______ _______ _______ _____ _____    ______ ____
ROOT
ATOM      1  C   UNL     1     -12.013  15.849  69.851  0.00  0.00    +0.072 C 
ATOM      2  C   UNL     1     -11.171  16.000  68.688  0.00  0.00    +0.125 A 
ATOM      3  N   UNL     1     -11.328  15.248  67.576  0.00  0.00    -0.255 N 
ATOM      4  C   UNL     1     -10.710  15.841  66.525  0.00  0.00    +0.378 A 
ATOM      5  C   UNL     1     -10.153  17.020  67.003  0.00  0.00    +0.195 A 
ATOM      6  N   UNL     1     -10.465  17.077  68.313  0.00  0.00    -0.223 NA
ENDROOT
BRANCH   4   7
ATOM      7  N   UNL     1     -11.010  15.597  65.144  0.00  0.00    +0.101 N 
ATOM      8  O   UNL     1     -11.234  16.715  64.357  0.00  0.00    -0.575 OA
ATOM      9  O   UNL     1     -10.473  14.642  64.558  0.00  0.00    +0.043 OA
ENDBRANCH   4   7
BRANCH   3  10
ATOM     10  C   UNL     1     -11.959  13.931  67.550  0.00  0.00    +0.146 C 
BRANCH  10  11
ATOM     11  C   UNL     1     -10.608  13.002  67.744  0.00  0.00    +0.175 C 
ATOM     12  O   UNL     1     -11.151  12.399  69.030  0.00  0.00    -0.221 OA
ATOM     13  C   UNL     1     -11.248  11.784  66.833  0.00  0.00    +0.038 C 
ENDBRANCH  10  11
ENDBRANCH   3  10
TORSDOF 3
ENDMDL
MODEL 7
REMARK VINA RESULT:      -4.6      1.960      2.779
REMARK  Name = 
REMARK  3 active torsions:
REMARK  status: ('A' for Active; 'I' for Inactive)
REMARK    1  A    between atoms: C_5  and  N_6
REMARK    2  A    between atoms: N_9  and  C_10
REMARK    3  A    between atoms: C_10  and  C_11
REMARK                            x       y       z     vdW  Elec       q    Type
REMARK                         _______ _______ _______ _____ _____    ______ ____
ROOT
ATOM      1  C   UNL     1      -8.864  15.640  67.394  0.00  0.00    +0.072 C 
ATOM      2  C   UNL     1      -9.610  15.570  66.160  0.00  0.00    +0.125 A 
ATOM      3  N   UNL     1     -10.257  14.452  65.765  0.00  0.00    -0.255 N 
ATOM      4  C   UNL     1     -11.180  14.760  64.820  0.00  0.00    +0.378 A 
ATOM      5  C   UNL     1     -11.110  16.134  64.628  0.00  0.00    +0.195 A 
ATOM      6  N   UNL     1     -10.153  16.581  65.465  0.00  0.00    -0.223 NA
ENDROOT
BRANCH   4   7
ATOM      7  N   UNL     1     -12.323  13.960  64.490  0.00  0.00    +0.101 N 
ATOM      8  O   UNL     1     -13.407  14.052  65.347  0.00  0.00    -0.575 OA
ATOM      9  O   UNL     1     -12.612  13.767  63.297  0.00  0.00    +0.043 OA
ENDBRANCH   4   7
BRANCH   3  10
ATOM     10  C   UNL     1      -9.915  13.101  66.202  0.00  0.00    +0.146 C 
BRANCH  10  11
ATOM     11  C   UNL     1     -10.966  12.975  67.470  0.00  0.00    +0.175 C 
ATOM     12  O   UNL     1     -11.626  11.749  66.861  0.00  0.00    -0.221 OA
ATOM     13  C   UNL     1      -9.904  12.050  68.329  0.00  0.00    +0.038 C 
ENDBRANCH  10  11
ENDBRANCH   3  10
TORSDOF 3
ENDMDL
MODEL 8
REMARK VINA RESULT:      -4.4      2.124      4.017
REMARK  Name = 
REMARK  3 active torsions:
REMARK  status: ('A' for Active; 'I' for Inactive)
REMARK    1  A    between atoms: C_5  and  N_6
REMARK    2  A    between atoms: N_9  and  C_10
REMARK    3  A    between atoms: C_10  and  C_11
REMARK                            x       y       z     vdW  Elec       q    Type
REMARK                         _______ _______ _______ _____ _____    ______ ____
ROOT
ATOM      1  C   UNL     1      -8.344  14.383  67.841  0.00  0.00    +0.072 C 
ATOM      2  C   UNL     1      -9.644  14.406  67.214  0.00  0.00    +0.125 A 
ATOM      3  N   UNL     1     -10.051  15.422  66.423  0.00  0.00    -0.255 N 
ATOM      4  C   UNL     1     -11.100  15.026  65.661  0.00  0.00    +0.378 A 
ATOM      5  C   UNL     1     -11.349  13.698  65.986  0.00  0.00    +0.195 A 
ATOM      6  N   UNL     1     -10.439  13.365  66.922  0.00  0.00    -0.223 NA
ENDROOT
BRANCH   4   7
ATOM      7  N   UNL     1     -11.510  15.642  64.433  0.00  0.00    +0.101 N 
ATOM      8  O   UNL     1     -12.659  15.138  63.845  0.00  0.00    -0.575 OA
ATOM      9  O   UNL     1     -11.326  16.860  64.267  0.00  0.00    +0.043 OA
ENDBRANCH   4   7
BRANCH   3  10
ATOM     10  C   UNL     1      -9.518  16.781  66.483  0.00  0.00    +0.146 C 
BRANCH  10  11
ATOM     11  C   UNL     1     -10.487  17.378  67.679  0.00  0.00    +0.175 C 
ATOM     12  O   UNL     1      -9.287  17.695  68.557  0.00  0.00    -0.221 OA
ATOM     13  C   UNL     1     -10.473  18.888  67.012  0.00  0.00    +0.038 C 
ENDBRANCH  10  11
ENDBRANCH   3  10
TORSDOF 3
ENDMDL
MODEL 9
REMARK VINA RESULT:      -4.4      1.940      2.544
REMARK  Name = 
REMARK  3 active torsions:
REMARK  status: ('A' for Active; 'I' for Inactive)
REMARK    1  A    between atoms: C_5  and  N_6
REMARK    2  A    between atoms: N_9  and  C_10
REMARK    3  A    between atoms: C_10  and  C_11
REMARK                            x       y       z     vdW  Elec       q    Type
REMARK                         _______ _______ _______ _____ _____    ______ ____
ROOT
ATOM      1  C   UNL     1     -12.133  14.204  69.258  0.00  0.00    +0.072 C 
ATOM      2  C   UNL     1     -11.231  15.253  68.844  0.00  0.00    +0.125 A 
ATOM      3  N   UNL     1     -10.537  15.199  67.686  0.00  0.00    -0.255 N 
ATOM      4  C   UNL     1     -10.099  16.438  67.351  0.00  0.00    +0.378 A 
ATOM      5  C   UNL     1     -10.550  17.302  68.340  0.00  0.00    +0.195 A 
ATOM      6  N   UNL     1     -11.236  16.542  69.217  0.00  0.00    -0.223 NA
ENDROOT
BRANCH   4   7
ATOM      7  N   UNL     1      -9.728  16.854  66.030  0.00  0.00    +0.101 N 
ATOM      8  O   UNL     1     -10.627  17.675  65.368  0.00  0.00    -0.575 OA
ATOM      9  O   UNL     1      -8.532  17.066  65.766  0.00  0.00    +0.043 OA
ENDBRANCH   4   7
BRANCH   3  10
ATOM     10  C   UNL     1     -10.203  13.966  66.978  0.00  0.00    +0.146 C 
BRANCH  10  11
ATOM     11  C   UNL     1     -11.386  14.011  65.827  0.00  0.00    +0.175 C 
ATOM     12  O   UNL     1     -10.379  13.760  64.716  0.00  0.00    -0.221 OA
ATOM     13  C   UNL     1     -11.689  12.398  65.998  0.00  0.00    +0.038 C 
ENDBRANCH  10  11
ENDBRANCH   3  10
TORSDOF 3
ENDMDL
