MODEL 1
REMARK VINA RESULT:      -7.9      0.000      0.000
REMARK  Name = 
REMARK  5 active torsions:
REMARK  status: ('A' for Active; 'I' for Inactive)
REMARK    1  A    between atoms: C_2  and  O_3
REMARK    2  A    between atoms: C_2  and  C_16
REMARK    3  A    between atoms: O_3  and  C_4
REMARK    4  A    between atoms: C_16  and  C_18
REMARK    5  A    between atoms: C_16  and  C_24
REMARK                            x       y       z     vdW  Elec       q    Type
REMARK                         _______ _______ _______ _____ _____    ______ ____
ROOT
ATOM      1  O   UNL     1     -11.685  15.150  68.123  0.00  0.00    -0.247 OA
ATOM      2  C   UNL     1     -11.716  15.309  68.432  0.00  0.00    +0.353 C 
ENDROOT
BRANCH   2   3
ATOM      3  C   UNL     1     -11.568  14.409  69.569  0.00  0.00    +0.252 C 
ATOM      4  O   UNL     1     -10.178  14.445  69.814  0.00  0.00    -0.205 OA
BRANCH   3   5
ATOM      5  C   UNL     1     -11.933  13.010  69.321  0.00  0.00    +0.019 A 
ATOM      6  C   UNL     1     -12.125  12.170  70.411  0.00  0.00    -0.001 A 
ATOM      7  C   UNL     1     -11.782  10.822  70.374  0.00  0.00    -0.000 A 
ATOM      8  C   UNL     1     -11.144  10.326  69.244  0.00  0.00    -0.000 A 
ATOM      9  C   UNL     1     -11.390  11.015  68.063  0.00  0.00    -0.000 A 
ATOM     10  C   UNL     1     -11.470  12.400  68.163  0.00  0.00    -0.001 A 
ENDBRANCH   3   5
BRANCH   3  11
ATOM     11  C   UNL     1     -12.280  14.963  70.732  0.00  0.00    +0.019 A 
ATOM     12  C   UNL     1     -13.646  15.057  70.779  0.00  0.00    -0.001 A 
ATOM     13  C   UNL     1     -14.210  15.363  72.009  0.00  0.00    -0.000 A 
ATOM     14  C   UNL     1     -13.402  15.803  73.035  0.00  0.00    -0.000 A 
ATOM     15  C   UNL     1     -12.068  16.035  72.838  0.00  0.00    -0.000 A 
ATOM     16  C   UNL     1     -11.508  15.635  71.657  0.00  0.00    -0.001 A 
ENDBRANCH   3  11
ENDBRANCH   2   3
BRANCH   2  17
ATOM     17  O   UNL     1     -11.652  16.677  68.315  0.00  0.00    -0.450 OA
BRANCH  17  18
ATOM     18  C   UNL     1     -10.325  17.177  68.108  0.00  0.00    +0.180 C 
ATOM     19  C   UNL     1     -10.086  18.147  69.170  0.00  0.00    +0.099 C 
ATOM     20  C   UNL     1      -9.029  19.304  68.665  0.00  0.00    +0.062 C 
ATOM     21  N   UNL     1      -8.196  18.365  67.780  0.00  0.00    +0.289 N 
ATOM     22  C   UNL     1      -8.826  18.274  66.384  0.00  0.00    +0.062 C 
ATOM     23  C   UNL     1      -9.137  19.890  66.371  0.00  0.00    +0.061 C 
ATOM     24  C   UNL     1      -7.673  17.275  68.319  0.00  0.00    +0.108 C 
ATOM     25  C   UNL     1      -6.404  17.719  69.041  0.00  0.00    +0.067 C 
ATOM     26  C   UNL     1      -6.395  19.231  68.836  0.00  0.00    +0.067 C 
ATOM     27  C   UNL     1      -7.088  19.279  67.477  0.00  0.00    +0.108 C 
ATOM     28  C   UNL     1     -10.035  19.898  67.514  0.00  0.00    +0.061 C 
ATOM     29  C   UNL     1     -10.350  17.831  66.805  0.00  0.00    +0.099 C 
ENDBRANCH  17  18
ENDBRANCH   2  17
TORSDOF 5
ENDMDL
MODEL 2
REMARK VINA RESULT:      -7.8      1.610      2.600
REMARK  Name = 
REMARK  5 active torsions:
REMARK  status: ('A' for Active; 'I' for Inactive)
REMARK    1  A    between atoms: C_2  and  O_3
REMARK    2  A    between atoms: C_2  and  C_16
REMARK    3  A    between atoms: O_3  and  C_4
REMARK    4  A    between atoms: C_16  and  C_18
REMARK    5  A    between atoms: C_16  and  C_24
REMARK                            x       y       z     vdW  Elec       q    Type
REMARK                         _______ _______ _______ _____ _____    ______ ____
ROOT
ATOM      1  O   UNL     1      -9.662  14.160  68.649  0.00  0.00    -0.247 OA
ATOM      2  C   UNL     1      -9.965  14.318  68.719  0.00  0.00    +0.353 C 
ENDROOT
BRANCH   2   3
ATOM      3  C   UNL     1     -11.104  13.408  68.746  0.00  0.00    +0.252 C 
ATOM      4  O   UNL     1     -10.499  12.164  69.029  0.00  0.00    -0.205 OA
BRANCH   3   5
ATOM      5  C   UNL     1     -11.830  13.264  67.479  0.00  0.00    +0.019 A 
ATOM      6  C   UNL     1     -11.692  12.080  66.766  0.00  0.00    -0.001 A 
ATOM      7  C   UNL     1     -11.697  12.051  65.375  0.00  0.00    -0.000 A 
ATOM      8  C   UNL     1     -11.748  13.255  64.682  0.00  0.00    -0.000 A 
ATOM      9  C   UNL     1     -12.339  14.314  65.359  0.00  0.00    -0.000 A 
ATOM     10  C   UNL     1     -12.070  14.402  66.721  0.00  0.00    -0.001 A 
ENDBRANCH   3   5
BRANCH   3  11
ATOM     11  C   UNL     1     -12.002  13.773  69.854  0.00  0.00    +0.019 A 
ATOM     12  C   UNL     1     -12.331  15.074  70.131  0.00  0.00    -0.001 A 
ATOM     13  C   UNL     1     -13.366  15.278  71.032  0.00  0.00    -0.000 A 
ATOM     14  C   UNL     1     -13.830  14.221  71.784  0.00  0.00    -0.000 A 
ATOM     15  C   UNL     1     -13.227  12.994  71.729  0.00  0.00    -0.000 A 
ATOM     16  C   UNL     1     -12.279  12.779  70.769  0.00  0.00    -0.001 A 
ENDBRANCH   3  11
ENDBRANCH   2   3
BRANCH   2  17
ATOM     17  O   UNL     1      -9.783  15.593  69.199  0.00  0.00    -0.450 OA
BRANCH  17  18
ATOM     18  C   UNL     1      -9.307  16.518  68.213  0.00  0.00    +0.180 C 
ATOM     19  C   UNL     1      -8.246  17.285  68.854  0.00  0.00    +0.099 C 
ATOM     20  C   UNL     1      -8.150  18.792  68.200  0.00  0.00    +0.062 C 
ATOM     21  N   UNL     1      -8.533  18.359  66.777  0.00  0.00    +0.289 N 
ATOM     22  C   UNL     1     -10.060  18.348  66.631  0.00  0.00    +0.062 C 
ATOM     23  C   UNL     1     -10.194  19.753  67.481  0.00  0.00    +0.061 C 
ATOM     24  C   UNL     1      -7.827  17.407  66.187  0.00  0.00    +0.108 C 
ATOM     25  C   UNL     1      -6.570  18.079  65.642  0.00  0.00    +0.067 C 
ATOM     26  C   UNL     1      -6.717  19.526  66.106  0.00  0.00    +0.067 C 
ATOM     27  C   UNL     1      -8.240  19.617  66.080  0.00  0.00    +0.108 C 
ATOM     28  C   UNL     1      -9.635  19.251  68.725  0.00  0.00    +0.061 C 
ATOM     29  C   UNL     1     -10.444  17.373  67.895  0.00  0.00    +0.099 C 
ENDBRANCH  17  18
ENDBRANCH   2  17
TORSDOF 5
ENDMDL
MODEL 3
REMARK VINA RESULT:      -7.6      1.300      4.152
REMARK  Name = 
REMARK  5 active torsions:
REMARK  status: ('A' for Active; 'I' for Inactive)
REMARK    1  A    between atoms: C_2  and  O_3
REMARK    2  A    between atoms: C_2  and  C_16
REMARK    3  A    between atoms: O_3  and  C_4
REMARK    4  A    between atoms: C_16  and  C_18
REMARK    5  A    between atoms: C_16  and  C_24
REMARK                            x       y       z     vdW  Elec       q    Type
REMARK                         _______ _______ _______ _____ _____    ______ ____
ROOT
ATOM      1  O   UNL     1     -10.217  15.878  70.007  0.00  0.00    -0.247 OA
ATOM      2  C   UNL     1     -10.251  15.598  69.801  0.00  0.00    +0.353 C 
ENDROOT
BRANCH   2   3
ATOM      3  C   UNL     1     -11.623  15.118  69.690  0.00  0.00    +0.252 C 
ATOM      4  O   UNL     1     -12.281  16.203  69.071  0.00  0.00    -0.205 OA
BRANCH   3   5
ATOM      5  C   UNL     1     -12.307  14.857  70.961  0.00  0.00    +0.019 A 
ATOM      6  C   UNL     1     -13.680  15.056  71.029  0.00  0.00    -0.001 A 
ATOM      7  C   UNL     1     -14.302  15.523  72.182  0.00  0.00    -0.000 A 
ATOM      8  C   UNL     1     -13.512  15.888  73.266  0.00  0.00    -0.000 A 
ATOM      9  C   UNL     1     -12.275  15.262  73.346  0.00  0.00    -0.000 A 
ATOM     10  C   UNL     1     -11.607  15.059  72.143  0.00  0.00    -0.001 A 
ENDBRANCH   3   5
BRANCH   3  11
ATOM     11  C   UNL     1     -11.666  13.951  68.794  0.00  0.00    +0.019 A 
ATOM     12  C   UNL     1     -11.953  14.062  67.459  0.00  0.00    -0.001 A 
ATOM     13  C   UNL     1     -11.725  12.940  66.675  0.00  0.00    -0.000 A 
ATOM     14  C   UNL     1     -11.481  11.727  67.282  0.00  0.00    -0.000 A 
ATOM     15  C   UNL     1     -11.553  11.586  68.641  0.00  0.00    -0.000 A 
ATOM     16  C   UNL     1     -11.676  12.713  69.403  0.00  0.00    -0.001 A 
ENDBRANCH   3  11
ENDBRANCH   2   3
BRANCH   2  17
ATOM     17  O   UNL     1      -9.124  15.376  69.046  0.00  0.00    -0.450 OA
BRANCH  17  18
ATOM     18  C   UNL     1      -8.435  16.575  68.671  0.00  0.00    +0.180 C 
ATOM     19  C   UNL     1      -8.526  16.660  67.219  0.00  0.00    +0.099 C 
ATOM     20  C   UNL     1      -7.224  17.458  66.605  0.00  0.00    +0.062 C 
ATOM     21  N   UNL     1      -7.074  18.425  67.790  0.00  0.00    +0.289 N 
ATOM     22  C   UNL     1      -6.214  17.778  68.883  0.00  0.00    +0.062 C 
ATOM     23  C   UNL     1      -5.176  17.163  67.763  0.00  0.00    +0.061 C 
ATOM     24  C   UNL     1      -8.112  19.165  68.146  0.00  0.00    +0.108 C 
ATOM     25  C   UNL     1      -8.147  20.349  67.185  0.00  0.00    +0.067 C 
ATOM     26  C   UNL     1      -6.988  20.062  66.233  0.00  0.00    +0.067 C 
ATOM     27  C   UNL     1      -6.073  19.327  67.208  0.00  0.00    +0.108 C 
ATOM     28  C   UNL     1      -6.143  16.319  67.081  0.00  0.00    +0.061 C 
ATOM     29  C   UNL     1      -7.052  16.382  69.092  0.00  0.00    +0.099 C 
ENDBRANCH  17  18
ENDBRANCH   2  17
TORSDOF 5
ENDMDL
MODEL 4
REMARK VINA RESULT:      -7.6      1.887      3.296
REMARK  Name = 
REMARK  5 active torsions:
REMARK  status: ('A' for Active; 'I' for Inactive)
REMARK    1  A    between atoms: C_2  and  O_3
REMARK    2  A    between atoms: C_2  and  C_16
REMARK    3  A    between atoms: O_3  and  C_4
REMARK    4  A    between atoms: C_16  and  C_18
REMARK    5  A    between atoms: C_16  and  C_24
REMARK                            x       y       z     vdW  Elec       q    Type
REMARK                         _______ _______ _______ _____ _____    ______ ____
ROOT
ATOM      1  O   UNL     1      -9.367  13.480  68.517  0.00  0.00    -0.247 OA
ATOM      2  C   UNL     1      -9.546  13.475  68.218  0.00  0.00    +0.353 C 
ENDROOT
BRANCH   2   3
ATOM      3  C   UNL     1     -10.902  12.956  68.359  0.00  0.00    +0.252 C 
ATOM      4  O   UNL     1     -10.681  11.633  68.799  0.00  0.00    -0.205 OA
BRANCH   3   5
ATOM      5  C   UNL     1     -11.683  12.881  67.119  0.00  0.00    +0.019 A 
ATOM      6  C   UNL     1     -11.372  11.890  66.197  0.00  0.00    -0.001 A 
ATOM      7  C   UNL     1     -11.482  12.097  64.826  0.00  0.00    -0.000 A 
ATOM      8  C   UNL     1     -11.824  13.363  64.367  0.00  0.00    -0.000 A 
ATOM      9  C   UNL     1     -12.556  14.146  65.250  0.00  0.00    -0.000 A 
ATOM     10  C   UNL     1     -12.202  14.056  66.592  0.00  0.00    -0.001 A 
ENDBRANCH   3   5
BRANCH   3  11
ATOM     11  C   UNL     1     -11.610  13.705  69.409  0.00  0.00    +0.019 A 
ATOM     12  C   UNL     1     -11.503  15.065  69.539  0.00  0.00    -0.001 A 
ATOM     13  C   UNL     1     -12.398  15.684  70.399  0.00  0.00    -0.000 A 
ATOM     14  C   UNL     1     -13.155  14.916  71.257  0.00  0.00    -0.000 A 
ATOM     15  C   UNL     1     -12.974  13.562  71.344  0.00  0.00    -0.000 A 
ATOM     16  C   UNL     1     -12.167  12.956  70.424  0.00  0.00    -0.001 A 
ENDBRANCH   3  11
ENDBRANCH   2   3
BRANCH   2  17
ATOM     17  O   UNL     1      -8.933  14.219  67.238  0.00  0.00    -0.450 OA
BRANCH  17  18
ATOM     18  C   UNL     1      -8.854  15.617  67.539  0.00  0.00    +0.180 C 
ATOM     19  C   UNL     1      -9.053  16.316  66.275  0.00  0.00    +0.099 C 
ATOM     20  C   UNL     1      -8.262  17.760  66.285  0.00  0.00    +0.062 C 
ATOM     21  N   UNL     1      -8.483  18.037  67.780  0.00  0.00    +0.289 N 
ATOM     22  C   UNL     1      -7.370  17.375  68.601  0.00  0.00    +0.062 C 
ATOM     23  C   UNL     1      -6.230  17.831  67.504  0.00  0.00    +0.061 C 
ATOM     24  C   UNL     1      -9.719  18.031  68.254  0.00  0.00    +0.108 C 
ATOM     25  C   UNL     1     -10.317  19.393  67.915  0.00  0.00    +0.067 C 
ATOM     26  C   UNL     1      -9.202  20.079  67.129  0.00  0.00    +0.067 C 
ATOM     27  C   UNL     1      -8.007  19.425  67.816  0.00  0.00    +0.108 C 
ATOM     28  C   UNL     1      -6.770  17.085  66.379  0.00  0.00    +0.061 C 
ATOM     29  C   UNL     1      -7.505  15.836  68.045  0.00  0.00    +0.099 C 
ENDBRANCH  17  18
ENDBRANCH   2  17
TORSDOF 5
ENDMDL
MODEL 5
REMARK VINA RESULT:      -7.5      1.894      3.360
REMARK  Name = 
REMARK  5 active torsions:
REMARK  status: ('A' for Active; 'I' for Inactive)
REMARK    1  A    between atoms: C_2  and  O_3
REMARK    2  A    between atoms: C_2  and  C_16
REMARK    3  A    between atoms: O_3  and  C_4
REMARK    4  A    between atoms: C_16  and  C_18
REMARK    5  A    between atoms: C_16  and  C_24
REMARK                            x       y       z     vdW  Elec       q    Type
REMARK                         _______ _______ _______ _____ _____    ______ ____
ROOT
ATOM      1  O   UNL     1      -9.398  13.427  68.209  0.00  0.00    -0.247 OA
ATOM      2  C   UNL     1      -9.736  13.511  68.217  0.00  0.00    +0.353 C 
ENDROOT
BRANCH   2   3
ATOM      3  C   UNL     1     -10.627  12.376  68.009  0.00  0.00    +0.252 C 
ATOM      4  O   UNL     1      -9.725  11.319  67.757  0.00  0.00    -0.205 OA
BRANCH   3   5
ATOM      5  C   UNL     1     -11.521  12.476  66.851  0.00  0.00    +0.019 A 
ATOM      6  C   UNL     1     -11.198  11.769  65.699  0.00  0.00    -0.001 A 
ATOM      7  C   UNL     1     -11.474  12.262  64.428  0.00  0.00    -0.000 A 
ATOM      8  C   UNL     1     -12.005  13.540  64.309  0.00  0.00    -0.000 A 
ATOM      9  C   UNL     1     -12.725  13.998  65.405  0.00  0.00    -0.000 A 
ATOM     10  C   UNL     1     -12.223  13.658  66.657  0.00  0.00    -0.001 A 
ENDBRANCH   3   5
BRANCH   3  11
ATOM     11  C   UNL     1     -11.367  12.095  69.250  0.00  0.00    +0.019 A 
ATOM     12  C   UNL     1     -11.909  13.090  70.021  0.00  0.00    -0.001 A 
ATOM     13  C   UNL     1     -12.784  12.698  71.023  0.00  0.00    -0.000 A 
ATOM     14  C   UNL     1     -12.869  11.366  71.366  0.00  0.00    -0.000 A 
ATOM     15  C   UNL     1     -12.040  10.435  70.804  0.00  0.00    -0.000 A 
ATOM     16  C   UNL     1     -11.257  10.815  69.751  0.00  0.00    -0.001 A 
ENDBRANCH   3  11
ENDBRANCH   2   3
BRANCH   2  17
ATOM     17  O   UNL     1      -9.939  14.770  68.730  0.00  0.00    -0.450 OA
BRANCH  17  18
ATOM     18  C   UNL     1      -9.405  15.819  67.913  0.00  0.00    +0.180 C 
ATOM     19  C   UNL     1      -8.487  16.568  68.763  0.00  0.00    +0.099 C 
ATOM     20  C   UNL     1      -8.409  18.140  68.281  0.00  0.00    +0.062 C 
ATOM     21  N   UNL     1      -8.578  17.842  66.783  0.00  0.00    +0.289 N 
ATOM     22  C   UNL     1     -10.070  17.766  66.434  0.00  0.00    +0.062 C 
ATOM     23  C   UNL     1     -10.404  19.063  67.393  0.00  0.00    +0.061 C 
ATOM     24  C   UNL     1      -7.741  16.998  66.201  0.00  0.00    +0.108 C 
ATOM     25  C   UNL     1      -6.472  17.789  65.899  0.00  0.00    +0.067 C 
ATOM     26  C   UNL     1      -6.773  19.168  66.480  0.00  0.00    +0.067 C 
ATOM     27  C   UNL     1      -8.283  19.181  66.260  0.00  0.00    +0.108 C 
ATOM     28  C   UNL     1      -9.976  18.461  68.645  0.00  0.00    +0.061 C 
ATOM     29  C   UNL     1     -10.546  16.642  67.532  0.00  0.00    +0.099 C 
ENDBRANCH  17  18
ENDBRANCH   2  17
TORSDOF 5
ENDMDL
MODEL 6
REMARK VINA RESULT:      -7.4      2.556      4.166
REMARK  Name = 
REMARK  5 active torsions:
REMARK  status: ('A' for Active; 'I' for Inactive)
REMARK    1  A    between atoms: C_2  and  O_3
REMARK    2  A    between atoms: C_2  and  C_16
REMARK    3  A    between atoms: O_3  and  C_4
REMARK    4  A    between atoms: C_16  and  C_18
REMARK    5  A    between atoms: C_16  and  C_24
REMARK                            x       y       z     vdW  Elec       q    Type
REMARK                         _______ _______ _______ _____ _____    ______ ____
ROOT
ATOM      1  O   UNL     1      -9.842  13.668  68.707  0.00  0.00    -0.247 OA
ATOM      2  C   UNL     1      -9.891  13.576  68.374  0.00  0.00    +0.353 C 
ENDROOT
BRANCH   2   3
ATOM      3  C   UNL     1     -11.153  12.885  68.138  0.00  0.00    +0.252 C 
ATOM      4  O   UNL     1     -12.065  13.637  68.909  0.00  0.00    -0.205 OA
BRANCH   3   5
ATOM      5  C   UNL     1     -11.214  11.499  68.615  0.00  0.00    +0.019 A 
ATOM      6  C   UNL     1     -12.171  11.165  69.565  0.00  0.00    -0.001 A 
ATOM      7  C   UNL     1     -11.929  10.218  70.555  0.00  0.00    -0.000 A 
ATOM      8  C   UNL     1     -10.660   9.659  70.649  0.00  0.00    -0.000 A 
ATOM      9  C   UNL     1      -9.922   9.641  69.473  0.00  0.00    -0.000 A 
ATOM     10  C   UNL     1     -10.039  10.760  68.655  0.00  0.00    -0.001 A 
ENDBRANCH   3   5
BRANCH   3  11
ATOM     11  C   UNL     1     -11.516  12.992  66.716  0.00  0.00    +0.019 A 
ATOM     12  C   UNL     1     -12.294  14.011  66.233  0.00  0.00    -0.001 A 
ATOM     13  C   UNL     1     -12.365  14.144  64.854  0.00  0.00    -0.000 A 
ATOM     14  C   UNL     1     -11.887  13.132  64.050  0.00  0.00    -0.000 A 
ATOM     15  C   UNL     1     -11.431  11.958  64.583  0.00  0.00    -0.000 A 
ATOM     16  C   UNL     1     -11.272  11.880  65.937  0.00  0.00    -0.001 A 
ENDBRANCH   3  11
ENDBRANCH   2   3
BRANCH   2  17
ATOM     17  O   UNL     1      -9.001  14.200  67.532  0.00  0.00    -0.450 OA
BRANCH  17  18
ATOM     18  C   UNL     1      -9.030  15.630  67.618  0.00  0.00    +0.180 C 
ATOM     19  C   UNL     1      -9.111  16.118  66.248  0.00  0.00    +0.099 C 
ATOM     20  C   UNL     1      -8.401  17.598  66.121  0.00  0.00    +0.062 C 
ATOM     21  N   UNL     1      -8.813  18.078  67.521  0.00  0.00    +0.289 N 
ATOM     22  C   UNL     1      -7.773  17.622  68.553  0.00  0.00    +0.062 C 
ATOM     23  C   UNL     1      -6.535  17.987  67.530  0.00  0.00    +0.061 C 
ATOM     24  C   UNL     1     -10.095  18.059  67.851  0.00  0.00    +0.108 C 
ATOM     25  C   UNL     1     -10.716  19.311  67.241  0.00  0.00    +0.067 C 
ATOM     26  C   UNL     1      -9.552  19.947  66.486  0.00  0.00    +0.067 C 
ATOM     27  C   UNL     1      -8.415  19.485  67.394  0.00  0.00    +0.108 C 
ATOM     28  C   UNL     1      -6.899  17.048  66.483  0.00  0.00    +0.061 C 
ATOM     29  C   UNL     1      -7.763  16.012  68.231  0.00  0.00    +0.099 C 
ENDBRANCH  17  18
ENDBRANCH   2  17
TORSDOF 5
ENDMDL
MODEL 7
REMARK VINA RESULT:      -7.4      1.520      3.736
REMARK  Name = 
REMARK  5 active torsions:
REMARK  status: ('A' for Active; 'I' for Inactive)
REMARK    1  A    between atoms: C_2  and  O_3
REMARK    2  A    between atoms: C_2  and  C_16
REMARK    3  A    between atoms: O_3  and  C_4
REMARK    4  A    between atoms: C_16  and  C_18
REMARK    5  A    between atoms: C_16  and  C_24
REMARK                            x       y       z     vdW  Elec       q    Type
REMARK                         _______ _______ _______ _____ _____    ______ ____
ROOT
ATOM      1  O   UNL     1     -10.121  16.396  69.452  0.00  0.00    -0.247 OA
ATOM      2  C   UNL     1     -10.329  16.369  69.173  0.00  0.00    +0.353 C 
ENDROOT
BRANCH   2   3
ATOM      3  C   UNL     1     -11.381  15.371  69.327  0.00  0.00    +0.252 C 
ATOM      4  O   UNL     1     -12.540  16.085  68.950  0.00  0.00    -0.205 OA
BRANCH   3   5
ATOM      5  C   UNL     1     -11.593  14.880  70.693  0.00  0.00    +0.019 A 
ATOM      6  C   UNL     1     -12.334  13.719  70.873  0.00  0.00    -0.001 A 
ATOM      7  C   UNL     1     -13.165  13.536  71.974  0.00  0.00    -0.000 A 
ATOM      8  C   UNL     1     -13.327  14.586  72.870  0.00  0.00    -0.000 A 
ATOM      9  C   UNL     1     -12.275  15.491  72.933  0.00  0.00    -0.000 A 
ATOM     10  C   UNL     1     -11.658  15.805  71.726  0.00  0.00    -0.001 A 
ENDBRANCH   3   5
BRANCH   3  11
ATOM     11  C   UNL     1     -11.160  14.270  68.376  0.00  0.00    +0.019 A 
ATOM     12  C   UNL     1     -10.042  13.478  68.419  0.00  0.00    -0.001 A 
ATOM     13  C   UNL     1     -10.059  12.331  67.639  0.00  0.00    -0.000 A 
ATOM     14  C   UNL     1     -11.044  12.171  66.688  0.00  0.00    -0.000 A 
ATOM     15  C   UNL     1     -11.950  13.163  66.433  0.00  0.00    -0.000 A 
ATOM     16  C   UNL     1     -11.987  14.240  67.273  0.00  0.00    -0.001 A 
ENDBRANCH   3  11
ENDBRANCH   2   3
BRANCH   2  17
ATOM     17  O   UNL     1     -10.162  17.417  68.301  0.00  0.00    -0.450 OA
BRANCH  17  18
ATOM     18  C   UNL     1      -8.838  17.964  68.301  0.00  0.00    +0.180 C 
ATOM     19  C   UNL     1      -8.997  19.413  68.296  0.00  0.00    +0.099 C 
ATOM     20  C   UNL     1      -7.718  20.130  67.547  0.00  0.00    +0.062 C 
ATOM     21  N   UNL     1      -6.677  19.106  68.022  0.00  0.00    +0.289 N 
ATOM     22  C   UNL     1      -6.634  17.919  67.051  0.00  0.00    +0.062 C 
ATOM     23  C   UNL     1      -6.748  18.924  65.751  0.00  0.00    +0.061 C 
ATOM     24  C   UNL     1      -6.554  18.875  69.320  0.00  0.00    +0.108 C 
ATOM     25  C   UNL     1      -5.695  20.006  69.878  0.00  0.00    +0.067 C 
ATOM     26  C   UNL     1      -5.448  20.892  68.660  0.00  0.00    +0.067 C 
ATOM     27  C   UNL     1      -5.465  19.809  67.586  0.00  0.00    +0.108 C 
ATOM     28  C   UNL     1      -8.052  19.477  66.079  0.00  0.00    +0.061 C 
ATOM     29  C   UNL     1      -8.223  17.506  67.060  0.00  0.00    +0.099 C 
ENDBRANCH  17  18
ENDBRANCH   2  17
TORSDOF 5
ENDMDL
MODEL 8
REMARK VINA RESULT:      -7.4      1.628      2.390
REMARK  Name = 
REMARK  5 active torsions:
REMARK  status: ('A' for Active; 'I' for Inactive)
REMARK    1  A    between atoms: C_2  and  O_3
REMARK    2  A    between atoms: C_2  and  C_16
REMARK    3  A    between atoms: O_3  and  C_4
REMARK    4  A    between atoms: C_16  and  C_18
REMARK    5  A    between atoms: C_16  and  C_24
REMARK                            x       y       z     vdW  Elec       q    Type
REMARK                         _______ _______ _______ _____ _____    ______ ____
ROOT
ATOM      1  O   UNL     1     -11.208  16.860  69.151  0.00  0.00    -0.247 OA
ATOM      2  C   UNL     1     -10.949  16.696  68.985  0.00  0.00    +0.353 C 
ENDROOT
BRANCH   2   3
ATOM      3  C   UNL     1     -10.776  15.309  69.402  0.00  0.00    +0.252 C 
ATOM      4  O   UNL     1      -9.434  15.283  69.838  0.00  0.00    -0.205 OA
BRANCH   3   5
ATOM      5  C   UNL     1     -10.912  14.307  68.339  0.00  0.00    +0.019 A 
ATOM      6  C   UNL     1      -9.758  13.785  67.768  0.00  0.00    -0.001 A 
ATOM      7  C   UNL     1      -9.694  13.437  66.423  0.00  0.00    -0.000 A 
ATOM      8  C   UNL     1     -10.788  13.707  65.609  0.00  0.00    -0.000 A 
ATOM      9  C   UNL     1     -12.016  13.769  66.254  0.00  0.00    -0.000 A 
ATOM     10  C   UNL     1     -12.023  14.368  67.510  0.00  0.00    -0.001 A 
ENDBRANCH   3   5
BRANCH   3  11
ATOM     11  C   UNL     1     -11.662  15.023  70.542  0.00  0.00    +0.019 A 
ATOM     12  C   UNL     1     -11.776  15.871  71.612  0.00  0.00    -0.001 A 
ATOM     13  C   UNL     1     -12.812  15.622  72.500  0.00  0.00    -0.000 A 
ATOM     14  C   UNL     1     -13.498  14.429  72.424  0.00  0.00    -0.000 A 
ATOM     15  C   UNL     1     -13.115  13.445  71.553  0.00  0.00    -0.000 A 
ATOM     16  C   UNL     1     -12.163  13.741  70.619  0.00  0.00    -0.001 A 
ENDBRANCH   3  11
ENDBRANCH   2   3
BRANCH   2  17
ATOM     17  O   UNL     1     -10.516  17.396  67.885  0.00  0.00    -0.450 OA
BRANCH  17  18
ATOM     18  C   UNL     1      -9.184  17.909  68.014  0.00  0.00    +0.180 C 
ATOM     19  C   UNL     1      -9.313  19.359  68.094  0.00  0.00    +0.099 C 
ATOM     20  C   UNL     1      -7.970  20.091  67.485  0.00  0.00    +0.062 C 
ATOM     21  N   UNL     1      -6.986  19.013  67.965  0.00  0.00    +0.289 N 
ATOM     22  C   UNL     1      -6.897  17.891  66.923  0.00  0.00    +0.062 C 
ATOM     23  C   UNL     1      -6.897  18.979  65.687  0.00  0.00    +0.061 C 
ATOM     24  C   UNL     1      -6.962  18.697  69.250  0.00  0.00    +0.108 C 
ATOM     25  C   UNL     1      -6.123  19.768  69.941  0.00  0.00    +0.067 C 
ATOM     26  C   UNL     1      -5.772  20.725  68.804  0.00  0.00    +0.067 C 
ATOM     27  C   UNL     1      -5.732  19.714  67.662  0.00  0.00    +0.108 C 
ATOM     28  C   UNL     1      -8.210  19.541  65.958  0.00  0.00    +0.061 C 
ATOM     29  C   UNL     1      -8.491  17.517  66.793  0.00  0.00    +0.099 C 
ENDBRANCH  17  18
ENDBRANCH   2  17
TORSDOF 5
ENDMDL
MODEL 9
REMARK VINA RESULT:      -7.2      2.025      4.158
REMARK  Name = 
REMARK  5 active torsions:
REMARK  status: ('A' for Active; 'I' for Inactive)
REMARK    1  A    between atoms: C_2  and  O_3
REMARK    2  A    between atoms: C_2  and  C_16
REMARK    3  A    between atoms: O_3  and  C_4
REMARK    4  A    between atoms: C_16  and  C_18
REMARK    5  A    between atoms: C_16  and  C_24
REMARK                            x       y       z     vdW  Elec       q    Type
REMARK                         _______ _______ _______ _____ _____    ______ ____
ROOT
ATOM      1  O   UNL     1     -10.272  14.804  66.995  0.00  0.00    -0.247 OA
ATOM      2  C   UNL     1     -10.616  14.857  66.969  0.00  0.00    +0.353 C 
ENDROOT
BRANCH   2   3
ATOM      3  C   UNL     1     -11.401  13.628  66.980  0.00  0.00    +0.252 C 
ATOM      4  O   UNL     1     -12.723  14.107  67.105  0.00  0.00    -0.205 OA
BRANCH   3   5
ATOM      5  C   UNL     1     -11.151  12.728  68.111  0.00  0.00    +0.019 A 
ATOM      6  C   UNL     1     -10.854  11.397  67.847  0.00  0.00    -0.001 A 
ATOM      7  C   UNL     1     -11.272  10.367  68.684  0.00  0.00    -0.000 A 
ATOM      8  C   UNL     1     -12.089  10.675  69.765  0.00  0.00    -0.000 A 
ATOM      9  C   UNL     1     -11.975  11.969  70.256  0.00  0.00    -0.000 A 
ATOM     10  C   UNL     1     -11.806  12.975  69.310  0.00  0.00    -0.001 A 
ENDBRANCH   3   5
BRANCH   3  11
ATOM     11  C   UNL     1     -11.255  12.939  65.688  0.00  0.00    +0.019 A 
ATOM     12  C   UNL     1     -10.031  12.612  65.165  0.00  0.00    -0.001 A 
ATOM     13  C   UNL     1     -10.026  11.756  64.074  0.00  0.00    -0.000 A 
ATOM     14  C   UNL     1     -11.208  11.486  63.418  0.00  0.00    -0.000 A 
ATOM     15  C   UNL     1     -12.370  12.120  63.761  0.00  0.00    -0.000 A 
ATOM     16  C   UNL     1     -12.383  12.880  64.897  0.00  0.00    -0.001 A 
ENDBRANCH   3  11
ENDBRANCH   2   3
BRANCH   2  17
ATOM     17  O   UNL     1     -10.949  16.174  67.175  0.00  0.00    -0.450 OA
BRANCH  17  18
ATOM     18  C   UNL     1      -9.819  17.031  67.380  0.00  0.00    +0.180 C 
ATOM     19  C   UNL     1      -9.966  17.586  68.719  0.00  0.00    +0.099 C 
ATOM     20  C   UNL     1      -9.264  19.072  68.807  0.00  0.00    +0.062 C 
ATOM     21  N   UNL     1      -8.120  18.751  67.834  0.00  0.00    +0.289 N 
ATOM     22  C   UNL     1      -8.577  19.007  66.392  0.00  0.00    +0.062 C 
ATOM     23  C   UNL     1      -9.353  20.389  66.839  0.00  0.00    +0.061 C 
ATOM     24  C   UNL     1      -7.342  17.709  68.083  0.00  0.00    +0.108 C 
ATOM     25  C   UNL     1      -6.326  18.169  69.124  0.00  0.00    +0.067 C 
ATOM     26  C   UNL     1      -6.750  19.606  69.415  0.00  0.00    +0.067 C 
ATOM     27  C   UNL     1      -7.312  19.959  68.042  0.00  0.00    +0.108 C 
ATOM     28  C   UNL     1     -10.303  19.765  67.744  0.00  0.00    +0.061 C 
ATOM     29  C   UNL     1      -9.930  18.077  66.370  0.00  0.00    +0.099 C 
ENDBRANCH  17  18
ENDBRANCH   2  17
TORSDOF 5
ENDMDL
