MODEL 1
REMARK VINA RESULT:      -4.8      0.000      0.000
REMARK  Name = 
REMARK  1 active torsions:
REMARK  status: ('A' for Active; 'I' for Inactive)
REMARK    1  A    between atoms: C_2  and  C_4
REMARK                            x       y       z     vdW  Elec       q    Type
REMARK                         _______ _______ _______ _____ _____    ______ ____
ROOT
ATOM      1  C   UNL     1     -11.313  14.477  65.034  0.00  0.00    +0.099 A 
ATOM      2  C   UNL     1     -12.596  14.006  65.254  0.00  0.00    +0.105 A 
ATOM      3  N   UNL     1     -13.034  12.890  64.619  0.00  0.00    -0.242 NA
ATOM      4  C   UNL     1     -12.246  12.212  63.748  0.00  0.00    +0.099 A 
ATOM      5  C   UNL     1     -10.879  12.399  63.911  0.00  0.00    +0.021 A 
ATOM      6  C   UNL     1     -10.410  13.558  64.516  0.00  0.00    +0.010 A 
ENDROOT
BRANCH   1   8
ATOM      7  O   UNL     1     -11.585  16.547  63.963  0.00  0.00    -0.240 OA
ATOM      8  C   UNL     1     -11.006  15.906  64.893  0.00  0.00    +0.389 C 
ATOM      9  O   UNL     1      -9.885  16.497  65.444  0.00  0.00    -0.240 OA
ENDBRANCH   1   8
TORSDOF 1
ENDMDL
MODEL 2
REMARK VINA RESULT:      -4.3      1.518      2.277
REMARK  Name = 
REMARK  1 active torsions:
REMARK  status: ('A' for Active; 'I' for Inactive)
REMARK    1  A    between atoms: C_2  and  C_4
REMARK                            x       y       z     vdW  Elec       q    Type
REMARK                         _______ _______ _______ _____ _____    ______ ____
ROOT
ATOM      1  C   UNL     1     -11.757  14.718  65.643  0.00  0.00    +0.099 A 
ATOM      2  C   UNL     1     -12.323  13.606  65.042  0.00  0.00    +0.105 A 
ATOM      3  N   UNL     1     -12.258  12.394  65.649  0.00  0.00    -0.242 NA
ATOM      4  C   UNL     1     -11.635  12.227  66.841  0.00  0.00    +0.099 A 
ATOM      5  C   UNL     1     -11.518  13.373  67.618  0.00  0.00    +0.021 A 
ATOM      6  C   UNL     1     -11.534  14.622  67.010  0.00  0.00    +0.010 A 
ENDROOT
BRANCH   1   8
ATOM      7  O   UNL     1      -9.898  16.119  65.357  0.00  0.00    -0.240 OA
ATOM      8  C   UNL     1     -11.012  15.734  64.888  0.00  0.00    +0.389 C 
ATOM      9  O   UNL     1     -11.595  16.546  63.934  0.00  0.00    -0.240 OA
ENDBRANCH   1   8
TORSDOF 1
ENDMDL
MODEL 3
REMARK VINA RESULT:      -4.3      1.450      1.838
REMARK  Name = 
REMARK  1 active torsions:
REMARK  status: ('A' for Active; 'I' for Inactive)
REMARK    1  A    between atoms: C_2  and  C_4
REMARK                            x       y       z     vdW  Elec       q    Type
REMARK                         _______ _______ _______ _____ _____    ______ ____
ROOT
ATOM      1  C   UNL     1     -10.928  14.634  64.911  0.00  0.00    +0.099 A 
ATOM      2  C   UNL     1     -10.063  13.929  65.730  0.00  0.00    +0.105 A 
ATOM      3  N   UNL     1     -10.494  12.827  66.394  0.00  0.00    -0.242 NA
ATOM      4  C   UNL     1     -11.773  12.389  66.290  0.00  0.00    +0.099 A 
ATOM      5  C   UNL     1     -12.450  12.791  65.146  0.00  0.00    +0.021 A 
ATOM      6  C   UNL     1     -12.053  13.943  64.479  0.00  0.00    +0.010 A 
ENDROOT
BRANCH   1   8
ATOM      7  O   UNL     1     -11.615  16.650  63.926  0.00  0.00    -0.240 OA
ATOM      8  C   UNL     1     -10.954  16.102  64.860  0.00  0.00    +0.389 C 
ATOM      9  O   UNL     1     -10.031  16.897  65.512  0.00  0.00    -0.240 OA
ENDBRANCH   1   8
TORSDOF 1
ENDMDL
MODEL 4
REMARK VINA RESULT:      -4.1      6.538      7.303
REMARK  Name = 
REMARK  1 active torsions:
REMARK  status: ('A' for Active; 'I' for Inactive)
REMARK    1  A    between atoms: C_2  and  C_4
REMARK                            x       y       z     vdW  Elec       q    Type
REMARK                         _______ _______ _______ _____ _____    ______ ____
ROOT
ATOM      1  C   UNL     1     -12.703  15.589  70.888  0.00  0.00    +0.099 A 
ATOM      2  C   UNL     1     -13.763  14.830  71.355  0.00  0.00    +0.105 A 
ATOM      3  N   UNL     1     -13.805  14.440  72.654  0.00  0.00    -0.242 NA
ATOM      4  C   UNL     1     -12.818  14.763  73.526  0.00  0.00    +0.099 A 
ATOM      5  C   UNL     1     -12.062  15.877  73.184  0.00  0.00    +0.021 A 
ATOM      6  C   UNL     1     -11.968  16.264  71.853  0.00  0.00    +0.010 A 
ENDROOT
BRANCH   1   8
ATOM      7  O   UNL     1     -11.788  16.377  68.877  0.00  0.00    -0.240 OA
ATOM      8  C   UNL     1     -12.082  15.361  69.576  0.00  0.00    +0.389 C 
ATOM      9  O   UNL     1     -12.139  14.150  68.912  0.00  0.00    -0.240 OA
ENDBRANCH   1   8
TORSDOF 1
ENDMDL
MODEL 5
REMARK VINA RESULT:      -4.1      2.618      3.578
REMARK  Name = 
REMARK  1 active torsions:
REMARK  status: ('A' for Active; 'I' for Inactive)
REMARK    1  A    between atoms: C_2  and  C_4
REMARK                            x       y       z     vdW  Elec       q    Type
REMARK                         _______ _______ _______ _____ _____    ______ ____
ROOT
ATOM      1  C   UNL     1     -11.121  15.107  65.697  0.00  0.00    +0.099 A 
ATOM      2  C   UNL     1     -10.284  16.016  66.322  0.00  0.00    +0.105 A 
ATOM      3  N   UNL     1     -10.398  16.246  67.654  0.00  0.00    -0.242 NA
ATOM      4  C   UNL     1     -11.331  15.615  68.408  0.00  0.00    +0.099 A 
ATOM      5  C   UNL     1     -11.800  14.413  67.893  0.00  0.00    +0.021 A 
ATOM      6  C   UNL     1     -11.736  14.178  66.526  0.00  0.00    +0.010 A 
ENDROOT
BRANCH   1   8
ATOM      7  O   UNL     1     -11.655  16.532  63.911  0.00  0.00    -0.240 OA
ATOM      8  C   UNL     1     -11.708  15.351  64.373  0.00  0.00    +0.389 C 
ATOM      9  O   UNL     1     -12.618  14.497  63.780  0.00  0.00    -0.240 OA
ENDBRANCH   1   8
TORSDOF 1
ENDMDL
MODEL 6
REMARK VINA RESULT:      -4.1      6.428      7.130
REMARK  Name = 
REMARK  1 active torsions:
REMARK  status: ('A' for Active; 'I' for Inactive)
REMARK    1  A    between atoms: C_2  and  C_4
REMARK                            x       y       z     vdW  Elec       q    Type
REMARK                         _______ _______ _______ _____ _____    ______ ____
ROOT
ATOM      1  C   UNL     1     -12.465  14.742  71.429  0.00  0.00    +0.099 A 
ATOM      2  C   UNL     1     -12.266  13.737  70.497  0.00  0.00    +0.105 A 
ATOM      3  N   UNL     1     -11.776  14.033  69.266  0.00  0.00    -0.242 NA
ATOM      4  C   UNL     1     -11.481  15.305  68.905  0.00  0.00    +0.099 A 
ATOM      5  C   UNL     1     -11.229  16.180  69.955  0.00  0.00    +0.021 A 
ATOM      6  C   UNL     1     -11.762  15.920  71.211  0.00  0.00    +0.010 A 
ENDROOT
BRANCH   1   8
ATOM      7  O   UNL     1     -14.216  13.692  72.585  0.00  0.00    -0.240 OA
ATOM      8  C   UNL     1     -13.643  14.789  72.304  0.00  0.00    +0.389 C 
ATOM      9  O   UNL     1     -14.372  15.941  72.530  0.00  0.00    -0.240 OA
ENDBRANCH   1   8
TORSDOF 1
ENDMDL
MODEL 7
REMARK VINA RESULT:      -4.0      3.047      3.755
REMARK  Name = 
REMARK  1 active torsions:
REMARK  status: ('A' for Active; 'I' for Inactive)
REMARK    1  A    between atoms: C_2  and  C_4
REMARK                            x       y       z     vdW  Elec       q    Type
REMARK                         _______ _______ _______ _____ _____    ______ ____
ROOT
ATOM      1  C   UNL     1     -11.829  13.580  66.253  0.00  0.00    +0.099 A 
ATOM      2  C   UNL     1     -11.511  14.745  66.931  0.00  0.00    +0.105 A 
ATOM      3  N   UNL     1     -11.529  14.774  68.287  0.00  0.00    -0.242 NA
ATOM      4  C   UNL     1     -11.868  13.683  69.018  0.00  0.00    +0.099 A 
ATOM      5  C   UNL     1     -11.708  12.462  68.375  0.00  0.00    +0.021 A 
ATOM      6  C   UNL     1     -11.734  12.405  66.987  0.00  0.00    +0.010 A 
ENDROOT
BRANCH   1   8
ATOM      7  O   UNL     1     -13.144  12.464  64.662  0.00  0.00    -0.240 OA
ATOM      8  C   UNL     1     -12.647  13.571  65.033  0.00  0.00    +0.389 C 
ATOM      9  O   UNL     1     -12.601  14.576  64.085  0.00  0.00    -0.240 OA
ENDBRANCH   1   8
TORSDOF 1
ENDMDL
MODEL 8
REMARK VINA RESULT:      -4.0      2.842      3.765
REMARK  Name = 
REMARK  1 active torsions:
REMARK  status: ('A' for Active; 'I' for Inactive)
REMARK    1  A    between atoms: C_2  and  C_4
REMARK                            x       y       z     vdW  Elec       q    Type
REMARK                         _______ _______ _______ _____ _____    ______ ____
ROOT
ATOM      1  C   UNL     1     -11.167  13.902  65.236  0.00  0.00    +0.099 A 
ATOM      2  C   UNL     1     -11.420  15.095  64.580  0.00  0.00    +0.105 A 
ATOM      3  N   UNL     1     -10.774  16.229  64.950  0.00  0.00    -0.242 NA
ATOM      4  C   UNL     1      -9.881  16.239  65.970  0.00  0.00    +0.099 A 
ATOM      5  C   UNL     1      -9.304  15.011  66.269  0.00  0.00    +0.021 A 
ATOM      6  C   UNL     1      -9.972  13.838  65.940  0.00  0.00    +0.010 A 
ENDROOT
BRANCH   1   8
ATOM      7  O   UNL     1     -12.044  12.196  66.587  0.00  0.00    -0.240 OA
ATOM      8  C   UNL     1     -12.229  12.947  65.581  0.00  0.00    +0.389 C 
ATOM      9  O   UNL     1     -13.216  12.560  64.695  0.00  0.00    -0.240 OA
ENDBRANCH   1   8
TORSDOF 1
ENDMDL
MODEL 9
REMARK VINA RESULT:      -4.0      6.278      7.029
REMARK  Name = 
REMARK  1 active torsions:
REMARK  status: ('A' for Active; 'I' for Inactive)
REMARK    1  A    between atoms: C_2  and  C_4
REMARK                            x       y       z     vdW  Elec       q    Type
REMARK                         _______ _______ _______ _____ _____    ______ ____
ROOT
ATOM      1  C   UNL     1     -11.936  14.952  70.742  0.00  0.00    +0.099 A 
ATOM      2  C   UNL     1     -11.736  15.975  71.652  0.00  0.00    +0.105 A 
ATOM      3  N   UNL     1     -12.534  16.084  72.745  0.00  0.00    -0.242 NA
ATOM      4  C   UNL     1     -13.549  15.216  72.974  0.00  0.00    +0.099 A 
ATOM      5  C   UNL     1     -13.426  13.978  72.354  0.00  0.00    +0.021 A 
ATOM      6  C   UNL     1     -12.652  13.856  71.207  0.00  0.00    +0.010 A 
ENDROOT
BRANCH   1   8
ATOM      7  O   UNL     1     -11.892  16.342  68.852  0.00  0.00    -0.240 OA
ATOM      8  C   UNL     1     -11.840  15.152  69.290  0.00  0.00    +0.389 C 
ATOM      9  O   UNL     1     -12.069  14.146  68.371  0.00  0.00    -0.240 OA
ENDBRANCH   1   8
TORSDOF 1
ENDMDL
