MODEL 1
REMARK VINA RESULT:      -5.6      0.000      0.000
REMARK  Name = 
REMARK  9 active torsions:
REMARK  status: ('A' for Active; 'I' for Inactive)
REMARK    1  A    between atoms: C_2  and  C_3
REMARK    2  A    between atoms: C_3  and  C_4
REMARK    3  A    between atoms: C_4  and  C_5
REMARK    4  A    between atoms: C_5  and  C_6
REMARK    5  A    between atoms: C_5  and  C_8
REMARK    6  A    between atoms: C_8  and  O_9
REMARK    7  A    between atoms: O_9  and  C_10
REMARK    8  A    between atoms: C_10  and  C_12
REMARK    9  A    between atoms: C_15  and  N_16
REMARK                            x       y       z     vdW  Elec       q    Type
REMARK                         _______ _______ _______ _____ _____    ______ ____
ROOT
ATOM      1  C   UNL     1     -11.029  16.453  68.471  0.00  0.00    +0.341 C 
ATOM      2  O   UNL     1     -11.078  17.624  67.985  0.00  0.00    -0.245 OA
ENDROOT
BRANCH   1   3
ATOM      3  C   UNL     1     -10.729  15.384  67.510  0.00  0.00    +0.076 A 
ATOM      4  C   UNL     1     -10.650  14.050  67.890  0.00  0.00    +0.008 A 
ATOM      5  C   UNL     1     -11.101  13.102  66.990  0.00  0.00    +0.015 A 
ATOM      6  C   UNL     1     -11.200  13.458  65.666  0.00  0.00    +0.048 A 
ATOM      7  C   UNL     1     -10.667  14.650  65.253  0.00  0.00    +0.015 A 
ATOM      8  C   UNL     1     -10.521  15.666  66.187  0.00  0.00    +0.008 A 
BRANCH   6   9
ATOM      9  N   UNL     1     -11.500  12.422  64.723  0.00  0.00    -0.304 N 
ATOM     10  C   UNL     1     -12.087  12.824  63.447  0.00  0.00    +0.112 C 
ATOM     11  C   UNL     1     -10.653  11.254  64.765  0.00  0.00    +0.112 C 
ENDBRANCH   6   9
ENDBRANCH   1   3
BRANCH   1  12
ATOM     12  O   UNL     1     -11.964  16.144  69.449  0.00  0.00    -0.445 OA
BRANCH  12  13
ATOM     13  C   UNL     1     -11.583  16.139  70.799  0.00  0.00    +0.209 C 
BRANCH  13  14
ATOM     14  C   UNL     1     -12.887  15.508  71.601  0.00  0.00    +0.044 C 
BRANCH  14  15
ATOM     15  C   UNL     1     -11.996  15.207  72.961  0.00  0.00    +0.004 C 
ATOM     16  C   UNL     1     -12.618  15.997  74.062  0.00  0.00    +0.000 C 
ENDBRANCH  14  15
BRANCH  14  17
ATOM     17  C   UNL     1     -12.604  13.999  70.977  0.00  0.00    +0.004 C 
BRANCH  17  18
ATOM     18  C   UNL     1     -13.326  13.057  71.884  0.00  0.00    +0.000 C 
BRANCH  18  20
ATOM     19  C   UNL     1     -12.131  11.569  70.421  0.00  0.00    +0.000 C 
ATOM     20  C   UNL     1     -13.011  11.611  71.649  0.00  0.00    +0.000 C 
ENDBRANCH  18  20
ENDBRANCH  17  18
ENDBRANCH  14  17
ENDBRANCH  13  14
ENDBRANCH  12  13
ENDBRANCH   1  12
TORSDOF 9
ENDMDL
MODEL 2
REMARK VINA RESULT:      -5.4      2.829      5.576
REMARK  Name = 
REMARK  9 active torsions:
REMARK  status: ('A' for Active; 'I' for Inactive)
REMARK    1  A    between atoms: C_2  and  C_3
REMARK    2  A    between atoms: C_3  and  C_4
REMARK    3  A    between atoms: C_4  and  C_5
REMARK    4  A    between atoms: C_5  and  C_6
REMARK    5  A    between atoms: C_5  and  C_8
REMARK    6  A    between atoms: C_8  and  O_9
REMARK    7  A    between atoms: O_9  and  C_10
REMARK    8  A    between atoms: C_10  and  C_12
REMARK    9  A    between atoms: C_15  and  N_16
REMARK                            x       y       z     vdW  Elec       q    Type
REMARK                         _______ _______ _______ _____ _____    ______ ____
ROOT
ATOM      1  C   UNL     1     -11.562  12.579  68.030  0.00  0.00    +0.341 C 
ATOM      2  O   UNL     1     -12.002  12.009  66.986  0.00  0.00    -0.245 OA
ENDROOT
BRANCH   1   3
ATOM      3  C   UNL     1     -11.483  11.730  69.226  0.00  0.00    +0.076 A 
ATOM      4  C   UNL     1     -12.187  12.022  70.387  0.00  0.00    +0.008 A 
ATOM      5  C   UNL     1     -12.675  10.957  71.122  0.00  0.00    +0.015 A 
ATOM      6  C   UNL     1     -12.111   9.718  70.926  0.00  0.00    +0.048 A 
ATOM      7  C   UNL     1     -10.970   9.616  70.176  0.00  0.00    +0.015 A 
ATOM      8  C   UNL     1     -10.707  10.602  69.237  0.00  0.00    +0.008 A 
BRANCH   6   9
ATOM      9  N   UNL     1     -12.504   8.665  71.814  0.00  0.00    -0.304 N 
ATOM     10  C   UNL     1     -11.451   8.012  72.588  0.00  0.00    +0.112 C 
ATOM     11  C   UNL     1     -13.828   8.765  72.378  0.00  0.00    +0.112 C 
ENDBRANCH   6   9
ENDBRANCH   1   3
BRANCH   1  12
ATOM     12  O   UNL     1     -11.967  13.889  68.244  0.00  0.00    -0.445 OA
BRANCH  12  13
ATOM     13  C   UNL     1     -11.062  14.940  68.036  0.00  0.00    +0.209 C 
BRANCH  13  14
ATOM     14  C   UNL     1     -11.574  16.143  69.053  0.00  0.00    +0.044 C 
BRANCH  14  15
ATOM     15  C   UNL     1     -10.229  17.060  68.762  0.00  0.00    +0.004 C 
ATOM     16  C   UNL     1     -10.526  17.882  67.554  0.00  0.00    +0.000 C 
ENDBRANCH  14  15
BRANCH  14  17
ATOM     17  C   UNL     1     -10.888  15.396  70.362  0.00  0.00    +0.004 C 
BRANCH  17  18
ATOM     18  C   UNL     1     -11.800  15.694  71.507  0.00  0.00    +0.000 C 
BRANCH  18  20
ATOM     19  C   UNL     1     -13.805  14.718  72.408  0.00  0.00    +0.000 C 
ATOM     20  C   UNL     1     -13.252  15.462  71.215  0.00  0.00    +0.000 C 
ENDBRANCH  18  20
ENDBRANCH  17  18
ENDBRANCH  14  17
ENDBRANCH  13  14
ENDBRANCH  12  13
ENDBRANCH   1  12
TORSDOF 9
ENDMDL
MODEL 3
REMARK VINA RESULT:      -5.4      1.537      2.644
REMARK  Name = 
REMARK  9 active torsions:
REMARK  status: ('A' for Active; 'I' for Inactive)
REMARK    1  A    between atoms: C_2  and  C_3
REMARK    2  A    between atoms: C_3  and  C_4
REMARK    3  A    between atoms: C_4  and  C_5
REMARK    4  A    between atoms: C_5  and  C_6
REMARK    5  A    between atoms: C_5  and  C_8
REMARK    6  A    between atoms: C_8  and  O_9
REMARK    7  A    between atoms: O_9  and  C_10
REMARK    8  A    between atoms: C_10  and  C_12
REMARK    9  A    between atoms: C_15  and  N_16
REMARK                            x       y       z     vdW  Elec       q    Type
REMARK                         _______ _______ _______ _____ _____    ______ ____
ROOT
ATOM      1  C   UNL     1     -10.114  17.570  67.857  0.00  0.00    +0.341 C 
ATOM      2  O   UNL     1     -10.867  18.549  67.570  0.00  0.00    -0.245 OA
ENDROOT
BRANCH   1   3
ATOM      3  C   UNL     1      -9.930  16.582  66.787  0.00  0.00    +0.076 A 
ATOM      4  C   UNL     1      -8.968  15.582  66.861  0.00  0.00    +0.008 A 
ATOM      5  C   UNL     1      -9.282  14.351  66.314  0.00  0.00    +0.015 A 
ATOM      6  C   UNL     1     -10.298  14.291  65.390  0.00  0.00    +0.048 A 
ATOM      7  C   UNL     1     -10.821  15.457  64.896  0.00  0.00    +0.015 A 
ATOM      8  C   UNL     1     -10.714  16.606  65.665  0.00  0.00    +0.008 A 
BRANCH   6   9
ATOM      9  N   UNL     1     -10.497  13.049  64.705  0.00  0.00    -0.304 N 
ATOM     10  C   UNL     1      -9.963  11.842  65.333  0.00  0.00    +0.112 C 
ATOM     11  C   UNL     1     -11.689  12.948  63.897  0.00  0.00    +0.112 C 
ENDBRANCH   6   9
ENDBRANCH   1   3
BRANCH   1  12
ATOM     12  O   UNL     1     -10.218  17.057  69.143  0.00  0.00    -0.445 OA
BRANCH  12  13
ATOM     13  C   UNL     1     -11.364  16.340  69.515  0.00  0.00    +0.209 C 
BRANCH  13  14
ATOM     14  C   UNL     1     -10.803  14.841  69.940  0.00  0.00    +0.044 C 
BRANCH  14  15
ATOM     15  C   UNL     1     -11.974  14.074  69.059  0.00  0.00    +0.004 C 
ATOM     16  C   UNL     1     -11.488  12.685  68.820  0.00  0.00    +0.000 C 
ENDBRANCH  14  15
BRANCH  14  17
ATOM     17  C   UNL     1     -11.716  14.836  71.322  0.00  0.00    +0.004 C 
BRANCH  17  18
ATOM     18  C   UNL     1     -13.003  15.496  70.944  0.00  0.00    +0.000 C 
BRANCH  18  20
ATOM     19  C   UNL     1     -13.965  13.727  72.260  0.00  0.00    +0.000 C 
ATOM     20  C   UNL     1     -14.152  15.169  71.850  0.00  0.00    +0.000 C 
ENDBRANCH  18  20
ENDBRANCH  17  18
ENDBRANCH  14  17
ENDBRANCH  13  14
ENDBRANCH  12  13
ENDBRANCH   1  12
TORSDOF 9
ENDMDL
MODEL 4
REMARK VINA RESULT:      -5.3      3.113      4.660
REMARK  Name = 
REMARK  9 active torsions:
REMARK  status: ('A' for Active; 'I' for Inactive)
REMARK    1  A    between atoms: C_2  and  C_3
REMARK    2  A    between atoms: C_3  and  C_4
REMARK    3  A    between atoms: C_4  and  C_5
REMARK    4  A    between atoms: C_5  and  C_6
REMARK    5  A    between atoms: C_5  and  C_8
REMARK    6  A    between atoms: C_8  and  O_9
REMARK    7  A    between atoms: O_9  and  C_10
REMARK    8  A    between atoms: C_10  and  C_12
REMARK    9  A    between atoms: C_15  and  N_16
REMARK                            x       y       z     vdW  Elec       q    Type
REMARK                         _______ _______ _______ _____ _____    ______ ____
ROOT
ATOM      1  C   UNL     1     -10.829  15.924  64.752  0.00  0.00    +0.341 C 
ATOM      2  O   UNL     1     -11.658  16.602  64.070  0.00  0.00    -0.245 OA
ENDROOT
BRANCH   1   3
ATOM      3  C   UNL     1     -11.332  14.643  65.263  0.00  0.00    +0.076 A 
ATOM      4  C   UNL     1     -11.317  13.485  64.497  0.00  0.00    +0.008 A 
ATOM      5  C   UNL     1     -11.076  12.290  65.151  0.00  0.00    +0.015 A 
ATOM      6  C   UNL     1     -11.280  12.240  66.510  0.00  0.00    +0.048 A 
ATOM      7  C   UNL     1     -11.898  13.292  67.131  0.00  0.00    +0.015 A 
ATOM      8  C   UNL     1     -11.835  14.542  66.533  0.00  0.00    +0.008 A 
BRANCH   6   9
ATOM      9  N   UNL     1     -11.196  10.959  67.145  0.00  0.00    -0.304 N 
ATOM     10  C   UNL     1     -10.189  10.026  66.645  0.00  0.00    +0.112 C 
ATOM     11  C   UNL     1     -11.561  10.912  68.541  0.00  0.00    +0.112 C 
ENDBRANCH   6   9
ENDBRANCH   1   3
BRANCH   1  12
ATOM     12  O   UNL     1      -9.997  16.633  65.607  0.00  0.00    -0.445 OA
BRANCH  12  13
ATOM     13  C   UNL     1     -10.399  17.886  66.090  0.00  0.00    +0.209 C 
BRANCH  13  14
ATOM     14  C   UNL     1     -10.506  17.690  67.731  0.00  0.00    +0.044 C 
BRANCH  14  15
ATOM     15  C   UNL     1      -9.717  19.114  68.025  0.00  0.00    +0.004 C 
ATOM     16  C   UNL     1     -10.121  20.057  66.944  0.00  0.00    +0.000 C 
ENDBRANCH  14  15
BRANCH  14  17
ATOM     17  C   UNL     1      -9.106  16.806  67.766  0.00  0.00    +0.004 C 
BRANCH  17  18
ATOM     18  C   UNL     1      -9.274  15.849  68.901  0.00  0.00    +0.000 C 
BRANCH  18  20
ATOM     19  C   UNL     1      -8.120  14.517  67.264  0.00  0.00    +0.000 C 
ATOM     20  C   UNL     1      -8.597  14.526  68.698  0.00  0.00    +0.000 C 
ENDBRANCH  18  20
ENDBRANCH  17  18
ENDBRANCH  14  17
ENDBRANCH  13  14
ENDBRANCH  12  13
ENDBRANCH   1  12
TORSDOF 9
ENDMDL
MODEL 5
REMARK VINA RESULT:      -5.3      3.554      6.375
REMARK  Name = 
REMARK  9 active torsions:
REMARK  status: ('A' for Active; 'I' for Inactive)
REMARK    1  A    between atoms: C_2  and  C_3
REMARK    2  A    between atoms: C_3  and  C_4
REMARK    3  A    between atoms: C_4  and  C_5
REMARK    4  A    between atoms: C_5  and  C_6
REMARK    5  A    between atoms: C_5  and  C_8
REMARK    6  A    between atoms: C_8  and  O_9
REMARK    7  A    between atoms: O_9  and  C_10
REMARK    8  A    between atoms: C_10  and  C_12
REMARK    9  A    between atoms: C_15  and  N_16
REMARK                            x       y       z     vdW  Elec       q    Type
REMARK                         _______ _______ _______ _____ _____    ______ ____
ROOT
ATOM      1  C   UNL     1     -10.607  16.450  65.472  0.00  0.00    +0.341 C 
ATOM      2  O   UNL     1     -11.195  16.910  64.447  0.00  0.00    -0.245 OA
ENDROOT
BRANCH   1   3
ATOM      3  C   UNL     1     -10.113  17.456  66.420  0.00  0.00    +0.076 A 
ATOM      4  C   UNL     1      -9.477  17.105  67.605  0.00  0.00    +0.008 A 
ATOM      5  C   UNL     1      -8.449  17.920  68.043  0.00  0.00    +0.015 A 
ATOM      6  C   UNL     1      -8.384  19.205  67.556  0.00  0.00    +0.048 A 
ATOM      7  C   UNL     1      -9.434  19.694  66.824  0.00  0.00    +0.015 A 
ATOM      8  C   UNL     1     -10.256  18.793  66.165  0.00  0.00    +0.008 A 
BRANCH   6   9
ATOM      9  N   UNL     1      -7.425  20.089  68.146  0.00  0.00    -0.304 N 
ATOM     10  C   UNL     1      -6.718  19.617  69.334  0.00  0.00    +0.112 C 
ATOM     11  C   UNL     1      -6.752  20.994  67.246  0.00  0.00    +0.112 C 
ENDBRANCH   6   9
ENDBRANCH   1   3
BRANCH   1  12
ATOM     12  O   UNL     1      -9.788  15.346  65.279  0.00  0.00    -0.445 OA
BRANCH  12  13
ATOM     13  C   UNL     1     -10.120  14.119  65.873  0.00  0.00    +0.209 C 
BRANCH  13  14
ATOM     14  C   UNL     1     -11.664  14.328  66.432  0.00  0.00    +0.044 C 
BRANCH  14  15
ATOM     15  C   UNL     1     -11.318  13.595  67.874  0.00  0.00    +0.004 C 
ATOM     16  C   UNL     1     -11.878  14.470  68.942  0.00  0.00    +0.000 C 
ENDBRANCH  14  15
BRANCH  14  17
ATOM     17  C   UNL     1     -12.161  12.910  65.733  0.00  0.00    +0.004 C 
BRANCH  17  18
ATOM     18  C   UNL     1     -12.320  13.223  64.280  0.00  0.00    +0.000 C 
BRANCH  18  20
ATOM     19  C   UNL     1     -11.008  11.338  63.567  0.00  0.00    +0.000 C 
ATOM     20  C   UNL     1     -12.345  12.018  63.389  0.00  0.00    +0.000 C 
ENDBRANCH  18  20
ENDBRANCH  17  18
ENDBRANCH  14  17
ENDBRANCH  13  14
ENDBRANCH  12  13
ENDBRANCH   1  12
TORSDOF 9
ENDMDL
MODEL 6
REMARK VINA RESULT:      -5.3      2.244      4.307
REMARK  Name = 
REMARK  9 active torsions:
REMARK  status: ('A' for Active; 'I' for Inactive)
REMARK    1  A    between atoms: C_2  and  C_3
REMARK    2  A    between atoms: C_3  and  C_4
REMARK    3  A    between atoms: C_4  and  C_5
REMARK    4  A    between atoms: C_5  and  C_6
REMARK    5  A    between atoms: C_5  and  C_8
REMARK    6  A    between atoms: C_8  and  O_9
REMARK    7  A    between atoms: O_9  and  C_10
REMARK    8  A    between atoms: C_10  and  C_12
REMARK    9  A    between atoms: C_15  and  N_16
REMARK                            x       y       z     vdW  Elec       q    Type
REMARK                         _______ _______ _______ _____ _____    ______ ____
ROOT
ATOM      1  C   UNL     1     -10.848  16.114  64.783  0.00  0.00    +0.341 C 
ATOM      2  O   UNL     1     -11.654  16.543  63.903  0.00  0.00    -0.245 OA
ENDROOT
BRANCH   1   3
ATOM      3  C   UNL     1     -11.119  14.759  65.280  0.00  0.00    +0.076 A 
ATOM      4  C   UNL     1     -10.380  13.658  64.865  0.00  0.00    +0.008 A 
ATOM      5  C   UNL     1     -10.138  12.664  65.795  0.00  0.00    +0.015 A 
ATOM      6  C   UNL     1     -10.952  12.596  66.901  0.00  0.00    +0.048 A 
ATOM      7  C   UNL     1     -12.081  13.370  66.947  0.00  0.00    +0.015 A 
ATOM      8  C   UNL     1     -12.118  14.529  66.187  0.00  0.00    +0.008 A 
BRANCH   6   9
ATOM      9  N   UNL     1     -10.803  11.463  67.764  0.00  0.00    -0.304 N 
ATOM     10  C   UNL     1     -11.768  11.315  68.852  0.00  0.00    +0.112 C 
ATOM     11  C   UNL     1     -10.231  10.278  67.171  0.00  0.00    +0.112 C 
ENDBRANCH   6   9
ENDBRANCH   1   3
BRANCH   1  12
ATOM     12  O   UNL     1     -10.413  17.030  65.731  0.00  0.00    -0.445 OA
BRANCH  12  13
ATOM     13  C   UNL     1      -9.200  16.816  66.402  0.00  0.00    +0.209 C 
BRANCH  13  14
ATOM     14  C   UNL     1      -9.540  17.123  67.993  0.00  0.00    +0.044 C 
BRANCH  14  15
ATOM     15  C   UNL     1      -7.998  17.637  68.298  0.00  0.00    +0.004 C 
ATOM     16  C   UNL     1      -8.046  19.126  68.340  0.00  0.00    +0.000 C 
ENDBRANCH  14  15
BRANCH  14  17
ATOM     17  C   UNL     1      -9.195  15.560  68.420  0.00  0.00    +0.004 C 
BRANCH  17  18
ATOM     18  C   UNL     1     -10.200  15.208  69.468  0.00  0.00    +0.000 C 
BRANCH  18  20
ATOM     19  C   UNL     1     -12.402  15.441  70.409  0.00  0.00    +0.000 C 
ATOM     20  C   UNL     1     -11.394  16.114  69.506  0.00  0.00    +0.000 C 
ENDBRANCH  18  20
ENDBRANCH  17  18
ENDBRANCH  14  17
ENDBRANCH  13  14
ENDBRANCH  12  13
ENDBRANCH   1  12
TORSDOF 9
ENDMDL
MODEL 7
REMARK VINA RESULT:      -5.2      3.082      5.187
REMARK  Name = 
REMARK  9 active torsions:
REMARK  status: ('A' for Active; 'I' for Inactive)
REMARK    1  A    between atoms: C_2  and  C_3
REMARK    2  A    between atoms: C_3  and  C_4
REMARK    3  A    between atoms: C_4  and  C_5
REMARK    4  A    between atoms: C_5  and  C_6
REMARK    5  A    between atoms: C_5  and  C_8
REMARK    6  A    between atoms: C_8  and  O_9
REMARK    7  A    between atoms: O_9  and  C_10
REMARK    8  A    between atoms: C_10  and  C_12
REMARK    9  A    between atoms: C_15  and  N_16
REMARK                            x       y       z     vdW  Elec       q    Type
REMARK                         _______ _______ _______ _____ _____    ______ ____
ROOT
ATOM      1  C   UNL     1     -10.725  15.912  64.949  0.00  0.00    +0.341 C 
ATOM      2  O   UNL     1     -11.491  16.561  64.174  0.00  0.00    -0.245 OA
ENDROOT
BRANCH   1   3
ATOM      3  C   UNL     1     -11.105  14.514  65.187  0.00  0.00    +0.076 A 
ATOM      4  C   UNL     1     -10.506  13.460  64.509  0.00  0.00    +0.008 A 
ATOM      5  C   UNL     1     -10.317  12.279  65.203  0.00  0.00    +0.015 A 
ATOM      6  C   UNL     1     -11.071  12.060  66.331  0.00  0.00    +0.048 A 
ATOM      7  C   UNL     1     -12.111  12.905  66.613  0.00  0.00    +0.015 A 
ATOM      8  C   UNL     1     -12.071  14.194  66.103  0.00  0.00    +0.008 A 
BRANCH   6   9
ATOM      9  N   UNL     1     -10.991  10.766  66.940  0.00  0.00    -0.304 N 
ATOM     10  C   UNL     1      -9.996   9.835  66.411  0.00  0.00    +0.112 C 
ATOM     11  C   UNL     1     -11.342  10.693  68.337  0.00  0.00    +0.112 C 
ENDBRANCH   6   9
ENDBRANCH   1   3
BRANCH   1  12
ATOM     12  O   UNL     1     -10.222  16.598  66.046  0.00  0.00    -0.445 OA
BRANCH  12  13
ATOM     13  C   UNL     1      -8.929  16.315  66.511  0.00  0.00    +0.209 C 
BRANCH  13  14
ATOM     14  C   UNL     1      -8.901  16.904  68.058  0.00  0.00    +0.044 C 
BRANCH  14  15
ATOM     15  C   UNL     1      -9.876  15.689  68.615  0.00  0.00    +0.004 C 
ATOM     16  C   UNL     1      -9.107  14.421  68.462  0.00  0.00    +0.000 C 
ENDBRANCH  14  15
BRANCH  14  17
ATOM     17  C   UNL     1     -10.182  17.909  67.752  0.00  0.00    +0.004 C 
BRANCH  17  18
ATOM     18  C   UNL     1      -9.809  19.219  68.366  0.00  0.00    +0.000 C 
BRANCH  18  20
ATOM     19  C   UNL     1     -10.424  19.843  66.126  0.00  0.00    +0.000 C 
ATOM     20  C   UNL     1      -9.849  20.379  67.417  0.00  0.00    +0.000 C 
ENDBRANCH  18  20
ENDBRANCH  17  18
ENDBRANCH  14  17
ENDBRANCH  13  14
ENDBRANCH  12  13
ENDBRANCH   1  12
TORSDOF 9
ENDMDL
MODEL 8
REMARK VINA RESULT:      -5.2      3.160      5.955
REMARK  Name = 
REMARK  9 active torsions:
REMARK  status: ('A' for Active; 'I' for Inactive)
REMARK    1  A    between atoms: C_2  and  C_3
REMARK    2  A    between atoms: C_3  and  C_4
REMARK    3  A    between atoms: C_4  and  C_5
REMARK    4  A    between atoms: C_5  and  C_6
REMARK    5  A    between atoms: C_5  and  C_8
REMARK    6  A    between atoms: C_8  and  O_9
REMARK    7  A    between atoms: O_9  and  C_10
REMARK    8  A    between atoms: C_10  and  C_12
REMARK    9  A    between atoms: C_15  and  N_16
REMARK                            x       y       z     vdW  Elec       q    Type
REMARK                         _______ _______ _______ _____ _____    ______ ____
ROOT
ATOM      1  C   UNL     1     -10.632  15.944  65.077  0.00  0.00    +0.341 C 
ATOM      2  O   UNL     1     -11.386  16.633  64.325  0.00  0.00    -0.245 OA
ENDROOT
BRANCH   1   3
ATOM      3  C   UNL     1     -11.299  14.877  65.833  0.00  0.00    +0.076 A 
ATOM      4  C   UNL     1     -11.874  13.778  65.208  0.00  0.00    +0.008 A 
ATOM      5  C   UNL     1     -11.801  12.561  65.861  0.00  0.00    +0.015 A 
ATOM      6  C   UNL     1     -11.563  12.563  67.215  0.00  0.00    +0.048 A 
ATOM      7  C   UNL     1     -11.608  13.749  67.899  0.00  0.00    +0.015 A 
ATOM      8  C   UNL     1     -11.373  14.924  67.199  0.00  0.00    +0.008 A 
BRANCH   6   9
ATOM      9  N   UNL     1     -11.662  11.313  67.907  0.00  0.00    -0.304 N 
ATOM     10  C   UNL     1     -10.866  10.198  67.399  0.00  0.00    +0.112 C 
ATOM     11  C   UNL     1     -11.942  11.385  69.321  0.00  0.00    +0.112 C 
ENDBRANCH   6   9
ENDBRANCH   1   3
BRANCH   1  12
ATOM     12  O   UNL     1      -9.630  16.629  65.752  0.00  0.00    -0.445 OA
BRANCH  12  13
ATOM     13  C   UNL     1      -9.853  17.946  66.180  0.00  0.00    +0.209 C 
BRANCH  13  14
ATOM     14  C   UNL     1      -9.362  17.963  67.761  0.00  0.00    +0.044 C 
BRANCH  14  15
ATOM     15  C   UNL     1     -10.040  19.448  68.029  0.00  0.00    +0.004 C 
ATOM     16  C   UNL     1     -10.386  20.007  66.692  0.00  0.00    +0.000 C 
ENDBRANCH  14  15
BRANCH  14  17
ATOM     17  C   UNL     1      -7.894  18.611  67.350  0.00  0.00    +0.004 C 
BRANCH  17  18
ATOM     18  C   UNL     1      -7.291  19.066  68.639  0.00  0.00    +0.000 C 
BRANCH  18  20
ATOM     19  C   UNL     1      -6.704  20.873  67.163  0.00  0.00    +0.000 C 
ATOM     20  C   UNL     1      -6.401  20.267  68.514  0.00  0.00    +0.000 C 
ENDBRANCH  18  20
ENDBRANCH  17  18
ENDBRANCH  14  17
ENDBRANCH  13  14
ENDBRANCH  12  13
ENDBRANCH   1  12
TORSDOF 9
ENDMDL
MODEL 9
REMARK VINA RESULT:      -5.2      3.705      6.657
REMARK  Name = 
REMARK  9 active torsions:
REMARK  status: ('A' for Active; 'I' for Inactive)
REMARK    1  A    between atoms: C_2  and  C_3
REMARK    2  A    between atoms: C_3  and  C_4
REMARK    3  A    between atoms: C_4  and  C_5
REMARK    4  A    between atoms: C_5  and  C_6
REMARK    5  A    between atoms: C_5  and  C_8
REMARK    6  A    between atoms: C_8  and  O_9
REMARK    7  A    between atoms: O_9  and  C_10
REMARK    8  A    between atoms: C_10  and  C_12
REMARK    9  A    between atoms: C_15  and  N_16
REMARK                            x       y       z     vdW  Elec       q    Type
REMARK                         _______ _______ _______ _____ _____    ______ ____
ROOT
ATOM      1  C   UNL     1     -12.443  13.881  64.936  0.00  0.00    +0.341 C 
ATOM      2  O   UNL     1     -12.685  14.472  63.839  0.00  0.00    -0.245 OA
ENDROOT
BRANCH   1   3
ATOM      3  C   UNL     1     -11.489  14.560  65.820  0.00  0.00    +0.076 A 
ATOM      4  C   UNL     1     -10.395  15.261  65.328  0.00  0.00    +0.008 A 
ATOM      5  C   UNL     1     -10.010  16.403  66.007  0.00  0.00    +0.015 A 
ATOM      6  C   UNL     1     -10.424  16.556  67.310  0.00  0.00    +0.048 A 
ATOM      7  C   UNL     1     -11.019  15.501  67.949  0.00  0.00    +0.015 A 
ATOM      8  C   UNL     1     -11.648  14.533  67.180  0.00  0.00    +0.008 A 
BRANCH   6   9
ATOM      9  N   UNL     1      -9.878  17.652  68.053  0.00  0.00    -0.304 N 
ATOM     10  C   UNL     1      -8.530  17.492  68.594  0.00  0.00    +0.112 C 
ATOM     11  C   UNL     1     -10.326  18.970  67.671  0.00  0.00    +0.112 C 
ENDBRANCH   6   9
ENDBRANCH   1   3
BRANCH   1  12
ATOM     12  O   UNL     1     -12.346  12.496  64.891  0.00  0.00    -0.445 OA
BRANCH  12  13
ATOM     13  C   UNL     1     -11.805  11.873  63.757  0.00  0.00    +0.209 C 
BRANCH  13  14
ATOM     14  C   UNL     1     -10.169  11.898  64.005  0.00  0.00    +0.044 C 
BRANCH  14  15
ATOM     15  C   UNL     1      -9.925  10.602  63.006  0.00  0.00    +0.004 C 
ATOM     16  C   UNL     1      -8.725  10.919  62.181  0.00  0.00    +0.000 C 
ENDBRANCH  14  15
BRANCH  14  17
ATOM     17  C   UNL     1     -10.308  10.943  65.352  0.00  0.00    +0.004 C 
BRANCH  17  18
ATOM     18  C   UNL     1      -9.384  11.547  66.359  0.00  0.00    +0.000 C 
BRANCH  18  20
ATOM     19  C   UNL     1     -11.223  10.863  67.751  0.00  0.00    +0.000 C 
ATOM     20  C   UNL     1      -9.775  11.293  67.784  0.00  0.00    +0.000 C 
ENDBRANCH  18  20
ENDBRANCH  17  18
ENDBRANCH  14  17
ENDBRANCH  13  14
ENDBRANCH  12  13
ENDBRANCH   1  12
TORSDOF 9
ENDMDL
