MODEL 1
REMARK VINA RESULT:      -4.2      0.000      0.000
REMARK  Name = 
REMARK  3 active torsions:
REMARK  status: ('A' for Active; 'I' for Inactive)
REMARK    1  A    between atoms: N_2  and  C_3
REMARK    2  A    between atoms: C_3  and  C_5
REMARK    3  A    between atoms: C_5  and  C_6
REMARK                            x       y       z     vdW  Elec       q    Type
REMARK                         _______ _______ _______ _____ _____    ______ ____
ROOT
ATOM      1  C   UNL     1     -12.040  14.177  70.463  0.00  0.00    +0.001 C 
ATOM      2  C   UNL     1     -12.856  13.310  71.374  0.00  0.00    +0.000 C 
ATOM      3  C   UNL     1     -13.922  14.150  72.018  0.00  0.00    +0.000 C 
ATOM      4  C   UNL     1     -13.316  15.204  72.900  0.00  0.00    +0.000 C 
ATOM      5  C   UNL     1     -12.241  15.922  72.135  0.00  0.00    +0.000 C 
ATOM      6  C   UNL     1     -12.401  15.627  70.655  0.00  0.00    +0.000 C 
ENDROOT
BRANCH   1   7
ATOM      7  C   UNL     1     -12.123  13.731  69.030  0.00  0.00    +0.017 C 
BRANCH   7   8
ATOM      8  C   UNL     1     -11.296  12.313  69.115  0.00  0.00    +0.073 C 
ATOM      9  C   UNL     1     -10.053  12.918  68.226  0.00  0.00    +0.019 C 
BRANCH   8  11
ATOM     10  C   UNL     1     -11.742  12.635  66.802  0.00  0.00    +0.107 C 
ATOM     11  N   UNL     1     -12.018  11.747  67.835  0.00  0.00    -0.218 NA
ENDBRANCH   8  11
ENDBRANCH   7   8
ENDBRANCH   1   7
TORSDOF 3
ENDMDL
MODEL 2
REMARK VINA RESULT:      -4.2      1.485      2.266
REMARK  Name = 
REMARK  3 active torsions:
REMARK  status: ('A' for Active; 'I' for Inactive)
REMARK    1  A    between atoms: N_2  and  C_3
REMARK    2  A    between atoms: C_3  and  C_5
REMARK    3  A    between atoms: C_5  and  C_6
REMARK                            x       y       z     vdW  Elec       q    Type
REMARK                         _______ _______ _______ _____ _____    ______ ____
ROOT
ATOM      1  C   UNL     1     -12.530  14.459  70.327  0.00  0.00    +0.001 C 
ATOM      2  C   UNL     1     -12.120  15.836  70.755  0.00  0.00    +0.000 C 
ATOM      3  C   UNL     1     -12.104  15.894  72.256  0.00  0.00    +0.000 C 
ATOM      4  C   UNL     1     -13.484  15.691  72.816  0.00  0.00    +0.000 C 
ATOM      5  C   UNL     1     -14.095  14.476  72.179  0.00  0.00    +0.000 C 
ATOM      6  C   UNL     1     -13.003  13.660  71.513  0.00  0.00    +0.000 C 
ENDROOT
BRANCH   1   7
ATOM      7  C   UNL     1     -11.455  13.767  69.537  0.00  0.00    +0.017 C 
BRANCH   7   8
ATOM      8  C   UNL     1     -11.944  14.115  68.007  0.00  0.00    +0.073 C 
ATOM      9  C   UNL     1     -11.650  12.579  67.502  0.00  0.00    +0.019 C 
BRANCH   8  11
ATOM     10  C   UNL     1     -10.615  15.941  67.266  0.00  0.00    +0.107 C 
ATOM     11  N   UNL     1     -10.503  14.594  67.592  0.00  0.00    -0.218 NA
ENDBRANCH   8  11
ENDBRANCH   7   8
ENDBRANCH   1   7
TORSDOF 3
ENDMDL
MODEL 3
REMARK VINA RESULT:      -4.1      2.316      4.692
REMARK  Name = 
REMARK  3 active torsions:
REMARK  status: ('A' for Active; 'I' for Inactive)
REMARK    1  A    between atoms: N_2  and  C_3
REMARK    2  A    between atoms: C_3  and  C_5
REMARK    3  A    between atoms: C_5  and  C_6
REMARK                            x       y       z     vdW  Elec       q    Type
REMARK                         _______ _______ _______ _____ _____    ______ ____
ROOT
ATOM      1  C   UNL     1     -11.643  14.389  70.525  0.00  0.00    +0.001 C 
ATOM      2  C   UNL     1     -11.217  15.805  70.284  0.00  0.00    +0.000 C 
ATOM      3  C   UNL     1     -11.347  16.110  68.819  0.00  0.00    +0.000 C 
ATOM      4  C   UNL     1     -10.408  15.263  68.008  0.00  0.00    +0.000 C 
ATOM      5  C   UNL     1     -10.556  13.829  68.431  0.00  0.00    +0.000 C 
ATOM      6  C   UNL     1     -11.846  13.672  69.215  0.00  0.00    +0.000 C 
ENDROOT
BRANCH   1   7
ATOM      7  C   UNL     1     -12.834  14.302  71.438  0.00  0.00    +0.017 C 
BRANCH   7   8
ATOM      8  C   UNL     1     -12.718  15.747  72.212  0.00  0.00    +0.073 C 
ATOM      9  C   UNL     1     -12.683  15.021  73.685  0.00  0.00    +0.019 C 
BRANCH   8  11
ATOM     10  C   UNL     1     -14.820  14.735  71.755  0.00  0.00    +0.107 C 
ATOM     11  N   UNL     1     -14.283  15.913  72.261  0.00  0.00    -0.218 NA
ENDBRANCH   8  11
ENDBRANCH   7   8
ENDBRANCH   1   7
TORSDOF 3
ENDMDL
MODEL 4
REMARK VINA RESULT:      -4.0      2.134      4.933
REMARK  Name = 
REMARK  3 active torsions:
REMARK  status: ('A' for Active; 'I' for Inactive)
REMARK    1  A    between atoms: N_2  and  C_3
REMARK    2  A    between atoms: C_3  and  C_5
REMARK    3  A    between atoms: C_5  and  C_6
REMARK                            x       y       z     vdW  Elec       q    Type
REMARK                         _______ _______ _______ _____ _____    ______ ____
ROOT
ATOM      1  C   UNL     1     -11.558  14.708  69.653  0.00  0.00    +0.001 C 
ATOM      2  C   UNL     1     -11.489  15.217  68.245  0.00  0.00    +0.000 C 
ATOM      3  C   UNL     1     -12.064  14.180  67.323  0.00  0.00    +0.000 C 
ATOM      4  C   UNL     1     -11.234  12.927  67.340  0.00  0.00    +0.000 C 
ATOM      5  C   UNL     1     -10.989  12.523  68.767  0.00  0.00    +0.000 C 
ATOM      6  C   UNL     1     -11.966  13.257  69.667  0.00  0.00    +0.000 C 
ENDROOT
BRANCH   1   7
ATOM      7  C   UNL     1     -12.420  15.573  70.528  0.00  0.00    +0.017 C 
BRANCH   7   8
ATOM      8  C   UNL     1     -12.735  14.529  71.757  0.00  0.00    +0.073 C 
ATOM      9  C   UNL     1     -14.058  15.385  72.224  0.00  0.00    +0.019 C 
BRANCH   8  11
ATOM     10  C   UNL     1     -12.500  15.442  73.939  0.00  0.00    +0.107 C 
ATOM     11  N   UNL     1     -11.797  15.317  72.747  0.00  0.00    -0.218 NA
ENDBRANCH   8  11
ENDBRANCH   7   8
ENDBRANCH   1   7
TORSDOF 3
ENDMDL
MODEL 5
REMARK VINA RESULT:      -4.0      2.274      2.755
REMARK  Name = 
REMARK  3 active torsions:
REMARK  status: ('A' for Active; 'I' for Inactive)
REMARK    1  A    between atoms: N_2  and  C_3
REMARK    2  A    between atoms: C_3  and  C_5
REMARK    3  A    between atoms: C_5  and  C_6
REMARK                            x       y       z     vdW  Elec       q    Type
REMARK                         _______ _______ _______ _____ _____    ______ ____
ROOT
ATOM      1  C   UNL     1     -11.382  15.420  70.999  0.00  0.00    +0.001 C 
ATOM      2  C   UNL     1     -12.312  14.313  70.604  0.00  0.00    +0.000 C 
ATOM      3  C   UNL     1     -13.611  14.482  71.339  0.00  0.00    +0.000 C 
ATOM      4  C   UNL     1     -13.413  14.332  72.821  0.00  0.00    +0.000 C 
ATOM      5  C   UNL     1     -12.260  15.195  73.249  0.00  0.00    +0.000 C 
ATOM      6  C   UNL     1     -11.956  16.200  72.153  0.00  0.00    +0.000 C 
ENDROOT
BRANCH   1   7
ATOM      7  C   UNL     1     -11.000  16.284  69.832  0.00  0.00    +0.017 C 
BRANCH   7   8
ATOM      8  C   UNL     1     -10.366  15.153  68.822  0.00  0.00    +0.073 C 
ATOM      9  C   UNL     1      -8.848  15.751  69.010  0.00  0.00    +0.019 C 
BRANCH   8  11
ATOM     10  C   UNL     1     -10.491  17.368  67.970  0.00  0.00    +0.107 C 
ATOM     11  N   UNL     1     -10.631  16.049  67.555  0.00  0.00    -0.218 NA
ENDBRANCH   8  11
ENDBRANCH   7   8
ENDBRANCH   1   7
TORSDOF 3
ENDMDL
MODEL 6
REMARK VINA RESULT:      -3.9      1.404      1.914
REMARK  Name = 
REMARK  3 active torsions:
REMARK  status: ('A' for Active; 'I' for Inactive)
REMARK    1  A    between atoms: N_2  and  C_3
REMARK    2  A    between atoms: C_3  and  C_5
REMARK    3  A    between atoms: C_5  and  C_6
REMARK                            x       y       z     vdW  Elec       q    Type
REMARK                         _______ _______ _______ _____ _____    ______ ____
ROOT
ATOM      1  C   UNL     1     -11.469  14.438  68.623  0.00  0.00    +0.001 C 
ATOM      2  C   UNL     1     -11.980  13.529  69.700  0.00  0.00    +0.000 C 
ATOM      3  C   UNL     1     -12.800  14.334  70.667  0.00  0.00    +0.000 C 
ATOM      4  C   UNL     1     -11.952  15.356  71.370  0.00  0.00    +0.000 C 
ATOM      5  C   UNL     1     -11.151  16.112  70.348  0.00  0.00    +0.000 C 
ATOM      6  C   UNL     1     -11.749  15.876  68.973  0.00  0.00    +0.000 C 
ENDROOT
BRANCH   1   7
ATOM      7  C   UNL     1     -11.979  14.050  67.264  0.00  0.00    +0.017 C 
BRANCH   7   8
ATOM      8  C   UNL     1     -11.501  12.478  67.207  0.00  0.00    +0.073 C 
ATOM      9  C   UNL     1     -10.063  12.879  66.522  0.00  0.00    +0.019 C 
BRANCH   8  11
ATOM     10  C   UNL     1     -12.576  13.515  65.358  0.00  0.00    +0.107 C 
ATOM     11  N   UNL     1     -12.181  12.259  65.804  0.00  0.00    -0.218 NA
ENDBRANCH   8  11
ENDBRANCH   7   8
ENDBRANCH   1   7
TORSDOF 3
ENDMDL
MODEL 7
REMARK VINA RESULT:      -3.8      4.967      6.191
REMARK  Name = 
REMARK  3 active torsions:
REMARK  status: ('A' for Active; 'I' for Inactive)
REMARK    1  A    between atoms: N_2  and  C_3
REMARK    2  A    between atoms: C_3  and  C_5
REMARK    3  A    between atoms: C_5  and  C_6
REMARK                            x       y       z     vdW  Elec       q    Type
REMARK                         _______ _______ _______ _____ _____    ______ ____
ROOT
ATOM      1  C   UNL     1     -10.204  12.041  66.118  0.00  0.00    +0.001 C 
ATOM      2  C   UNL     1      -9.332  11.128  65.310  0.00  0.00    +0.000 C 
ATOM      3  C   UNL     1      -9.911   9.743  65.347  0.00  0.00    +0.000 C 
ATOM      4  C   UNL     1      -9.891   9.189  66.744  0.00  0.00    +0.000 C 
ATOM      5  C   UNL     1     -10.476  10.207  67.681  0.00  0.00    +0.000 C 
ATOM      6  C   UNL     1     -11.235  11.246  66.877  0.00  0.00    +0.000 C 
ENDROOT
BRANCH   1   7
ATOM      7  C   UNL     1     -10.800  13.141  65.285  0.00  0.00    +0.017 C 
BRANCH   7   8
ATOM      8  C   UNL     1     -12.320  12.554  65.067  0.00  0.00    +0.073 C 
ATOM      9  C   UNL     1     -12.166  12.600  63.432  0.00  0.00    +0.019 C 
BRANCH   8  11
ATOM     10  C   UNL     1     -12.012  14.851  64.540  0.00  0.00    +0.107 C 
ATOM     11  N   UNL     1     -12.948  13.997  65.112  0.00  0.00    -0.218 NA
ENDBRANCH   8  11
ENDBRANCH   7   8
ENDBRANCH   1   7
TORSDOF 3
ENDMDL
MODEL 8
REMARK VINA RESULT:      -3.8      2.974      3.984
REMARK  Name = 
REMARK  3 active torsions:
REMARK  status: ('A' for Active; 'I' for Inactive)
REMARK    1  A    between atoms: N_2  and  C_3
REMARK    2  A    between atoms: C_3  and  C_5
REMARK    3  A    between atoms: C_5  and  C_6
REMARK                            x       y       z     vdW  Elec       q    Type
REMARK                         _______ _______ _______ _____ _____    ______ ____
ROOT
ATOM      1  C   UNL     1     -11.006  14.700  66.777  0.00  0.00    +0.001 C 
ATOM      2  C   UNL     1     -11.645  14.511  68.120  0.00  0.00    +0.000 C 
ATOM      3  C   UNL     1     -11.712  15.838  68.820  0.00  0.00    +0.000 C 
ATOM      4  C   UNL     1     -10.334  16.369  69.099  0.00  0.00    +0.000 C 
ATOM      5  C   UNL     1      -9.516  16.291  67.841  0.00  0.00    +0.000 C 
ATOM      6  C   UNL     1     -10.444  16.093  66.656  0.00  0.00    +0.000 C 
ENDROOT
BRANCH   1   7
ATOM      7  C   UNL     1     -11.933  14.336  65.652  0.00  0.00    +0.017 C 
BRANCH   7   8
ATOM      8  C   UNL     1     -12.029  12.709  65.865  0.00  0.00    +0.073 C 
ATOM      9  C   UNL     1     -10.710  12.449  64.919  0.00  0.00    +0.019 C 
BRANCH   8  11
ATOM     10  C   UNL     1     -12.230  12.205  63.550  0.00  0.00    +0.107 C 
ATOM     11  N   UNL     1     -13.013  12.548  64.646  0.00  0.00    -0.218 NA
ENDBRANCH   8  11
ENDBRANCH   7   8
ENDBRANCH   1   7
TORSDOF 3
ENDMDL
MODEL 9
REMARK VINA RESULT:      -3.8      4.143      6.075
REMARK  Name = 
REMARK  3 active torsions:
REMARK  status: ('A' for Active; 'I' for Inactive)
REMARK    1  A    between atoms: N_2  and  C_3
REMARK    2  A    between atoms: C_3  and  C_5
REMARK    3  A    between atoms: C_5  and  C_6
REMARK                            x       y       z     vdW  Elec       q    Type
REMARK                         _______ _______ _______ _____ _____    ______ ____
ROOT
ATOM      1  C   UNL     1     -10.881  14.696  66.705  0.00  0.00    +0.001 C 
ATOM      2  C   UNL     1     -10.868  15.219  65.301  0.00  0.00    +0.000 C 
ATOM      3  C   UNL     1     -12.098  14.735  64.589  0.00  0.00    +0.000 C 
ATOM      4  C   UNL     1     -12.092  13.238  64.461  0.00  0.00    +0.000 C 
ATOM      5  C   UNL     1     -11.788  12.635  65.804  0.00  0.00    +0.000 C 
ATOM      6  C   UNL     1     -11.987  13.688  66.879  0.00  0.00    +0.000 C 
ENDROOT
BRANCH   1   7
ATOM      7  C   UNL     1     -10.922  15.801  67.722  0.00  0.00    +0.017 C 
BRANCH   7   8
ATOM      8  C   UNL     1     -10.154  16.994  66.892  0.00  0.00    +0.073 C 
ATOM      9  C   UNL     1      -8.843  16.917  67.881  0.00  0.00    +0.019 C 
BRANCH   8  11
ATOM     10  C   UNL     1     -10.653  19.310  67.075  0.00  0.00    +0.107 C 
ATOM     11  N   UNL     1     -10.827  18.117  67.766  0.00  0.00    -0.218 NA
ENDBRANCH   8  11
ENDBRANCH   7   8
ENDBRANCH   1   7
TORSDOF 3
ENDMDL
