MODEL 1
REMARK VINA RESULT:      -7.3      0.000      0.000
REMARK  Name = 
REMARK  2 active torsions:
REMARK  status: ('A' for Active; 'I' for Inactive)
REMARK    1  A    between atoms: N_2  and  C_3
REMARK    2  A    between atoms: C_3  and  C_4
REMARK                            x       y       z     vdW  Elec       q    Type
REMARK                         _______ _______ _______ _____ _____    ______ ____
ROOT
ATOM      1  C   UNL     1     -10.833  13.127  64.277  0.00  0.00    +0.170 C 
ATOM      2  N   UNL     1     -11.068  12.692  64.665  0.00  0.00    +0.299 N 
ATOM      3  C   UNL     1     -10.001  12.264  65.747  0.00  0.00    +0.092 C 
ATOM      4  C   UNL     1     -10.005  13.739  66.452  0.00  0.00    +0.178 C 
ATOM      5  C   UNL     1     -11.225  13.965  67.156  0.00  0.00    +0.102 C 
ATOM      6  C   UNL     1     -11.096  15.391  67.943  0.00  0.00    +0.229 C 
ATOM      7  O   UNL     1     -12.124  14.984  69.024  0.00  0.00    -0.468 OA
ATOM      8  C   UNL     1     -11.730  13.702  69.426  0.00  0.00    +0.173 A 
ATOM      9  C   UNL     1     -12.243  12.801  70.357  0.00  0.00    +0.229 A 
ATOM     10  C   UNL     1     -11.961  11.444  70.209  0.00  0.00    +0.045 A 
ATOM     11  C   UNL     1     -11.245  10.973  69.106  0.00  0.00    -0.001 A 
ATOM     12  C   UNL     1     -10.821  11.839  68.099  0.00  0.00    -0.017 A 
ATOM     13  O   UNL     1     -13.001  13.315  71.386  0.00  0.00    -0.283 OA
ATOM     14  C   UNL     1      -9.843  14.916  68.863  0.00  0.00    +0.191 C 
ATOM     15  O   UNL     1      -9.787  15.588  69.893  0.00  0.00    -0.292 OA
ATOM     16  C   UNL     1      -8.548  14.840  68.110  0.00  0.00    +0.071 C 
ATOM     17  C   UNL     1     -11.228  13.125  68.321  0.00  0.00    +0.017 A 
ATOM     18  C   UNL     1     -12.408  13.999  66.295  0.00  0.00    +0.072 C 
ATOM     19  C   UNL     1      -8.715  13.656  67.202  0.00  0.00    +0.044 C 
ATOM     20  O   UNL     1      -9.827  14.656  65.418  0.00  0.00    -0.219 OA
ATOM     21  C   UNL     1     -11.106  11.481  66.671  0.00  0.00    +0.084 C 
ATOM     22  C   UNL     1     -12.315  12.924  65.280  0.00  0.00    +0.109 C 
ENDROOT
BRANCH   2  23
ATOM     23  C   UNL     1     -11.152  11.421  63.939  0.00  0.00    +0.108 C 
BRANCH  23  24
ATOM     24  C   UNL     1      -9.731  11.102  63.529  0.00  0.00    +0.055 C 
ATOM     25  C   UNL     1      -9.417  10.429  62.260  0.00  0.00    +0.006 C 
ATOM     26  C   UNL     1      -9.174   9.744  63.634  0.00  0.00    +0.006 C 
ENDBRANCH  23  24
ENDBRANCH   2  23
TORSDOF 2
ENDMDL
MODEL 2
REMARK VINA RESULT:      -7.2      2.635      5.228
REMARK  Name = 
REMARK  2 active torsions:
REMARK  status: ('A' for Active; 'I' for Inactive)
REMARK    1  A    between atoms: N_2  and  C_3
REMARK    2  A    between atoms: C_3  and  C_4
REMARK                            x       y       z     vdW  Elec       q    Type
REMARK                         _______ _______ _______ _____ _____    ______ ____
ROOT
ATOM      1  C   UNL     1      -8.454  16.765  67.332  0.00  0.00    +0.170 C 
ATOM      2  N   UNL     1      -8.778  16.767  67.872  0.00  0.00    +0.299 N 
ATOM      3  C   UNL     1     -10.332  16.698  67.597  0.00  0.00    +0.092 C 
ATOM      4  C   UNL     1     -10.237  15.187  66.980  0.00  0.00    +0.178 C 
ATOM      5  C   UNL     1      -9.965  14.233  68.006  0.00  0.00    +0.102 C 
ATOM      6  C   UNL     1     -10.024  12.743  67.337  0.00  0.00    +0.229 C 
ATOM      7  O   UNL     1     -10.389  12.064  68.676  0.00  0.00    -0.468 OA
ATOM      8  C   UNL     1     -11.421  12.848  69.205  0.00  0.00    +0.173 A 
ATOM      9  C   UNL     1     -12.169  12.766  70.378  0.00  0.00    +0.229 A 
ATOM     10  C   UNL     1     -12.773  13.919  70.875  0.00  0.00    +0.045 A 
ATOM     11  C   UNL     1     -12.573  15.159  70.262  0.00  0.00    -0.001 A 
ATOM     12  C   UNL     1     -11.735  15.289  69.155  0.00  0.00    -0.017 A 
ATOM     13  O   UNL     1     -12.273  11.530  70.978  0.00  0.00    -0.283 OA
ATOM     14  C   UNL     1     -11.585  12.863  66.898  0.00  0.00    +0.191 C 
ATOM     15  O   UNL     1     -12.084  11.744  66.777  0.00  0.00    -0.292 OA
ATOM     16  C   UNL     1     -11.802  13.761  65.716  0.00  0.00    +0.071 C 
ATOM     17  C   UNL     1     -11.143  14.104  68.817  0.00  0.00    +0.017 A 
ATOM     18  C   UNL     1      -8.665  14.414  68.654  0.00  0.00    +0.072 C 
ATOM     19  C   UNL     1     -11.536  15.141  66.244  0.00  0.00    +0.044 C 
ATOM     20  O   UNL     1      -9.220  15.227  66.028  0.00  0.00    -0.219 OA
ATOM     21  C   UNL     1     -10.693  16.366  69.162  0.00  0.00    +0.084 C 
ATOM     22  C   UNL     1      -8.425  15.857  68.888  0.00  0.00    +0.109 C 
ENDROOT
BRANCH   2  23
ATOM     23  C   UNL     1      -8.725  18.119  68.436  0.00  0.00    +0.108 C 
BRANCH  23  24
ATOM     24  C   UNL     1      -8.832  19.052  67.250  0.00  0.00    +0.055 C 
ATOM     25  C   UNL     1      -8.088  20.318  67.183  0.00  0.00    +0.006 C 
ATOM     26  C   UNL     1      -9.639  20.281  67.293  0.00  0.00    +0.006 C 
ENDBRANCH  23  24
ENDBRANCH   2  23
TORSDOF 2
ENDMDL
MODEL 3
REMARK VINA RESULT:      -7.0      4.485      6.678
REMARK  Name = 
REMARK  2 active torsions:
REMARK  status: ('A' for Active; 'I' for Inactive)
REMARK    1  A    between atoms: N_2  and  C_3
REMARK    2  A    between atoms: C_3  and  C_4
REMARK                            x       y       z     vdW  Elec       q    Type
REMARK                         _______ _______ _______ _____ _____    ______ ____
ROOT
ATOM      1  C   UNL     1      -9.945  17.957  66.527  0.00  0.00    +0.170 C 
ATOM      2  N   UNL     1      -9.736  17.602  67.002  0.00  0.00    +0.299 N 
ATOM      3  C   UNL     1      -8.292  17.041  66.692  0.00  0.00    +0.092 C 
ATOM      4  C   UNL     1      -7.617  18.530  66.735  0.00  0.00    +0.178 C 
ATOM      5  C   UNL     1      -7.576  19.033  68.070  0.00  0.00    +0.102 C 
ATOM      6  C   UNL     1      -6.767  20.452  68.049  0.00  0.00    +0.229 C 
ATOM      7  O   UNL     1      -6.330  20.322  69.526  0.00  0.00    -0.468 OA
ATOM      8  C   UNL     1      -5.841  19.015  69.639  0.00  0.00    +0.173 A 
ATOM      9  C   UNL     1      -5.307  18.292  70.704  0.00  0.00    +0.229 A 
ATOM     10  C   UNL     1      -5.356  16.899  70.665  0.00  0.00    +0.045 A 
ATOM     11  C   UNL     1      -5.999  16.229  69.620  0.00  0.00    -0.001 A 
ATOM     12  C   UNL     1      -6.643  16.931  68.602  0.00  0.00    -0.017 A 
ATOM     13  O   UNL     1      -4.749  19.007  71.741  0.00  0.00    -0.283 OA
ATOM     14  C   UNL     1      -5.379  19.799  67.513  0.00  0.00    +0.191 C 
ATOM     15  O   UNL     1      -4.422  20.510  67.821  0.00  0.00    -0.292 OA
ATOM     16  C   UNL     1      -5.420  19.424  66.061  0.00  0.00    +0.071 C 
ATOM     17  C   UNL     1      -6.591  18.284  68.799  0.00  0.00    +0.017 A 
ATOM     18  C   UNL     1      -8.898  19.245  68.664  0.00  0.00    +0.072 C 
ATOM     19  C   UNL     1      -6.344  18.243  66.008  0.00  0.00    +0.044 C 
ATOM     20  O   UNL     1      -8.400  19.328  65.905  0.00  0.00    -0.219 OA
ATOM     21  C   UNL     1      -8.045  16.548  68.237  0.00  0.00    +0.084 C 
ATOM     22  C   UNL     1      -9.785  18.111  68.315  0.00  0.00    +0.109 C 
ENDROOT
BRANCH   2  23
ATOM     23  C   UNL     1     -10.463  16.329  66.982  0.00  0.00    +0.108 C 
BRANCH  23  24
ATOM     24  C   UNL     1     -10.301  15.799  65.575  0.00  0.00    +0.055 C 
ATOM     25  C   UNL     1     -11.413  15.178  64.841  0.00  0.00    +0.006 C 
ATOM     26  C   UNL     1     -10.170  14.361  65.293  0.00  0.00    +0.006 C 
ENDBRANCH  23  24
ENDBRANCH   2  23
TORSDOF 2
ENDMDL
MODEL 4
REMARK VINA RESULT:      -6.9      4.523      7.166
REMARK  Name = 
REMARK  2 active torsions:
REMARK  status: ('A' for Active; 'I' for Inactive)
REMARK    1  A    between atoms: N_2  and  C_3
REMARK    2  A    between atoms: C_3  and  C_4
REMARK                            x       y       z     vdW  Elec       q    Type
REMARK                         _______ _______ _______ _____ _____    ______ ____
ROOT
ATOM      1  C   UNL     1     -10.346  16.730  67.300  0.00  0.00    +0.170 C 
ATOM      2  N   UNL     1     -10.010  16.701  67.831  0.00  0.00    +0.299 N 
ATOM      3  C   UNL     1      -8.500  16.356  67.523  0.00  0.00    +0.092 C 
ATOM      4  C   UNL     1      -8.248  17.774  66.750  0.00  0.00    +0.178 C 
ATOM      5  C   UNL     1      -8.234  18.863  67.673  0.00  0.00    +0.102 C 
ATOM      6  C   UNL     1      -7.841  20.217  66.849  0.00  0.00    +0.229 C 
ATOM      7  O   UNL     1      -7.262  20.914  68.102  0.00  0.00    -0.468 OA
ATOM      8  C   UNL     1      -6.433  19.954  68.692  0.00  0.00    +0.173 A 
ATOM      9  C   UNL     1      -5.637  19.964  69.837  0.00  0.00    +0.229 A 
ATOM     10  C   UNL     1      -5.313  18.752  70.443  0.00  0.00    +0.045 A 
ATOM     11  C   UNL     1      -5.836  17.546  69.970  0.00  0.00    -0.001 A 
ATOM     12  C   UNL     1      -6.728  17.519  68.898  0.00  0.00    -0.017 A 
ATOM     13  O   UNL     1      -5.208  21.188  70.300  0.00  0.00    -0.283 OA
ATOM     14  C   UNL     1      -6.377  19.671  66.398  0.00  0.00    +0.191 C 
ATOM     15  O   UNL     1      -5.625  20.614  66.150  0.00  0.00    -0.292 OA
ATOM     16  C   UNL     1      -6.438  18.635  65.315  0.00  0.00    +0.071 C 
ATOM     17  C   UNL     1      -7.026  18.775  68.446  0.00  0.00    +0.017 A 
ATOM     18  C   UNL     1      -9.509  19.074  68.360  0.00  0.00    +0.072 C 
ATOM     19  C   UNL     1      -7.010  17.424  65.991  0.00  0.00    +0.044 C 
ATOM     20  O   UNL     1      -9.284  17.894  65.826  0.00  0.00    -0.219 OA
ATOM     21  C   UNL     1      -8.001  16.740  69.038  0.00  0.00    +0.084 C 
ATOM     22  C   UNL     1     -10.085  17.766  68.750  0.00  0.00    +0.109 C 
ENDROOT
BRANCH   2  23
ATOM     23  C   UNL     1     -10.367  15.467  68.537  0.00  0.00    +0.108 C 
BRANCH  23  24
ATOM     24  C   UNL     1     -11.396  15.879  69.566  0.00  0.00    +0.055 C 
ATOM     25  C   UNL     1     -11.313  15.449  70.969  0.00  0.00    +0.006 C 
ATOM     26  C   UNL     1     -12.450  14.963  70.028  0.00  0.00    +0.006 C 
ENDBRANCH  23  24
ENDBRANCH   2  23
TORSDOF 2
ENDMDL
MODEL 5
REMARK VINA RESULT:      -6.9      2.324      4.176
REMARK  Name = 
REMARK  2 active torsions:
REMARK  status: ('A' for Active; 'I' for Inactive)
REMARK    1  A    between atoms: N_2  and  C_3
REMARK    2  A    between atoms: C_3  and  C_4
REMARK                            x       y       z     vdW  Elec       q    Type
REMARK                         _______ _______ _______ _____ _____    ______ ____
ROOT
ATOM      1  C   UNL     1      -9.207   9.928  67.520  0.00  0.00    +0.170 C 
ATOM      2  N   UNL     1      -9.457  10.092  66.966  0.00  0.00    +0.299 N 
ATOM      3  C   UNL     1     -10.951  10.572  67.142  0.00  0.00    +0.092 C 
ATOM      4  C   UNL     1     -10.512  11.893  68.000  0.00  0.00    +0.178 C 
ATOM      5  C   UNL     1      -9.875  12.856  67.162  0.00  0.00    +0.102 C 
ATOM      6  C   UNL     1      -9.594  14.194  68.056  0.00  0.00    +0.229 C 
ATOM      7  O   UNL     1      -9.607  15.125  66.822  0.00  0.00    -0.468 OA
ATOM      8  C   UNL     1     -10.749  14.752  66.105  0.00  0.00    +0.173 A 
ATOM      9  C   UNL     1     -11.310  15.205  64.913  0.00  0.00    +0.229 A 
ATOM     10  C   UNL     1     -12.151  14.354  64.196  0.00  0.00    +0.045 A 
ATOM     11  C   UNL     1     -12.371  13.039  64.614  0.00  0.00    -0.001 A 
ATOM     12  C   UNL     1     -11.729  12.523  65.739  0.00  0.00    -0.017 A 
ATOM     13  O   UNL     1     -11.002  16.487  64.513  0.00  0.00    -0.283 OA
ATOM     14  C   UNL     1     -11.166  14.474  68.363  0.00  0.00    +0.191 C 
ATOM     15  O   UNL     1     -11.347  15.663  68.628  0.00  0.00    -0.292 OA
ATOM     16  C   UNL     1     -11.753  13.527  69.367  0.00  0.00    +0.071 C 
ATOM     17  C   UNL     1     -10.874  13.429  66.303  0.00  0.00    +0.017 A 
ATOM     18  C   UNL     1      -8.613  12.395  66.582  0.00  0.00    +0.072 C 
ATOM     19  C   UNL     1     -11.821  12.214  68.644  0.00  0.00    +0.044 C 
ATOM     20  O   UNL     1      -9.658  11.432  68.999  0.00  0.00    -0.219 OA
ATOM     21  C   UNL     1     -11.031  11.202  65.630  0.00  0.00    +0.084 C 
ATOM     22  C   UNL     1      -8.756  10.990  66.136  0.00  0.00    +0.109 C 
ENDROOT
BRANCH   2  23
ATOM     23  C   UNL     1      -9.718   8.872  66.196  0.00  0.00    +0.108 C 
BRANCH  23  24
ATOM     24  C   UNL     1     -10.014   7.806  67.227  0.00  0.00    +0.055 C 
ATOM     25  C   UNL     1      -9.504   6.433  67.099  0.00  0.00    +0.006 C 
ATOM     26  C   UNL     1     -11.021   6.758  66.999  0.00  0.00    +0.006 C 
ENDBRANCH  23  24
ENDBRANCH   2  23
TORSDOF 2
ENDMDL
MODEL 6
REMARK VINA RESULT:      -6.9      2.620      5.618
REMARK  Name = 
REMARK  2 active torsions:
REMARK  status: ('A' for Active; 'I' for Inactive)
REMARK    1  A    between atoms: N_2  and  C_3
REMARK    2  A    between atoms: C_3  and  C_4
REMARK                            x       y       z     vdW  Elec       q    Type
REMARK                         _______ _______ _______ _____ _____    ______ ____
ROOT
ATOM      1  C   UNL     1      -9.598  16.588  69.288  0.00  0.00    +0.170 C 
ATOM      2  N   UNL     1      -9.925  16.705  68.763  0.00  0.00    +0.299 N 
ATOM      3  C   UNL     1      -9.157  16.179  67.488  0.00  0.00    +0.092 C 
ATOM      4  C   UNL     1      -9.315  14.615  67.938  0.00  0.00    +0.178 C 
ATOM      5  C   UNL     1     -10.668  14.180  67.803  0.00  0.00    +0.102 C 
ATOM      6  C   UNL     1     -10.718  12.581  68.135  0.00  0.00    +0.229 C 
ATOM      7  O   UNL     1     -11.981  12.355  67.273  0.00  0.00    -0.468 OA
ATOM      8  C   UNL     1     -11.711  13.009  66.066  0.00  0.00    +0.173 A 
ATOM      9  C   UNL     1     -12.444  13.175  64.893  0.00  0.00    +0.229 A 
ATOM     10  C   UNL     1     -12.150  14.253  64.060  0.00  0.00    +0.045 A 
ATOM     11  C   UNL     1     -11.193  15.204  64.422  0.00  0.00    -0.001 A 
ATOM     12  C   UNL     1     -10.527  15.127  65.645  0.00  0.00    -0.017 A 
ATOM     13  O   UNL     1     -13.424  12.246  64.621  0.00  0.00    -0.283 OA
ATOM     14  C   UNL     1      -9.731  12.165  66.912  0.00  0.00    +0.191 C 
ATOM     15  O   UNL     1      -9.919  10.993  66.588  0.00  0.00    -0.292 OA
ATOM     16  C   UNL     1      -8.293  12.507  67.167  0.00  0.00    +0.071 C 
ATOM     17  C   UNL     1     -10.963  14.074  66.401  0.00  0.00    +0.017 A 
ATOM     18  C   UNL     1     -11.606  14.880  68.681  0.00  0.00    +0.072 C 
ATOM     19  C   UNL     1      -8.248  14.006  67.090  0.00  0.00    +0.044 C 
ATOM     20  O   UNL     1      -8.882  14.553  69.261  0.00  0.00    -0.219 OA
ATOM     21  C   UNL     1     -10.462  16.349  66.510  0.00  0.00    +0.084 C 
ATOM     22  C   UNL     1     -11.281  16.325  68.703  0.00  0.00    +0.109 C 
ENDROOT
BRANCH   2  23
ATOM     23  C   UNL     1      -9.844  18.141  68.479  0.00  0.00    +0.108 C 
BRANCH  23  24
ATOM     24  C   UNL     1      -8.370  18.429  68.296  0.00  0.00    +0.055 C 
ATOM     25  C   UNL     1      -7.699  19.537  68.991  0.00  0.00    +0.006 C 
ATOM     26  C   UNL     1      -7.889  19.530  67.448  0.00  0.00    +0.006 C 
ENDBRANCH  23  24
ENDBRANCH   2  23
TORSDOF 2
ENDMDL
MODEL 7
REMARK VINA RESULT:      -6.8      2.396      5.035
REMARK  Name = 
REMARK  2 active torsions:
REMARK  status: ('A' for Active; 'I' for Inactive)
REMARK    1  A    between atoms: N_2  and  C_3
REMARK    2  A    between atoms: C_3  and  C_4
REMARK                            x       y       z     vdW  Elec       q    Type
REMARK                         _______ _______ _______ _____ _____    ______ ____
ROOT
ATOM      1  C   UNL     1     -10.088  15.965  66.498  0.00  0.00    +0.170 C 
ATOM      2  N   UNL     1     -10.241  15.735  67.063  0.00  0.00    +0.299 N 
ATOM      3  C   UNL     1     -11.497  14.783  66.963  0.00  0.00    +0.092 C 
ATOM      4  C   UNL     1     -10.685  13.671  66.080  0.00  0.00    +0.178 C 
ATOM      5  C   UNL     1      -9.723  12.987  66.882  0.00  0.00    +0.102 C 
ATOM      6  C   UNL     1      -9.057  11.806  65.970  0.00  0.00    +0.229 C 
ATOM      7  O   UNL     1      -8.697  10.943  67.201  0.00  0.00    -0.468 OA
ATOM      8  C   UNL     1      -9.862  10.924  67.976  0.00  0.00    +0.173 A 
ATOM      9  C   UNL     1     -10.180  10.328  69.195  0.00  0.00    +0.229 A 
ATOM     10  C   UNL     1     -11.219  10.860  69.956  0.00  0.00    +0.045 A 
ATOM     11  C   UNL     1     -11.885  12.021  69.554  0.00  0.00    -0.001 A 
ATOM     12  C   UNL     1     -11.509  12.704  68.398  0.00  0.00    -0.017 A 
ATOM     13  O   UNL     1      -9.443   9.227  69.575  0.00  0.00    -0.283 OA
ATOM     14  C   UNL     1     -10.458  11.014  65.744  0.00  0.00    +0.191 C 
ATOM     15  O   UNL     1     -10.246   9.829  65.485  0.00  0.00    -0.292 OA
ATOM     16  C   UNL     1     -11.376  11.697  64.774  0.00  0.00    +0.071 C 
ATOM     17  C   UNL     1     -10.430  12.127  67.789  0.00  0.00    +0.017 A 
ATOM     18  C   UNL     1      -8.659  13.851  67.397  0.00  0.00    +0.072 C 
ATOM     19  C   UNL     1     -11.843  12.923  65.503  0.00  0.00    +0.044 C 
ATOM     20  O   UNL     1     -10.085  14.376  65.039  0.00  0.00    -0.219 OA
ATOM     21  C   UNL     1     -11.287  14.185  68.475  0.00  0.00    +0.084 C 
ATOM     22  C   UNL     1      -9.240  15.135  67.853  0.00  0.00    +0.109 C 
ENDROOT
BRANCH   2  23
ATOM     23  C   UNL     1     -10.855  16.810  67.848  0.00  0.00    +0.108 C 
BRANCH  23  24
ATOM     24  C   UNL     1      -9.992  18.027  67.602  0.00  0.00    +0.055 C 
ATOM     25  C   UNL     1      -9.695  19.002  68.662  0.00  0.00    +0.006 C 
ATOM     26  C   UNL     1     -10.568  19.370  67.429  0.00  0.00    +0.006 C 
ENDBRANCH  23  24
ENDBRANCH   2  23
TORSDOF 2
ENDMDL
MODEL 8
REMARK VINA RESULT:      -6.7      3.422      6.327
REMARK  Name = 
REMARK  2 active torsions:
REMARK  status: ('A' for Active; 'I' for Inactive)
REMARK    1  A    between atoms: N_2  and  C_3
REMARK    2  A    between atoms: C_3  and  C_4
REMARK                            x       y       z     vdW  Elec       q    Type
REMARK                         _______ _______ _______ _____ _____    ______ ____
ROOT
ATOM      1  C   UNL     1     -11.385  14.170  69.166  0.00  0.00    +0.170 C 
ATOM      2  N   UNL     1     -11.481  14.791  69.147  0.00  0.00    +0.299 N 
ATOM      3  C   UNL     1     -10.311  15.565  69.872  0.00  0.00    +0.092 C 
ATOM      4  C   UNL     1      -9.208  15.110  68.754  0.00  0.00    +0.178 C 
ATOM      5  C   UNL     1      -9.430  15.783  67.516  0.00  0.00    +0.102 C 
ATOM      6  C   UNL     1      -8.213  15.385  66.501  0.00  0.00    +0.229 C 
ATOM      7  O   UNL     1      -8.355  16.688  65.682  0.00  0.00    -0.468 OA
ATOM      8  C   UNL     1      -8.423  17.705  66.641  0.00  0.00    +0.173 A 
ATOM      9  C   UNL     1      -8.557  19.089  66.546  0.00  0.00    +0.229 A 
ATOM     10  C   UNL     1      -9.077  19.793  67.631  0.00  0.00    +0.045 A 
ATOM     11  C   UNL     1      -9.537  19.125  68.769  0.00  0.00    -0.001 A 
ATOM     12  C   UNL     1      -9.524  17.733  68.843  0.00  0.00    -0.017 A 
ATOM     13  O   UNL     1      -8.152  19.687  65.373  0.00  0.00    -0.283 OA
ATOM     14  C   UNL     1      -7.050  16.025  67.439  0.00  0.00    +0.191 C 
ATOM     15  O   UNL     1      -6.060  16.308  66.764  0.00  0.00    -0.292 OA
ATOM     16  C   UNL     1      -6.746  15.200  68.655  0.00  0.00    +0.071 C 
ATOM     17  C   UNL     1      -9.066  17.162  67.688  0.00  0.00    +0.017 A 
ATOM     18  C   UNL     1     -10.708  15.453  66.883  0.00  0.00    +0.072 C 
ATOM     19  C   UNL     1      -7.955  15.364  69.528  0.00  0.00    +0.044 C 
ATOM     20  O   UNL     1      -9.344  13.729  68.625  0.00  0.00    -0.219 OA
ATOM     21  C   UNL     1     -10.770  17.021  69.274  0.00  0.00    +0.084 C 
ATOM     22  C   UNL     1     -11.772  15.403  67.911  0.00  0.00    +0.109 C 
ENDROOT
BRANCH   2  23
ATOM     23  C   UNL     1     -12.561  15.121  70.082  0.00  0.00    +0.108 C 
BRANCH  23  24
ATOM     24  C   UNL     1     -12.192  14.433  71.377  0.00  0.00    +0.055 C 
ATOM     25  C   UNL     1     -13.205  13.847  72.267  0.00  0.00    +0.006 C 
ATOM     26  C   UNL     1     -12.363  15.086  72.684  0.00  0.00    +0.006 C 
ENDBRANCH  23  24
ENDBRANCH   2  23
TORSDOF 2
ENDMDL
MODEL 9
REMARK VINA RESULT:      -6.6      3.637      6.037
REMARK  Name = 
REMARK  2 active torsions:
REMARK  status: ('A' for Active; 'I' for Inactive)
REMARK    1  A    between atoms: N_2  and  C_3
REMARK    2  A    between atoms: C_3  and  C_4
REMARK                            x       y       z     vdW  Elec       q    Type
REMARK                         _______ _______ _______ _____ _____    ______ ____
ROOT
ATOM      1  C   UNL     1     -10.574  15.074  67.801  0.00  0.00    +0.170 C 
ATOM      2  N   UNL     1      -9.976  15.094  67.606  0.00  0.00    +0.299 N 
ATOM      3  C   UNL     1      -9.823  16.034  66.347  0.00  0.00    +0.092 C 
ATOM      4  C   UNL     1     -10.204  17.375  67.200  0.00  0.00    +0.178 C 
ATOM      5  C   UNL     1      -9.150  17.726  68.096  0.00  0.00    +0.102 C 
ATOM      6  C   UNL     1      -9.543  19.144  68.806  0.00  0.00    +0.229 C 
ATOM      7  O   UNL     1      -8.067  19.519  69.069  0.00  0.00    -0.468 OA
ATOM      8  C   UNL     1      -7.416  19.278  67.854  0.00  0.00    +0.173 A 
ATOM      9  C   UNL     1      -6.091  19.414  67.445  0.00  0.00    +0.229 A 
ATOM     10  C   UNL     1      -5.637  18.660  66.364  0.00  0.00    +0.045 A 
ATOM     11  C   UNL     1      -6.463  17.720  65.744  0.00  0.00    -0.001 A 
ATOM     12  C   UNL     1      -7.756  17.480  66.207  0.00  0.00    -0.017 A 
ATOM     13  O   UNL     1      -5.301  20.305  68.139  0.00  0.00    -0.283 OA
ATOM     14  C   UNL     1      -9.575  19.980  67.411  0.00  0.00    +0.191 C 
ATOM     15  O   UNL     1      -9.388  21.178  67.624  0.00  0.00    -0.292 OA
ATOM     16  C   UNL     1     -10.783  19.688  66.571  0.00  0.00    +0.071 C 
ATOM     17  C   UNL     1      -8.050  18.222  67.317  0.00  0.00    +0.017 A 
ATOM     18  C   UNL     1      -8.897  16.726  69.135  0.00  0.00    +0.072 C 
ATOM     19  C   UNL     1     -10.561  18.289  66.074  0.00  0.00    +0.044 C 
ATOM     20  O   UNL     1     -11.382  17.073  67.880  0.00  0.00    -0.219 OA
ATOM     21  C   UNL     1      -8.186  16.064  66.445  0.00  0.00    +0.084 C 
ATOM     22  C   UNL     1      -8.959  15.369  68.542  0.00  0.00    +0.109 C 
ENDROOT
BRANCH   2  23
ATOM     23  C   UNL     1      -9.659  13.818  66.956  0.00  0.00    +0.108 C 
BRANCH  23  24
ATOM     24  C   UNL     1     -10.785  13.581  65.974  0.00  0.00    +0.055 C 
ATOM     25  C   UNL     1     -11.414  12.263  65.811  0.00  0.00    +0.006 C 
ATOM     26  C   UNL     1     -10.565  12.912  64.682  0.00  0.00    +0.006 C 
ENDBRANCH  23  24
ENDBRANCH   2  23
TORSDOF 2
ENDMDL
