MODEL 1
REMARK VINA RESULT:      -6.7      0.000      0.000
REMARK  Name = 
REMARK  5 active torsions:
REMARK  status: ('A' for Active; 'I' for Inactive)
REMARK    1  A    between atoms: N_2  and  C_3
REMARK    2  A    between atoms: N_2  and  C_12
REMARK    3  A    between atoms: C_3  and  C_4
REMARK    4  A    between atoms: C_5  and  C_6
REMARK    5  A    between atoms: C_12  and  C_13
REMARK                            x       y       z     vdW  Elec       q    Type
REMARK                         _______ _______ _______ _____ _____    ______ ____
ROOT
ATOM      1  C   UNL     1     -12.425  13.214  65.759  0.00  0.00    +0.090 C 
ATOM      2  N   UNL     1     -11.486  14.022  66.526  0.00  0.00    -0.264 NA
ENDROOT
BRANCH   2   3
ATOM      3  C   UNL     1     -11.004  13.348  67.703  0.00  0.00    +0.099 C 
BRANCH   3   4
ATOM      4  C   UNL     1     -11.427  14.130  68.881  0.00  0.00    -0.006 A 
ATOM      5  C   UNL     1     -12.015  13.480  69.940  0.00  0.00    -0.003 A 
ATOM      6  C   UNL     1     -12.720  14.257  70.834  0.00  0.00    -0.000 A 
ATOM      7  C   UNL     1     -13.518  13.624  71.777  0.00  0.00    -0.000 A 
ATOM      8  C   UNL     1     -13.377  12.261  72.010  0.00  0.00    -0.000 A 
ATOM      9  C   UNL     1     -12.491  11.510  71.249  0.00  0.00    -0.000 A 
ATOM     10  C   UNL     1     -12.395  15.600  70.917  0.00  0.00    -0.000 A 
ATOM     11  C   UNL     1     -11.287  16.073  70.227  0.00  0.00    -0.000 A 
ATOM     12  C   UNL     1     -12.049  12.104  70.072  0.00  0.00    -0.000 A 
ATOM     13  C   UNL     1     -10.809  15.346  69.144  0.00  0.00    -0.003 A 
ENDBRANCH   3   4
ENDBRANCH   2   3
BRANCH   2  14
ATOM     14  C   UNL     1     -10.410  14.387  65.631  0.00  0.00    +0.099 C 
BRANCH  14  15
ATOM     15  C   UNL     1     -10.231  15.855  65.574  0.00  0.00    -0.009 C 
ATOM     16  C   UNL     1      -9.135  16.412  66.088  0.00  0.00    -0.003 C 
BRANCH  16  17
ATOM     17  C   UNL     1      -9.138  17.790  66.592  0.00  0.00    -0.000 A 
ATOM     18  C   UNL     1      -8.487  18.100  67.769  0.00  0.00    -0.000 A 
ATOM     19  C   UNL     1      -8.998  19.030  68.649  0.00  0.00    -0.000 A 
ATOM     20  C   UNL     1     -10.080  19.819  68.283  0.00  0.00    -0.000 A 
ATOM     21  C   UNL     1     -10.495  19.758  66.959  0.00  0.00    -0.000 A 
ATOM     22  C   UNL     1     -10.090  18.702  66.153  0.00  0.00    -0.000 A 
ENDBRANCH  16  17
ENDBRANCH  14  15
ENDBRANCH   2  14
TORSDOF 5
ENDMDL
MODEL 2
REMARK VINA RESULT:      -6.6      2.068      5.760
REMARK  Name = 
REMARK  5 active torsions:
REMARK  status: ('A' for Active; 'I' for Inactive)
REMARK    1  A    between atoms: N_2  and  C_3
REMARK    2  A    between atoms: N_2  and  C_12
REMARK    3  A    between atoms: C_3  and  C_4
REMARK    4  A    between atoms: C_5  and  C_6
REMARK    5  A    between atoms: C_12  and  C_13
REMARK                            x       y       z     vdW  Elec       q    Type
REMARK                         _______ _______ _______ _____ _____    ______ ____
ROOT
ATOM      1  C   UNL     1      -9.328  14.793  66.662  0.00  0.00    +0.090 C 
ATOM      2  N   UNL     1     -10.676  15.339  66.592  0.00  0.00    -0.264 NA
ENDROOT
BRANCH   2   3
ATOM      3  C   UNL     1     -11.692  14.335  66.768  0.00  0.00    +0.099 C 
BRANCH   3   4
ATOM      4  C   UNL     1     -11.516  13.318  65.712  0.00  0.00    -0.006 A 
ATOM      5  C   UNL     1     -11.185  12.032  66.070  0.00  0.00    -0.003 A 
ATOM      6  C   UNL     1     -10.672  11.223  65.078  0.00  0.00    -0.000 A 
ATOM      7  C   UNL     1     -10.111  10.006  65.441  0.00  0.00    -0.000 A 
ATOM      8  C   UNL     1     -10.328   9.487  66.711  0.00  0.00    -0.000 A 
ATOM      9  C   UNL     1     -11.045  10.216  67.651  0.00  0.00    -0.000 A 
ATOM     10  C   UNL     1     -10.980  11.538  63.766  0.00  0.00    -0.000 A 
ATOM     11  C   UNL     1     -11.902  12.544  63.508  0.00  0.00    -0.000 A 
ATOM     12  C   UNL     1     -11.210  11.567  67.372  0.00  0.00    -0.000 A 
ATOM     13  C   UNL     1     -12.150  13.495  64.489  0.00  0.00    -0.003 A 
ENDBRANCH   3   4
ENDBRANCH   2   3
BRANCH   2  14
ATOM     14  C   UNL     1     -10.766  16.382  67.589  0.00  0.00    +0.099 C 
BRANCH  14  15
ATOM     15  C   UNL     1     -11.592  15.958  68.742  0.00  0.00    -0.009 C 
ATOM     16  C   UNL     1     -11.114  16.072  69.980  0.00  0.00    -0.003 C 
BRANCH  16  17
ATOM     17  C   UNL     1     -11.565  15.188  71.062  0.00  0.00    -0.000 A 
ATOM     18  C   UNL     1     -12.053  13.929  70.773  0.00  0.00    -0.000 A 
ATOM     19  C   UNL     1     -13.097  13.382  71.487  0.00  0.00    -0.000 A 
ATOM     20  C   UNL     1     -13.558  14.003  72.639  0.00  0.00    -0.000 A 
ATOM     21  C   UNL     1     -12.818  15.072  73.127  0.00  0.00    -0.000 A 
ATOM     22  C   UNL     1     -11.892  15.706  72.309  0.00  0.00    -0.000 A 
ENDBRANCH  16  17
ENDBRANCH  14  15
ENDBRANCH   2  14
TORSDOF 5
ENDMDL
MODEL 3
REMARK VINA RESULT:      -6.6      1.716      4.366
REMARK  Name = 
REMARK  5 active torsions:
REMARK  status: ('A' for Active; 'I' for Inactive)
REMARK    1  A    between atoms: N_2  and  C_3
REMARK    2  A    between atoms: N_2  and  C_12
REMARK    3  A    between atoms: C_3  and  C_4
REMARK    4  A    between atoms: C_5  and  C_6
REMARK    5  A    between atoms: C_12  and  C_13
REMARK                            x       y       z     vdW  Elec       q    Type
REMARK                         _______ _______ _______ _____ _____    ______ ____
ROOT
ATOM      1  C   UNL     1     -10.781  17.367  67.941  0.00  0.00    +0.090 C 
ATOM      2  N   UNL     1     -10.539  16.170  68.734  0.00  0.00    -0.264 NA
ENDROOT
BRANCH   2   3
ATOM      3  C   UNL     1     -11.668  15.278  68.754  0.00  0.00    +0.099 C 
BRANCH   3   4
ATOM      4  C   UNL     1     -12.053  15.061  70.162  0.00  0.00    -0.006 A 
ATOM      5  C   UNL     1     -12.289  13.780  70.602  0.00  0.00    -0.003 A 
ATOM      6  C   UNL     1     -12.991  13.647  71.782  0.00  0.00    -0.000 A 
ATOM      7  C   UNL     1     -13.453  12.388  72.139  0.00  0.00    -0.000 A 
ATOM      8  C   UNL     1     -12.968  11.257  71.493  0.00  0.00    -0.000 A 
ATOM      9  C   UNL     1     -12.077  11.384  70.436  0.00  0.00    -0.000 A 
ATOM     10  C   UNL     1     -12.970  14.710  72.668  0.00  0.00    -0.000 A 
ATOM     11  C   UNL     1     -12.132  15.788  72.414  0.00  0.00    -0.000 A 
ATOM     12  C   UNL     1     -11.987  12.648  69.868  0.00  0.00    -0.000 A 
ATOM     13  C   UNL     1     -11.692  16.006  71.115  0.00  0.00    -0.003 A 
ENDBRANCH   3   4
ENDBRANCH   2   3
BRANCH   2  14
ATOM     14  C   UNL     1      -9.355  15.536  68.196  0.00  0.00    +0.099 C 
BRANCH  14  15
ATOM     15  C   UNL     1      -9.676  14.229  67.581  0.00  0.00    -0.009 C 
ATOM     16  C   UNL     1      -9.767  14.122  66.256  0.00  0.00    -0.003 C 
BRANCH  16  17
ATOM     17  C   UNL     1     -10.611  13.101  65.624  0.00  0.00    -0.000 A 
ATOM     18  C   UNL     1     -10.082  12.255  64.670  0.00  0.00    -0.000 A 
ATOM     19  C   UNL     1     -10.821  11.850  63.580  0.00  0.00    -0.000 A 
ATOM     20  C   UNL     1     -12.179  12.127  63.513  0.00  0.00    -0.000 A 
ATOM     21  C   UNL     1     -12.779  12.655  64.649  0.00  0.00    -0.000 A 
ATOM     22  C   UNL     1     -11.996  13.211  65.652  0.00  0.00    -0.000 A 
ENDBRANCH  16  17
ENDBRANCH  14  15
ENDBRANCH   2  14
TORSDOF 5
ENDMDL
MODEL 4
REMARK VINA RESULT:      -6.5      1.620      6.214
REMARK  Name = 
REMARK  5 active torsions:
REMARK  status: ('A' for Active; 'I' for Inactive)
REMARK    1  A    between atoms: N_2  and  C_3
REMARK    2  A    between atoms: N_2  and  C_12
REMARK    3  A    between atoms: C_3  and  C_4
REMARK    4  A    between atoms: C_5  and  C_6
REMARK    5  A    between atoms: C_12  and  C_13
REMARK                            x       y       z     vdW  Elec       q    Type
REMARK                         _______ _______ _______ _____ _____    ______ ____
ROOT
ATOM      1  C   UNL     1     -11.997  15.959  71.172  0.00  0.00    +0.090 C 
ATOM      2  N   UNL     1     -11.466  15.352  69.960  0.00  0.00    -0.264 NA
ENDROOT
BRANCH   2   3
ATOM      3  C   UNL     1     -10.076  15.658  69.747  0.00  0.00    +0.099 C 
BRANCH   3   4
ATOM      4  C   UNL     1      -9.887  15.945  68.311  0.00  0.00    -0.006 A 
ATOM      5  C   UNL     1      -9.971  17.245  67.872  0.00  0.00    -0.003 A 
ATOM      6  C   UNL     1     -10.161  17.434  66.519  0.00  0.00    -0.000 A 
ATOM      7  C   UNL     1     -10.483  18.707  66.067  0.00  0.00    -0.000 A 
ATOM      8  C   UNL     1     -10.322  19.806  66.902  0.00  0.00    -0.000 A 
ATOM      9  C   UNL     1      -9.910  19.632  68.216  0.00  0.00    -0.000 A 
ATOM     10  C   UNL     1      -9.764  16.420  65.665  0.00  0.00    -0.000 A 
ATOM     11  C   UNL     1      -9.060  15.338  66.177  0.00  0.00    -0.000 A 
ATOM     12  C   UNL     1     -10.011  18.339  68.716  0.00  0.00    -0.000 A 
ATOM     13  C   UNL     1      -9.156  15.056  67.534  0.00  0.00    -0.003 A 
ENDBRANCH   3   4
ENDBRANCH   2   3
BRANCH   2  14
ATOM     14  C   UNL     1     -11.699  13.928  70.059  0.00  0.00    +0.099 C 
BRANCH  14  15
ATOM     15  C   UNL     1     -12.212  13.375  68.786  0.00  0.00    -0.009 C 
ATOM     16  C   UNL     1     -11.504  12.460  68.125  0.00  0.00    -0.003 C 
BRANCH  16  17
ATOM     17  C   UNL     1     -11.614  12.308  66.669  0.00  0.00    -0.000 A 
ATOM     18  C   UNL     1     -10.799  11.417  66.000  0.00  0.00    -0.000 A 
ATOM     19  C   UNL     1     -10.302  11.701  64.746  0.00  0.00    -0.000 A 
ATOM     20  C   UNL     1     -10.763  12.805  64.044  0.00  0.00    -0.000 A 
ATOM     21  C   UNL     1     -11.852  13.487  64.570  0.00  0.00    -0.000 A 
ATOM     22  C   UNL     1     -12.214  13.296  65.898  0.00  0.00    -0.000 A 
ENDBRANCH  16  17
ENDBRANCH  14  15
ENDBRANCH   2  14
TORSDOF 5
ENDMDL
MODEL 5
REMARK VINA RESULT:      -6.4      1.379      5.924
REMARK  Name = 
REMARK  5 active torsions:
REMARK  status: ('A' for Active; 'I' for Inactive)
REMARK    1  A    between atoms: N_2  and  C_3
REMARK    2  A    between atoms: N_2  and  C_12
REMARK    3  A    between atoms: C_3  and  C_4
REMARK    4  A    between atoms: C_5  and  C_6
REMARK    5  A    between atoms: C_12  and  C_13
REMARK                            x       y       z     vdW  Elec       q    Type
REMARK                         _______ _______ _______ _____ _____    ______ ____
ROOT
ATOM      1  C   UNL     1      -9.551  12.882  66.283  0.00  0.00    +0.090 C 
ATOM      2  N   UNL     1      -9.898  14.176  66.853  0.00  0.00    -0.264 NA
ENDROOT
BRANCH   2   3
ATOM      3  C   UNL     1      -9.269  15.273  66.165  0.00  0.00    +0.099 C 
BRANCH   3   4
ATOM      4  C   UNL     1      -8.630  16.138  67.176  0.00  0.00    -0.006 A 
ATOM      5  C   UNL     1      -9.073  17.430  67.329  0.00  0.00    -0.003 A 
ATOM      6  C   UNL     1      -8.236  18.301  67.993  0.00  0.00    -0.000 A 
ATOM      7  C   UNL     1      -8.534  19.657  67.966  0.00  0.00    -0.000 A 
ATOM      8  C   UNL     1      -9.786  20.088  67.547  0.00  0.00    -0.000 A 
ATOM      9  C   UNL     1     -10.722  19.174  67.082  0.00  0.00    -0.000 A 
ATOM     10  C   UNL     1      -7.304  17.762  68.863  0.00  0.00    -0.000 A 
ATOM     11  C   UNL     1      -7.350  16.405  69.150  0.00  0.00    -0.000 A 
ATOM     12  C   UNL     1     -10.227  17.920  66.744  0.00  0.00    -0.000 A 
ATOM     13  C   UNL     1      -7.990  15.551  68.261  0.00  0.00    -0.003 A 
ENDBRANCH   3   4
ENDBRANCH   2   3
BRANCH   2  14
ATOM     14  C   UNL     1     -11.341  14.278  66.831  0.00  0.00    +0.099 C 
BRANCH  14  15
ATOM     15  C   UNL     1     -11.914  14.110  68.185  0.00  0.00    -0.009 C 
ATOM     16  C   UNL     1     -11.965  15.148  69.018  0.00  0.00    -0.003 C 
BRANCH  16  17
ATOM     17  C   UNL     1     -11.951  14.965  70.475  0.00  0.00    -0.000 A 
ATOM     18  C   UNL     1     -12.609  13.895  71.047  0.00  0.00    -0.000 A 
ATOM     19  C   UNL     1     -13.262  14.016  72.255  0.00  0.00    -0.000 A 
ATOM     20  C   UNL     1     -13.112  15.164  73.019  0.00  0.00    -0.000 A 
ATOM     21  C   UNL     1     -12.155  16.082  72.610  0.00  0.00    -0.000 A 
ATOM     22  C   UNL     1     -11.647  16.026  71.318  0.00  0.00    -0.000 A 
ENDBRANCH  16  17
ENDBRANCH  14  15
ENDBRANCH   2  14
TORSDOF 5
ENDMDL
MODEL 6
REMARK VINA RESULT:      -6.4      1.460      5.686
REMARK  Name = 
REMARK  5 active torsions:
REMARK  status: ('A' for Active; 'I' for Inactive)
REMARK    1  A    between atoms: N_2  and  C_3
REMARK    2  A    between atoms: N_2  and  C_12
REMARK    3  A    between atoms: C_3  and  C_4
REMARK    4  A    between atoms: C_5  and  C_6
REMARK    5  A    between atoms: C_12  and  C_13
REMARK                            x       y       z     vdW  Elec       q    Type
REMARK                         _______ _______ _______ _____ _____    ______ ____
ROOT
ATOM      1  C   UNL     1     -10.572  18.757  67.072  0.00  0.00    +0.090 C 
ATOM      2  N   UNL     1     -10.337  17.348  67.357  0.00  0.00    -0.264 NA
ENDROOT
BRANCH   2   3
ATOM      3  C   UNL     1      -9.518  16.708  66.361  0.00  0.00    +0.099 C 
BRANCH   3   4
ATOM      4  C   UNL     1      -9.504  15.260  66.644  0.00  0.00    -0.006 A 
ATOM      5  C   UNL     1     -10.470  14.459  66.082  0.00  0.00    -0.003 A 
ATOM      6  C   UNL     1     -10.653  13.215  66.647  0.00  0.00    -0.000 A 
ATOM      7  C   UNL     1     -11.763  12.472  66.267  0.00  0.00    -0.000 A 
ATOM      8  C   UNL     1     -12.494  12.833  65.142  0.00  0.00    -0.000 A 
ATOM      9  C   UNL     1     -12.165  13.981  64.434  0.00  0.00    -0.000 A 
ATOM     10  C   UNL     1      -9.597  12.664  67.352  0.00  0.00    -0.000 A 
ATOM     11  C   UNL     1      -8.364  13.302  67.332  0.00  0.00    -0.000 A 
ATOM     12  C   UNL     1     -11.337  14.883  65.092  0.00  0.00    -0.000 A 
ATOM     13  C   UNL     1      -8.311  14.654  67.015  0.00  0.00    -0.003 A 
ENDBRANCH   3   4
ENDBRANCH   2   3
BRANCH   2  14
ATOM     14  C   UNL     1      -9.746  17.273  68.675  0.00  0.00    +0.099 C 
BRANCH  14  15
ATOM     15  C   UNL     1     -10.692  16.699  69.658  0.00  0.00    -0.009 C 
ATOM     16  C   UNL     1     -10.799  15.377  69.785  0.00  0.00    -0.003 C 
BRANCH  16  17
ATOM     17  C   UNL     1     -12.040  14.748  70.253  0.00  0.00    -0.000 A 
ATOM     18  C   UNL     1     -13.006  15.504  70.885  0.00  0.00    -0.000 A 
ATOM     19  C   UNL     1     -13.746  14.994  71.931  0.00  0.00    -0.000 A 
ATOM     20  C   UNL     1     -13.672  13.645  72.248  0.00  0.00    -0.000 A 
ATOM     21  C   UNL     1     -12.979  12.821  71.372  0.00  0.00    -0.000 A 
ATOM     22  C   UNL     1     -12.108  13.373  70.441  0.00  0.00    -0.000 A 
ENDBRANCH  16  17
ENDBRANCH  14  15
ENDBRANCH   2  14
TORSDOF 5
ENDMDL
MODEL 7
REMARK VINA RESULT:      -6.3      4.185      7.115
REMARK  Name = 
REMARK  5 active torsions:
REMARK  status: ('A' for Active; 'I' for Inactive)
REMARK    1  A    between atoms: N_2  and  C_3
REMARK    2  A    between atoms: N_2  and  C_12
REMARK    3  A    between atoms: C_3  and  C_4
REMARK    4  A    between atoms: C_5  and  C_6
REMARK    5  A    between atoms: C_12  and  C_13
REMARK                            x       y       z     vdW  Elec       q    Type
REMARK                         _______ _______ _______ _____ _____    ______ ____
ROOT
ATOM      1  C   UNL     1      -4.847  15.155  70.485  0.00  0.00    +0.090 C 
ATOM      2  N   UNL     1      -5.690  16.056  69.712  0.00  0.00    -0.264 NA
ENDROOT
BRANCH   2   3
ATOM      3  C   UNL     1      -4.955  16.782  68.709  0.00  0.00    +0.099 C 
BRANCH   3   4
ATOM      4  C   UNL     1      -5.397  18.190  68.752  0.00  0.00    -0.006 A 
ATOM      5  C   UNL     1      -5.851  18.784  67.598  0.00  0.00    -0.003 A 
ATOM      6  C   UNL     1      -5.898  20.162  67.585  0.00  0.00    -0.000 A 
ATOM      7  C   UNL     1      -6.123  20.805  66.375  0.00  0.00    -0.000 A 
ATOM      8  C   UNL     1      -6.584  20.088  65.278  0.00  0.00    -0.000 A 
ATOM      9  C   UNL     1      -6.752  18.713  65.362  0.00  0.00    -0.000 A 
ATOM     10  C   UNL     1      -5.984  20.816  68.801  0.00  0.00    -0.000 A 
ATOM     11  C   UNL     1      -6.175  20.073  69.958  0.00  0.00    -0.000 A 
ATOM     12  C   UNL     1      -6.123  18.090  66.433  0.00  0.00    -0.000 A 
ATOM     13  C   UNL     1      -5.830  18.727  69.958  0.00  0.00    -0.003 A 
ENDBRANCH   3   4
ENDBRANCH   2   3
BRANCH   2  14
ATOM     14  C   UNL     1      -6.749  15.257  69.135  0.00  0.00    +0.099 C 
BRANCH  14  15
ATOM     15  C   UNL     1      -8.029  15.999  69.107  0.00  0.00    -0.009 C 
ATOM     16  C   UNL     1      -8.607  16.284  67.941  0.00  0.00    -0.003 C 
BRANCH  16  17
ATOM     17  C   UNL     1      -9.487  17.449  67.784  0.00  0.00    -0.000 A 
ATOM     18  C   UNL     1     -10.159  17.655  66.596  0.00  0.00    -0.000 A 
ATOM     19  C   UNL     1     -10.354  18.924  66.092  0.00  0.00    -0.000 A 
ATOM     20  C   UNL     1     -10.047  20.037  66.862  0.00  0.00    -0.000 A 
ATOM     21  C   UNL     1      -9.718  19.821  68.193  0.00  0.00    -0.000 A 
ATOM     22  C   UNL     1      -9.360  18.549  68.622  0.00  0.00    -0.000 A 
ENDBRANCH  16  17
ENDBRANCH  14  15
ENDBRANCH   2  14
TORSDOF 5
ENDMDL
MODEL 8
REMARK VINA RESULT:      -6.3      1.284      2.527
REMARK  Name = 
REMARK  5 active torsions:
REMARK  status: ('A' for Active; 'I' for Inactive)
REMARK    1  A    between atoms: N_2  and  C_3
REMARK    2  A    between atoms: N_2  and  C_12
REMARK    3  A    between atoms: C_3  and  C_4
REMARK    4  A    between atoms: C_5  and  C_6
REMARK    5  A    between atoms: C_12  and  C_13
REMARK                            x       y       z     vdW  Elec       q    Type
REMARK                         _______ _______ _______ _____ _____    ______ ____
ROOT
ATOM      1  C   UNL     1     -10.634  11.716  66.565  0.00  0.00    +0.090 C 
ATOM      2  N   UNL     1     -11.395  12.635  67.401  0.00  0.00    -0.264 NA
ENDROOT
BRANCH   2   3
ATOM      3  C   UNL     1     -10.779  12.862  68.682  0.00  0.00    +0.099 C 
BRANCH   3   4
ATOM      4  C   UNL     1     -11.664  12.298  69.720  0.00  0.00    -0.006 A 
ATOM      5  C   UNL     1     -12.398  13.151  70.510  0.00  0.00    -0.003 A 
ATOM      6  C   UNL     1     -12.909  12.631  71.680  0.00  0.00    -0.000 A 
ATOM      7  C   UNL     1     -13.450  13.505  72.613  0.00  0.00    -0.000 A 
ATOM      8  C   UNL     1     -13.742  14.816  72.255  0.00  0.00    -0.000 A 
ATOM      9  C   UNL     1     -13.426  15.280  70.985  0.00  0.00    -0.000 A 
ATOM     10  C   UNL     1     -13.097  11.261  71.749  0.00  0.00    -0.000 A 
ATOM     11  C   UNL     1     -12.917  10.494  70.605  0.00  0.00    -0.000 A 
ATOM     12  C   UNL     1     -12.527  14.505  70.263  0.00  0.00    -0.000 A 
ATOM     13  C   UNL     1     -12.139  11.000  69.572  0.00  0.00    -0.003 A 
ENDBRANCH   3   4
ENDBRANCH   2   3
BRANCH   2  14
ATOM     14  C   UNL     1     -11.553  13.861  66.651  0.00  0.00    +0.099 C 
BRANCH  14  15
ATOM     15  C   UNL     1     -10.656  14.923  67.156  0.00  0.00    -0.009 C 
ATOM     16  C   UNL     1     -11.146  16.129  67.438  0.00  0.00    -0.003 C 
BRANCH  16  17
ATOM     17  C   UNL     1     -10.310  17.334  67.367  0.00  0.00    -0.000 A 
ATOM     18  C   UNL     1      -9.822  17.910  68.522  0.00  0.00    -0.000 A 
ATOM     19  C   UNL     1      -9.715  19.278  68.654  0.00  0.00    -0.000 A 
ATOM     20  C   UNL     1      -9.915  20.103  67.557  0.00  0.00    -0.000 A 
ATOM     21  C   UNL     1     -10.042  19.495  66.315  0.00  0.00    -0.000 A 
ATOM     22  C   UNL     1     -10.321  18.137  66.233  0.00  0.00    -0.000 A 
ENDBRANCH  16  17
ENDBRANCH  14  15
ENDBRANCH   2  14
TORSDOF 5
ENDMDL
MODEL 9
REMARK VINA RESULT:      -6.3      1.633      4.685
REMARK  Name = 
REMARK  5 active torsions:
REMARK  status: ('A' for Active; 'I' for Inactive)
REMARK    1  A    between atoms: N_2  and  C_3
REMARK    2  A    between atoms: N_2  and  C_12
REMARK    3  A    between atoms: C_3  and  C_4
REMARK    4  A    between atoms: C_5  and  C_6
REMARK    5  A    between atoms: C_12  and  C_13
REMARK                            x       y       z     vdW  Elec       q    Type
REMARK                         _______ _______ _______ _____ _____    ______ ____
ROOT
ATOM      1  C   UNL     1      -9.322  16.900  68.894  0.00  0.00    +0.090 C 
ATOM      2  N   UNL     1     -10.246  16.157  68.049  0.00  0.00    -0.264 NA
ENDROOT
BRANCH   2   3
ATOM      3  C   UNL     1     -11.555  16.029  68.633  0.00  0.00    +0.099 C 
BRANCH   3   4
ATOM      4  C   UNL     1     -11.749  14.615  69.010  0.00  0.00    -0.006 A 
ATOM      5  C   UNL     1     -12.497  14.316  70.124  0.00  0.00    -0.003 A 
ATOM      6  C   UNL     1     -12.351  13.050  70.651  0.00  0.00    -0.000 A 
ATOM      7  C   UNL     1     -12.902  12.783  71.897  0.00  0.00    -0.000 A 
ATOM      8  C   UNL     1     -13.822  13.662  72.457  0.00  0.00    -0.000 A 
ATOM      9  C   UNL     1     -14.140  14.847  71.809  0.00  0.00    -0.000 A 
ATOM     10  C   UNL     1     -11.903  12.048  69.807  0.00  0.00    -0.000 A 
ATOM     11  C   UNL     1     -11.769  12.314  68.451  0.00  0.00    -0.000 A 
ATOM     12  C   UNL     1     -13.264  15.244  70.805  0.00  0.00    -0.000 A 
ATOM     13  C   UNL     1     -11.641  13.633  68.033  0.00  0.00    -0.003 A 
ENDBRANCH   3   4
ENDBRANCH   2   3
BRANCH   2  14
ATOM     14  C   UNL     1     -10.286  16.829  66.769  0.00  0.00    +0.099 C 
BRANCH  14  15
ATOM     15  C   UNL     1     -10.069  15.881  65.654  0.00  0.00    -0.009 C 
ATOM     16  C   UNL     1     -11.111  15.315  65.048  0.00  0.00    -0.003 C 
BRANCH  16  17
ATOM     17  C   UNL     1     -11.003  14.005  64.395  0.00  0.00    -0.000 A 
ATOM     18  C   UNL     1     -12.087  13.469  63.730  0.00  0.00    -0.000 A 
ATOM     19  C   UNL     1     -12.347  12.116  63.756  0.00  0.00    -0.000 A 
ATOM     20  C   UNL     1     -11.419  11.235  64.292  0.00  0.00    -0.000 A 
ATOM     21  C   UNL     1     -10.171  11.746  64.623  0.00  0.00    -0.000 A 
ATOM     22  C   UNL     1      -9.996  13.117  64.754  0.00  0.00    -0.000 A 
ENDBRANCH  16  17
ENDBRANCH  14  15
ENDBRANCH   2  14
TORSDOF 5
ENDMDL
