MODEL 1
REMARK VINA RESULT:      -6.3      0.000      0.000
REMARK  Name = 
REMARK  28 active torsions:
REMARK  status: ('A' for Active; 'I' for Inactive)
REMARK    1  A    between atoms: C_2  and  C_4
REMARK    2  A    between atoms: C_4  and  O_5
REMARK    3  A    between atoms: O_5  and  C_6
REMARK    4  A    between atoms: C_6  and  C_7
REMARK    5  A    between atoms: C_9  and  O_10
REMARK    6  A    between atoms: O_10  and  C_11
REMARK    7  A    between atoms: C_12  and  O_13
REMARK    8  A    between atoms: O_13  and  C_14
REMARK    9  A    between atoms: C_14  and  C_15
REMARK   10  A    between atoms: C_18  and  O_19
REMARK   11  A    between atoms: O_19  and  C_20
REMARK   12  A    between atoms: C_20  and  C_21
REMARK   13  A    between atoms: C_24  and  O_25
REMARK   14  A    between atoms: O_25  and  C_26
REMARK   15  A    between atoms: C_26  and  C_27
REMARK   16  A    between atoms: C_31  and  C_32
REMARK   17  A    between atoms: C_32  and  O_33
REMARK   18  A    between atoms: O_33  and  C_34
REMARK   19  A    between atoms: C_34  and  C_35
REMARK   20  A    between atoms: C_38  and  O_39
REMARK   21  A    between atoms: O_39  and  C_40
REMARK   22  A    between atoms: C_40  and  C_41
REMARK   23  A    between atoms: C_44  and  O_45
REMARK   24  A    between atoms: O_45  and  C_46
REMARK   25  A    between atoms: C_46  and  C_47
REMARK   26  A    between atoms: C_50  and  O_51
REMARK   27  A    between atoms: O_51  and  C_52
REMARK   28  A    between atoms: C_52  and  C_53
REMARK                            x       y       z     vdW  Elec       q    Type
REMARK                         _______ _______ _______ _____ _____    ______ ____
ROOT
ATOM      1  O   UNL     1     -10.036   9.763  68.554  0.00  0.00    -0.326 OA
ENDROOT
BRANCH   1   2
ATOM      2  C   UNL     1     -11.109   9.092  69.443  0.00  0.00    +0.177 C 
ATOM      3  C   UNL     1     -10.212   8.288  70.630  0.00  0.00    +0.177 C 
ATOM      4  O   UNL     1     -10.390   8.904  71.901  0.00  0.00    -0.326 OA
ATOM      5  C   UNL     1      -9.116   7.982  71.801  0.00  0.00    +0.266 C 
ATOM      6  C   UNL     1      -8.819   7.855  70.068  0.00  0.00    +0.201 C 
ATOM      7  C   UNL     1     -10.330   7.541  69.273  0.00  0.00    +0.177 C 
BRANCH   3   8
ATOM      8  C   UNL     1     -11.419   7.102  70.853  0.00  0.00    +0.174 C 
BRANCH   8   9
ATOM      9  O   UNL     1     -12.290   7.950  71.300  0.00  0.00    -0.348 OA
BRANCH   9  10
ATOM     10  C   UNL     1     -13.237   7.318  71.921  0.00  0.00    +0.175 C 
BRANCH  10  11
ATOM     11  C   UNL     1     -14.225   8.484  71.264  0.00  0.00    +0.181 C 
ATOM     12  O   UNL     1     -15.228   8.044  72.303  0.00  0.00    -0.220 OA
ATOM     13  C   UNL     1     -13.579   9.669  72.215  0.00  0.00    +0.038 C 
ENDBRANCH  10  11
ENDBRANCH   9  10
ENDBRANCH   8   9
ENDBRANCH   3   8
BRANCH   5  14
ATOM     14  O   UNL     1      -9.736   6.621  71.982  0.00  0.00    -0.326 OA
BRANCH  14  15
ATOM     15  C   UNL     1      -9.604   5.867  72.960  0.00  0.00    +0.178 C 
BRANCH  15  16
ATOM     16  C   UNL     1     -10.149   6.321  74.432  0.00  0.00    +0.182 C 
ATOM     17  O   UNL     1     -10.559   4.929  74.874  0.00  0.00    -0.220 OA
ATOM     18  C   UNL     1      -8.637   6.198  75.084  0.00  0.00    +0.038 C 
ENDBRANCH  15  16
ENDBRANCH  14  15
ENDBRANCH   5  14
BRANCH   6  19
ATOM     19  O   UNL     1      -8.511   9.302  69.873  0.00  0.00    -0.346 OA
BRANCH  19  20
ATOM     20  C   UNL     1      -7.194   9.557  69.475  0.00  0.00    +0.175 C 
BRANCH  20  21
ATOM     21  C   UNL     1      -6.917  11.165  69.400  0.00  0.00    +0.181 C 
ATOM     22  O   UNL     1      -6.218  11.179  70.751  0.00  0.00    -0.220 OA
ATOM     23  C   UNL     1      -5.519  11.047  68.540  0.00  0.00    +0.038 C 
ENDBRANCH  20  21
ENDBRANCH  19  20
ENDBRANCH   6  19
BRANCH   7  24
ATOM     24  O   UNL     1      -9.935   7.694  67.873  0.00  0.00    -0.348 OA
BRANCH  24  25
ATOM     25  C   UNL     1     -10.645   6.763  67.228  0.00  0.00    +0.175 C 
BRANCH  25  26
ATOM     26  C   UNL     1      -9.965   5.276  67.312  0.00  0.00    +0.181 C 
ATOM     27  O   UNL     1     -10.732   4.692  66.141  0.00  0.00    -0.220 OA
ATOM     28  C   UNL     1      -8.750   5.839  66.347  0.00  0.00    +0.038 C 
ENDBRANCH  25  26
ENDBRANCH  24  25
ENDBRANCH   7  24
ENDBRANCH   1   2
BRANCH   1  33
ATOM     29  C   UNL     1     -11.669  12.842  68.225  0.00  0.00    +0.177 C 
ATOM     30  C   UNL     1     -10.180  13.386  67.520  0.00  0.00    +0.174 C 
ATOM     31  C   UNL     1     -10.773  12.476  66.182  0.00  0.00    +0.177 C 
ATOM     32  C   UNL     1      -9.729  11.201  66.698  0.00  0.00    +0.201 C 
ATOM     33  C   UNL     1     -11.016  10.586  67.706  0.00  0.00    +0.266 C 
ATOM     34  O   UNL     1     -10.869  11.693  68.722  0.00  0.00    -0.326 OA
BRANCH  32  35
ATOM     35  O   UNL     1     -10.170  10.386  65.539  0.00  0.00    -0.346 OA
BRANCH  35  36
ATOM     36  C   UNL     1      -9.236   9.573  65.067  0.00  0.00    +0.175 C 
BRANCH  36  37
ATOM     37  C   UNL     1      -7.797  10.217  65.555  0.00  0.00    +0.181 C 
ATOM     38  O   UNL     1      -7.191   8.908  66.034  0.00  0.00    -0.220 OA
ATOM     39  C   UNL     1      -7.146  10.011  64.053  0.00  0.00    +0.038 C 
ENDBRANCH  36  37
ENDBRANCH  35  36
ENDBRANCH  32  35
BRANCH  31  40
ATOM     40  O   UNL     1      -9.873  13.085  65.147  0.00  0.00    -0.348 OA
BRANCH  40  41
ATOM     41  C   UNL     1     -10.697  12.936  64.049  0.00  0.00    +0.175 C 
BRANCH  41  42
ATOM     42  C   UNL     1     -12.261  12.920  64.557  0.00  0.00    +0.181 C 
ATOM     43  O   UNL     1     -12.599  14.132  63.704  0.00  0.00    -0.220 OA
ATOM     44  C   UNL     1     -12.770  11.881  63.379  0.00  0.00    +0.038 C 
ENDBRANCH  41  42
ENDBRANCH  40  41
ENDBRANCH  31  40
BRANCH  30  45
ATOM     45  O   UNL     1     -10.744  14.685  67.086  0.00  0.00    -0.348 OA
BRANCH  45  46
ATOM     46  C   UNL     1     -10.061  15.748  67.413  0.00  0.00    +0.175 C 
BRANCH  46  47
ATOM     47  C   UNL     1      -9.192  16.164  66.074  0.00  0.00    +0.181 C 
ATOM     48  O   UNL     1     -10.454  16.350  65.252  0.00  0.00    -0.220 OA
ATOM     49  C   UNL     1      -9.196  17.740  66.556  0.00  0.00    +0.038 C 
ENDBRANCH  46  47
ENDBRANCH  45  46
ENDBRANCH  30  45
BRANCH  29  50
ATOM     50  C   UNL     1     -11.404  13.636  69.640  0.00  0.00    +0.174 C 
BRANCH  50  51
ATOM     51  O   UNL     1     -12.712  14.070  69.882  0.00  0.00    -0.348 OA
BRANCH  51  52
ATOM     52  C   UNL     1     -12.738  15.017  70.883  0.00  0.00    +0.175 C 
BRANCH  52  54
ATOM     53  C   UNL     1     -12.938  14.802  73.193  0.00  0.00    +0.038 C 
ATOM     54  C   UNL     1     -13.919  14.494  71.899  0.00  0.00    +0.181 C 
ATOM     55  O   UNL     1     -14.595  15.833  72.042  0.00  0.00    -0.220 OA
ENDBRANCH  52  54
ENDBRANCH  51  52
ENDBRANCH  50  51
ENDBRANCH  29  50
ENDBRANCH   1  33
TORSDOF 28
ENDMDL
MODEL 2
REMARK VINA RESULT:      -5.8      3.268      7.742
REMARK  Name = 
REMARK  28 active torsions:
REMARK  status: ('A' for Active; 'I' for Inactive)
REMARK    1  A    between atoms: C_2  and  C_4
REMARK    2  A    between atoms: C_4  and  O_5
REMARK    3  A    between atoms: O_5  and  C_6
REMARK    4  A    between atoms: C_6  and  C_7
REMARK    5  A    between atoms: C_9  and  O_10
REMARK    6  A    between atoms: O_10  and  C_11
REMARK    7  A    between atoms: C_12  and  O_13
REMARK    8  A    between atoms: O_13  and  C_14
REMARK    9  A    between atoms: C_14  and  C_15
REMARK   10  A    between atoms: C_18  and  O_19
REMARK   11  A    between atoms: O_19  and  C_20
REMARK   12  A    between atoms: C_20  and  C_21
REMARK   13  A    between atoms: C_24  and  O_25
REMARK   14  A    between atoms: O_25  and  C_26
REMARK   15  A    between atoms: C_26  and  C_27
REMARK   16  A    between atoms: C_31  and  C_32
REMARK   17  A    between atoms: C_32  and  O_33
REMARK   18  A    between atoms: O_33  and  C_34
REMARK   19  A    between atoms: C_34  and  C_35
REMARK   20  A    between atoms: C_38  and  O_39
REMARK   21  A    between atoms: O_39  and  C_40
REMARK   22  A    between atoms: C_40  and  C_41
REMARK   23  A    between atoms: C_44  and  O_45
REMARK   24  A    between atoms: O_45  and  C_46
REMARK   25  A    between atoms: C_46  and  C_47
REMARK   26  A    between atoms: C_50  and  O_51
REMARK   27  A    between atoms: O_51  and  C_52
REMARK   28  A    between atoms: C_52  and  C_53
REMARK                            x       y       z     vdW  Elec       q    Type
REMARK                         _______ _______ _______ _____ _____    ______ ____
ROOT
ATOM      1  O   UNL     1      -9.609  14.435  67.717  0.00  0.00    -0.326 OA
ENDROOT
BRANCH   1   2
ATOM      2  C   UNL     1      -9.195  13.177  68.515  0.00  0.00    +0.177 C 
ATOM      3  C   UNL     1      -9.683  11.890  67.532  0.00  0.00    +0.177 C 
ATOM      4  O   UNL     1      -8.554  11.204  67.003  0.00  0.00    -0.326 OA
ATOM      5  C   UNL     1      -9.899  10.935  66.227  0.00  0.00    +0.266 C 
ATOM      6  C   UNL     1     -10.929  12.293  66.677  0.00  0.00    +0.201 C 
ATOM      7  C   UNL     1     -10.809  12.526  68.393  0.00  0.00    +0.177 C 
BRANCH   3   8
ATOM      8  C   UNL     1      -9.897  10.848  68.866  0.00  0.00    +0.174 C 
BRANCH   8   9
ATOM      9  O   UNL     1      -8.626  10.721  69.080  0.00  0.00    -0.348 OA
BRANCH   9  10
ATOM     10  C   UNL     1      -8.421   9.786  69.955  0.00  0.00    +0.175 C 
BRANCH  10  11
ATOM     11  C   UNL     1      -6.836  10.285  69.877  0.00  0.00    +0.181 C 
ATOM     12  O   UNL     1      -6.707   9.679  71.253  0.00  0.00    -0.220 OA
ATOM     13  C   UNL     1      -6.367   8.908  69.095  0.00  0.00    +0.038 C 
ENDBRANCH  10  11
ENDBRANCH   9  10
ENDBRANCH   8   9
ENDBRANCH   3   8
BRANCH   5  14
ATOM     14  O   UNL     1     -10.544   9.909  67.122  0.00  0.00    -0.326 OA
BRANCH  14  15
ATOM     15  C   UNL     1     -10.849   8.744  66.820  0.00  0.00    +0.178 C 
BRANCH  15  16
ATOM     16  C   UNL     1     -10.269   7.487  67.689  0.00  0.00    +0.182 C 
ATOM     17  O   UNL     1     -11.110   6.430  66.999  0.00  0.00    -0.220 OA
ATOM     18  C   UNL     1      -8.994   7.298  66.657  0.00  0.00    +0.038 C 
ENDBRANCH  15  16
ENDBRANCH  14  15
ENDBRANCH   5  14
BRANCH   6  19
ATOM     19  O   UNL     1     -10.077  13.334  66.030  0.00  0.00    -0.346 OA
BRANCH  19  20
ATOM     20  C   UNL     1     -10.626  13.875  64.863  0.00  0.00    +0.175 C 
BRANCH  20  21
ATOM     21  C   UNL     1     -12.215  13.511  64.752  0.00  0.00    +0.181 C 
ATOM     22  O   UNL     1     -12.540  14.826  64.058  0.00  0.00    -0.220 OA
ATOM     23  C   UNL     1     -12.086  12.661  63.349  0.00  0.00    +0.038 C 
ENDBRANCH  20  21
ENDBRANCH  19  20
ENDBRANCH   6  19
BRANCH   7  24
ATOM     24  O   UNL     1     -11.523  13.795  68.543  0.00  0.00    -0.348 OA
BRANCH  24  25
ATOM     25  C   UNL     1     -12.179  13.668  69.700  0.00  0.00    +0.175 C 
BRANCH  25  26
ATOM     26  C   UNL     1     -11.909  14.919  70.721  0.00  0.00    +0.181 C 
ATOM     27  O   UNL     1     -12.224  16.009  69.712  0.00  0.00    -0.220 OA
ATOM     28  C   UNL     1     -13.484  14.791  71.202  0.00  0.00    +0.038 C 
ENDBRANCH  25  26
ENDBRANCH  24  25
ENDBRANCH   7  24
ENDBRANCH   1   2
BRANCH   1  33
ATOM     29  C   UNL     1      -6.584  15.286  69.261  0.00  0.00    +0.177 C 
ATOM     30  C   UNL     1      -6.162  15.963  67.719  0.00  0.00    +0.174 C 
ATOM     31  C   UNL     1      -7.240  17.198  68.250  0.00  0.00    +0.177 C 
ATOM     32  C   UNL     1      -8.444  16.448  67.267  0.00  0.00    +0.201 C 
ATOM     33  C   UNL     1      -8.898  15.448  68.625  0.00  0.00    +0.266 C 
ATOM     34  O   UNL     1      -7.664  14.586  68.517  0.00  0.00    -0.326 OA
BRANCH  32  35
ATOM     35  O   UNL     1      -9.406  17.510  67.653  0.00  0.00    -0.346 OA
BRANCH  35  36
ATOM     36  C   UNL     1     -10.267  17.829  66.698  0.00  0.00    +0.175 C 
BRANCH  36  37
ATOM     37  C   UNL     1     -10.867  19.308  67.115  0.00  0.00    +0.181 C 
ATOM     38  O   UNL     1     -10.054  19.455  68.391  0.00  0.00    -0.220 OA
ATOM     39  C   UNL     1      -9.699  20.077  66.239  0.00  0.00    +0.038 C 
ENDBRANCH  36  37
ENDBRANCH  35  36
ENDBRANCH  32  35
BRANCH  31  40
ATOM     40  O   UNL     1      -6.791  18.248  67.275  0.00  0.00    -0.348 OA
BRANCH  40  41
ATOM     41  C   UNL     1      -6.661  19.302  68.159  0.00  0.00    +0.175 C 
BRANCH  41  42
ATOM     42  C   UNL     1      -5.522  20.339  67.584  0.00  0.00    +0.181 C 
ATOM     43  O   UNL     1      -6.562  21.425  67.354  0.00  0.00    -0.220 OA
ATOM     44  C   UNL     1      -5.137  20.946  69.069  0.00  0.00    +0.038 C 
ENDBRANCH  41  42
ENDBRANCH  40  41
ENDBRANCH  31  40
BRANCH  30  45
ATOM     45  O   UNL     1      -4.928  16.605  68.228  0.00  0.00    -0.348 OA
BRANCH  45  46
ATOM     46  C   UNL     1      -3.918  16.647  67.404  0.00  0.00    +0.175 C 
BRANCH  46  47
ATOM     47  C   UNL     1      -2.596  17.022  68.316  0.00  0.00    +0.181 C 
ATOM     48  O   UNL     1      -2.505  18.408  67.705  0.00  0.00    -0.220 OA
ATOM     49  C   UNL     1      -3.578  17.551  69.529  0.00  0.00    +0.038 C 
ENDBRANCH  46  47
ENDBRANCH  45  46
ENDBRANCH  30  45
BRANCH  29  50
ATOM     50  C   UNL     1      -5.605  13.978  69.065  0.00  0.00    +0.174 C 
BRANCH  50  51
ATOM     51  O   UNL     1      -5.639  13.497  70.378  0.00  0.00    -0.348 OA
BRANCH  51  52
ATOM     52  C   UNL     1      -5.251  14.473  71.270  0.00  0.00    +0.175 C 
BRANCH  52  54
ATOM     53  C   UNL     1      -5.380  14.157  73.573  0.00  0.00    +0.038 C 
ATOM     54  C   UNL     1      -4.346  13.666  72.380  0.00  0.00    +0.181 C 
ATOM     55  O   UNL     1      -5.071  12.355  72.236  0.00  0.00    -0.220 OA
ENDBRANCH  52  54
ENDBRANCH  51  52
ENDBRANCH  50  51
ENDBRANCH  29  50
ENDBRANCH   1  33
TORSDOF 28
ENDMDL
MODEL 3
REMARK VINA RESULT:      -5.8      2.072      8.608
REMARK  Name = 
REMARK  28 active torsions:
REMARK  status: ('A' for Active; 'I' for Inactive)
REMARK    1  A    between atoms: C_2  and  C_4
REMARK    2  A    between atoms: C_4  and  O_5
REMARK    3  A    between atoms: O_5  and  C_6
REMARK    4  A    between atoms: C_6  and  C_7
REMARK    5  A    between atoms: C_9  and  O_10
REMARK    6  A    between atoms: O_10  and  C_11
REMARK    7  A    between atoms: C_12  and  O_13
REMARK    8  A    between atoms: O_13  and  C_14
REMARK    9  A    between atoms: C_14  and  C_15
REMARK   10  A    between atoms: C_18  and  O_19
REMARK   11  A    between atoms: O_19  and  C_20
REMARK   12  A    between atoms: C_20  and  C_21
REMARK   13  A    between atoms: C_24  and  O_25
REMARK   14  A    between atoms: O_25  and  C_26
REMARK   15  A    between atoms: C_26  and  C_27
REMARK   16  A    between atoms: C_31  and  C_32
REMARK   17  A    between atoms: C_32  and  O_33
REMARK   18  A    between atoms: O_33  and  C_34
REMARK   19  A    between atoms: C_34  and  C_35
REMARK   20  A    between atoms: C_38  and  O_39
REMARK   21  A    between atoms: O_39  and  C_40
REMARK   22  A    between atoms: C_40  and  C_41
REMARK   23  A    between atoms: C_44  and  O_45
REMARK   24  A    between atoms: O_45  and  C_46
REMARK   25  A    between atoms: C_46  and  C_47
REMARK   26  A    between atoms: C_50  and  O_51
REMARK   27  A    between atoms: O_51  and  C_52
REMARK   28  A    between atoms: C_52  and  C_53
REMARK                            x       y       z     vdW  Elec       q    Type
REMARK                         _______ _______ _______ _____ _____    ______ ____
ROOT
ATOM      1  O   UNL     1      -9.704  12.277  67.908  0.00  0.00    -0.326 OA
ENDROOT
BRANCH   1   2
ATOM      2  C   UNL     1      -8.558  13.284  67.655  0.00  0.00    +0.177 C 
ATOM      3  C   UNL     1      -9.235  14.782  68.057  0.00  0.00    +0.177 C 
ATOM      4  O   UNL     1      -8.639  15.302  69.240  0.00  0.00    -0.326 OA
ATOM      5  C   UNL     1     -10.025  15.955  68.871  0.00  0.00    +0.266 C 
ATOM      6  C   UNL     1     -10.776  14.777  67.796  0.00  0.00    +0.201 C 
ATOM      7  C   UNL     1      -9.591  14.257  66.639  0.00  0.00    +0.177 C 
BRANCH   3   8
ATOM      8  C   UNL     1      -8.215  15.623  66.977  0.00  0.00    +0.174 C 
BRANCH   8   9
ATOM      9  O   UNL     1      -7.135  15.319  67.625  0.00  0.00    -0.348 OA
BRANCH   9  10
ATOM     10  C   UNL     1      -6.160  16.077  67.229  0.00  0.00    +0.175 C 
BRANCH  10  11
ATOM     11  C   UNL     1      -5.285  15.286  68.402  0.00  0.00    +0.181 C 
ATOM     12  O   UNL     1      -5.072  14.224  67.351  0.00  0.00    -0.220 OA
ATOM     13  C   UNL     1      -3.904  16.107  68.025  0.00  0.00    +0.038 C 
ENDBRANCH  10  11
ENDBRANCH   9  10
ENDBRANCH   8   9
ENDBRANCH   3   8
BRANCH   5  14
ATOM     14  O   UNL     1      -9.605  16.935  67.808  0.00  0.00    -0.326 OA
BRANCH  14  15
ATOM     15  C   UNL     1      -9.735  18.169  67.839  0.00  0.00    +0.178 C 
BRANCH  15  16
ATOM     16  C   UNL     1      -9.212  19.087  66.592  0.00  0.00    +0.182 C 
ATOM     17  O   UNL     1     -10.390  18.787  65.685  0.00  0.00    -0.220 OA
ATOM     18  C   UNL     1      -9.913  20.439  67.231  0.00  0.00    +0.038 C 
ENDBRANCH  15  16
ENDBRANCH  14  15
ENDBRANCH   5  14
BRANCH   6  19
ATOM     19  O   UNL     1     -10.890  13.702  68.825  0.00  0.00    -0.346 OA
BRANCH  19  20
ATOM     20  C   UNL     1     -12.153  13.613  69.420  0.00  0.00    +0.175 C 
BRANCH  20  21
ATOM     21  C   UNL     1     -12.092  14.111  70.974  0.00  0.00    +0.181 C 
ATOM     22  O   UNL     1     -13.193  15.139  70.762  0.00  0.00    -0.220 OA
ATOM     23  C   UNL     1     -13.112  12.957  71.553  0.00  0.00    +0.038 C 
ENDBRANCH  20  21
ENDBRANCH  19  20
ENDBRANCH   6  19
BRANCH   7  24
ATOM     24  O   UNL     1     -10.305  13.150  66.002  0.00  0.00    -0.348 OA
BRANCH  24  25
ATOM     25  C   UNL     1     -10.779  13.675  64.868  0.00  0.00    +0.175 C 
BRANCH  25  26
ATOM     26  C   UNL     1     -12.404  13.530  64.735  0.00  0.00    +0.181 C 
ATOM     27  O   UNL     1     -12.602  14.786  63.907  0.00  0.00    -0.220 OA
ATOM     28  C   UNL     1     -12.154  12.587  63.402  0.00  0.00    +0.038 C 
ENDBRANCH  25  26
ENDBRANCH  24  25
ENDBRANCH   7  24
ENDBRANCH   1   2
BRANCH   1  33
ATOM     29  C   UNL     1      -9.675   9.584  70.144  0.00  0.00    +0.177 C 
ATOM     30  C   UNL     1     -10.256   8.655  68.798  0.00  0.00    +0.174 C 
ATOM     31  C   UNL     1      -8.606   8.790  68.318  0.00  0.00    +0.177 C 
ATOM     32  C   UNL     1      -9.105  10.074  67.277  0.00  0.00    +0.201 C 
ATOM     33  C   UNL     1      -8.834  11.205  68.580  0.00  0.00    +0.266 C 
ATOM     34  O   UNL     1     -10.065  10.767  69.335  0.00  0.00    -0.326 OA
BRANCH  32  35
ATOM     35  O   UNL     1      -7.710  10.209  66.791  0.00  0.00    -0.346 OA
BRANCH  35  36
ATOM     36  C   UNL     1      -7.612  10.413  65.486  0.00  0.00    +0.175 C 
BRANCH  36  37
ATOM     37  C   UNL     1      -9.064   9.952  64.853  0.00  0.00    +0.181 C 
ATOM     38  O   UNL     1      -9.010  10.874  63.645  0.00  0.00    -0.220 OA
ATOM     39  C   UNL     1      -8.354   8.732  63.999  0.00  0.00    +0.038 C 
ENDBRANCH  36  37
ENDBRANCH  35  36
ENDBRANCH  32  35
BRANCH  31  40
ATOM     40  O   UNL     1      -8.629   7.677  67.311  0.00  0.00    -0.348 OA
BRANCH  40  41
ATOM     41  C   UNL     1      -7.422   7.088  67.633  0.00  0.00    +0.175 C 
BRANCH  41  42
ATOM     42  C   UNL     1      -7.457   5.513  67.163  0.00  0.00    +0.181 C 
ATOM     43  O   UNL     1      -8.773   5.714  66.427  0.00  0.00    -0.220 OA
ATOM     44  C   UNL     1      -6.585   5.768  65.785  0.00  0.00    +0.038 C 
ENDBRANCH  41  42
ENDBRANCH  40  41
ENDBRANCH  31  40
BRANCH  30  45
ATOM     45  O   UNL     1     -10.107   7.360  69.500  0.00  0.00    -0.348 OA
BRANCH  45  46
ATOM     46  C   UNL     1     -10.992   6.444  69.215  0.00  0.00    +0.175 C 
BRANCH  46  47
ATOM     47  C   UNL     1     -10.744   5.216  70.287  0.00  0.00    +0.181 C 
ATOM     48  O   UNL     1     -10.074   4.360  69.229  0.00  0.00    -0.220 OA
ATOM     49  C   UNL     1      -9.312   5.893  70.739  0.00  0.00    +0.038 C 
ENDBRANCH  46  47
ENDBRANCH  45  46
ENDBRANCH  30  45
BRANCH  29  50
ATOM     50  C   UNL     1     -11.143   9.610  70.886  0.00  0.00    +0.174 C 
BRANCH  50  51
ATOM     51  O   UNL     1     -10.801   8.908  72.047  0.00  0.00    -0.348 OA
BRANCH  51  52
ATOM     52  C   UNL     1     -11.868   8.165  72.504  0.00  0.00    +0.175 C 
BRANCH  52  54
ATOM     53  C   UNL     1     -13.736   7.149  71.557  0.00  0.00    +0.038 C 
ATOM     54  C   UNL     1     -13.138   8.689  71.601  0.00  0.00    +0.181 C 
ATOM     55  O   UNL     1     -14.016   9.040  72.773  0.00  0.00    -0.220 OA
ENDBRANCH  52  54
ENDBRANCH  51  52
ENDBRANCH  50  51
ENDBRANCH  29  50
ENDBRANCH   1  33
TORSDOF 28
ENDMDL
MODEL 4
REMARK VINA RESULT:      -5.7      2.244      8.666
REMARK  Name = 
REMARK  28 active torsions:
REMARK  status: ('A' for Active; 'I' for Inactive)
REMARK    1  A    between atoms: C_2  and  C_4
REMARK    2  A    between atoms: C_4  and  O_5
REMARK    3  A    between atoms: O_5  and  C_6
REMARK    4  A    between atoms: C_6  and  C_7
REMARK    5  A    between atoms: C_9  and  O_10
REMARK    6  A    between atoms: O_10  and  C_11
REMARK    7  A    between atoms: C_12  and  O_13
REMARK    8  A    between atoms: O_13  and  C_14
REMARK    9  A    between atoms: C_14  and  C_15
REMARK   10  A    between atoms: C_18  and  O_19
REMARK   11  A    between atoms: O_19  and  C_20
REMARK   12  A    between atoms: C_20  and  C_21
REMARK   13  A    between atoms: C_24  and  O_25
REMARK   14  A    between atoms: O_25  and  C_26
REMARK   15  A    between atoms: C_26  and  C_27
REMARK   16  A    between atoms: C_31  and  C_32
REMARK   17  A    between atoms: C_32  and  O_33
REMARK   18  A    between atoms: O_33  and  C_34
REMARK   19  A    between atoms: C_34  and  C_35
REMARK   20  A    between atoms: C_38  and  O_39
REMARK   21  A    between atoms: O_39  and  C_40
REMARK   22  A    between atoms: C_40  and  C_41
REMARK   23  A    between atoms: C_44  and  O_45
REMARK   24  A    between atoms: O_45  and  C_46
REMARK   25  A    between atoms: C_46  and  C_47
REMARK   26  A    between atoms: C_50  and  O_51
REMARK   27  A    between atoms: O_51  and  C_52
REMARK   28  A    between atoms: C_52  and  C_53
REMARK                            x       y       z     vdW  Elec       q    Type
REMARK                         _______ _______ _______ _____ _____    ______ ____
ROOT
ATOM      1  O   UNL     1      -9.830  12.244  68.087  0.00  0.00    -0.326 OA
ENDROOT
BRANCH   1   2
ATOM      2  C   UNL     1      -8.739  13.282  67.736  0.00  0.00    +0.177 C 
ATOM      3  C   UNL     1      -9.394  14.755  68.249  0.00  0.00    +0.177 C 
ATOM      4  O   UNL     1      -8.680  15.259  69.372  0.00  0.00    -0.326 OA
ATOM      5  C   UNL     1     -10.110  15.891  69.176  0.00  0.00    +0.266 C 
ATOM      6  C   UNL     1     -10.954  14.723  68.160  0.00  0.00    +0.201 C 
ATOM      7  C   UNL     1      -9.895  14.256  66.866  0.00  0.00    +0.177 C 
BRANCH   3   8
ATOM      8  C   UNL     1      -8.516  15.642  67.086  0.00  0.00    +0.174 C 
BRANCH   8   9
ATOM      9  O   UNL     1      -7.364  15.323  67.586  0.00  0.00    -0.348 OA
BRANCH   9  10
ATOM     10  C   UNL     1      -6.451  16.120  67.124  0.00  0.00    +0.175 C 
BRANCH  10  11
ATOM     11  C   UNL     1      -5.453  15.335  68.199  0.00  0.00    +0.181 C 
ATOM     12  O   UNL     1      -4.380  15.532  67.155  0.00  0.00    -0.220 OA
ATOM     13  C   UNL     1      -5.099  16.734  69.001  0.00  0.00    +0.038 C 
ENDBRANCH  10  11
ENDBRANCH   9  10
ENDBRANCH   8   9
ENDBRANCH   3   8
BRANCH   5  14
ATOM     14  O   UNL     1      -9.828  16.904  68.098  0.00  0.00    -0.326 OA
BRANCH  14  15
ATOM     15  C   UNL     1     -10.306  18.047  68.007  0.00  0.00    +0.178 C 
BRANCH  15  16
ATOM     16  C   UNL     1      -9.601  19.301  68.782  0.00  0.00    +0.182 C 
ATOM     17  O   UNL     1      -8.175  18.867  68.498  0.00  0.00    -0.220 OA
ATOM     18  C   UNL     1      -9.693  20.250  67.434  0.00  0.00    +0.038 C 
ENDBRANCH  15  16
ENDBRANCH  14  15
ENDBRANCH   5  14
BRANCH   6  19
ATOM     19  O   UNL     1     -10.934  13.622  69.166  0.00  0.00    -0.346 OA
BRANCH  19  20
ATOM     20  C   UNL     1     -12.169  13.385  69.778  0.00  0.00    +0.175 C 
BRANCH  20  21
ATOM     21  C   UNL     1     -12.233  14.105  71.243  0.00  0.00    +0.181 C 
ATOM     22  O   UNL     1     -13.285  15.103  70.784  0.00  0.00    -0.220 OA
ATOM     23  C   UNL     1     -13.329  13.059  71.887  0.00  0.00    +0.038 C 
ENDBRANCH  20  21
ENDBRANCH  19  20
ENDBRANCH   6  19
BRANCH   7  24
ATOM     24  O   UNL     1     -10.655  13.150  66.283  0.00  0.00    -0.348 OA
BRANCH  24  25
ATOM     25  C   UNL     1     -10.958  13.573  65.052  0.00  0.00    +0.175 C 
BRANCH  25  26
ATOM     26  C   UNL     1     -12.563  13.503  64.736  0.00  0.00    +0.181 C 
ATOM     27  O   UNL     1     -12.605  14.756  63.880  0.00  0.00    -0.220 OA
ATOM     28  C   UNL     1     -12.209  12.531  63.448  0.00  0.00    +0.038 C 
ENDBRANCH  25  26
ENDBRANCH  24  25
ENDBRANCH   7  24
ENDBRANCH   1   2
BRANCH   1  33
ATOM     29  C   UNL     1      -9.099   9.293  69.821  0.00  0.00    +0.177 C 
ATOM     30  C   UNL     1     -10.345   8.586  68.840  0.00  0.00    +0.174 C 
ATOM     31  C   UNL     1      -9.102   8.666  67.649  0.00  0.00    +0.177 C 
ATOM     32  C   UNL     1      -9.865  10.104  67.074  0.00  0.00    +0.201 C 
ATOM     33  C   UNL     1      -8.886  11.037  68.180  0.00  0.00    +0.266 C 
ATOM     34  O   UNL     1      -9.672  10.594  69.390  0.00  0.00    -0.326 OA
BRANCH  32  35
ATOM     35  O   UNL     1      -8.847  10.202  65.999  0.00  0.00    -0.346 OA
BRANCH  35  36
ATOM     36  C   UNL     1      -9.359  10.332  64.784  0.00  0.00    +0.175 C 
BRANCH  36  37
ATOM     37  C   UNL     1      -8.106  10.069  63.743  0.00  0.00    +0.181 C 
ATOM     38  O   UNL     1      -8.594   8.718  63.246  0.00  0.00    -0.220 OA
ATOM     39  C   UNL     1      -8.899  10.846  62.523  0.00  0.00    +0.038 C 
ENDBRANCH  36  37
ENDBRANCH  35  36
ENDBRANCH  32  35
BRANCH  31  40
ATOM     40  O   UNL     1      -9.723   7.695  66.687  0.00  0.00    -0.348 OA
BRANCH  40  41
ATOM     41  C   UNL     1      -8.591   6.966  66.377  0.00  0.00    +0.175 C 
BRANCH  41  42
ATOM     42  C   UNL     1      -8.945   5.364  66.485  0.00  0.00    +0.181 C 
ATOM     43  O   UNL     1     -10.433   5.634  66.320  0.00  0.00    -0.220 OA
ATOM     44  C   UNL     1      -8.762   5.081  64.870  0.00  0.00    +0.038 C 
ENDBRANCH  41  42
ENDBRANCH  40  41
ENDBRANCH  31  40
BRANCH  30  45
ATOM     45  O   UNL     1     -10.048   7.204  69.282  0.00  0.00    -0.348 OA
BRANCH  45  46
ATOM     46  C   UNL     1     -11.077   6.458  69.574  0.00  0.00    +0.175 C 
BRANCH  46  47
ATOM     47  C   UNL     1     -10.467   5.049  70.176  0.00  0.00    +0.181 C 
ATOM     48  O   UNL     1      -9.046   5.579  70.113  0.00  0.00    -0.220 OA
ATOM     49  C   UNL     1     -10.676   5.609  71.712  0.00  0.00    +0.038 C 
ENDBRANCH  46  47
ENDBRANCH  45  46
ENDBRANCH  30  45
BRANCH  29  50
ATOM     50  C   UNL     1     -10.043   9.326  71.168  0.00  0.00    +0.174 C 
BRANCH  50  51
ATOM     51  O   UNL     1      -9.101   8.858  72.091  0.00  0.00    -0.348 OA
BRANCH  51  52
ATOM     52  C   UNL     1      -7.877   8.665  71.489  0.00  0.00    +0.175 C 
BRANCH  52  54
ATOM     53  C   UNL     1      -5.630   8.125  71.774  0.00  0.00    +0.038 C 
ATOM     54  C   UNL     1      -7.029   7.774  72.581  0.00  0.00    +0.181 C 
ATOM     55  O   UNL     1      -6.802   8.905  73.549  0.00  0.00    -0.220 OA
ENDBRANCH  52  54
ENDBRANCH  51  52
ENDBRANCH  50  51
ENDBRANCH  29  50
ENDBRANCH   1  33
TORSDOF 28
ENDMDL
MODEL 5
REMARK VINA RESULT:      -5.6      1.949      8.935
REMARK  Name = 
REMARK  28 active torsions:
REMARK  status: ('A' for Active; 'I' for Inactive)
REMARK    1  A    between atoms: C_2  and  C_4
REMARK    2  A    between atoms: C_4  and  O_5
REMARK    3  A    between atoms: O_5  and  C_6
REMARK    4  A    between atoms: C_6  and  C_7
REMARK    5  A    between atoms: C_9  and  O_10
REMARK    6  A    between atoms: O_10  and  C_11
REMARK    7  A    between atoms: C_12  and  O_13
REMARK    8  A    between atoms: O_13  and  C_14
REMARK    9  A    between atoms: C_14  and  C_15
REMARK   10  A    between atoms: C_18  and  O_19
REMARK   11  A    between atoms: O_19  and  C_20
REMARK   12  A    between atoms: C_20  and  C_21
REMARK   13  A    between atoms: C_24  and  O_25
REMARK   14  A    between atoms: O_25  and  C_26
REMARK   15  A    between atoms: C_26  and  C_27
REMARK   16  A    between atoms: C_31  and  C_32
REMARK   17  A    between atoms: C_32  and  O_33
REMARK   18  A    between atoms: O_33  and  C_34
REMARK   19  A    between atoms: C_34  and  C_35
REMARK   20  A    between atoms: C_38  and  O_39
REMARK   21  A    between atoms: O_39  and  C_40
REMARK   22  A    between atoms: C_40  and  C_41
REMARK   23  A    between atoms: C_44  and  O_45
REMARK   24  A    between atoms: O_45  and  C_46
REMARK   25  A    between atoms: C_46  and  C_47
REMARK   26  A    between atoms: C_50  and  O_51
REMARK   27  A    between atoms: O_51  and  C_52
REMARK   28  A    between atoms: C_52  and  C_53
REMARK                            x       y       z     vdW  Elec       q    Type
REMARK                         _______ _______ _______ _____ _____    ______ ____
ROOT
ATOM      1  O   UNL     1     -11.739  12.731  68.805  0.00  0.00    -0.326 OA
ENDROOT
BRANCH   1   2
ATOM      2  C   UNL     1     -10.361  13.205  68.288  0.00  0.00    +0.177 C 
ATOM      3  C   UNL     1     -10.314  14.847  68.692  0.00  0.00    +0.177 C 
ATOM      4  O   UNL     1      -9.354  15.087  69.715  0.00  0.00    -0.326 OA
ATOM      5  C   UNL     1     -10.420  16.234  69.544  0.00  0.00    +0.266 C 
ATOM      6  C   UNL     1     -11.756  15.452  68.701  0.00  0.00    +0.201 C 
ATOM      7  C   UNL     1     -11.104  14.508  67.398  0.00  0.00    +0.177 C 
BRANCH   3   8
ATOM      8  C   UNL     1      -9.268  15.218  67.396  0.00  0.00    +0.174 C 
BRANCH   8   9
ATOM      9  O   UNL     1      -8.257  14.603  67.923  0.00  0.00    -0.348 OA
BRANCH   9  10
ATOM     10  C   UNL     1      -7.175  14.906  67.275  0.00  0.00    +0.175 C 
BRANCH  10  11
ATOM     11  C   UNL     1      -6.417  13.986  68.436  0.00  0.00    +0.181 C 
ATOM     12  O   UNL     1      -5.433  13.644  67.344  0.00  0.00    -0.220 OA
ATOM     13  C   UNL     1      -5.544  15.274  68.987  0.00  0.00    +0.038 C 
ENDBRANCH  10  11
ENDBRANCH   9  10
ENDBRANCH   8   9
ENDBRANCH   3   8
BRANCH   5  14
ATOM     14  O   UNL     1      -9.857  16.971  68.356  0.00  0.00    -0.326 OA
BRANCH  14  15
ATOM     15  C   UNL     1      -9.640  18.191  68.271  0.00  0.00    +0.178 C 
BRANCH  15  16
ATOM     16  C   UNL     1      -9.912  18.981  66.867  0.00  0.00    +0.182 C 
ATOM     17  O   UNL     1     -11.254  19.556  67.279  0.00  0.00    -0.220 OA
ATOM     18  C   UNL     1      -9.067  20.300  67.390  0.00  0.00    +0.038 C 
ENDBRANCH  15  16
ENDBRANCH  14  15
ENDBRANCH   5  14
BRANCH   6  19
ATOM     19  O   UNL     1     -12.085  14.507  69.808  0.00  0.00    -0.346 OA
BRANCH  19  20
ATOM     20  C   UNL     1     -13.227  14.857  70.537  0.00  0.00    +0.175 C 
BRANCH  20  21
ATOM     21  C   UNL     1     -12.864  15.046  72.118  0.00  0.00    +0.181 C 
ATOM     22  O   UNL     1     -14.087  15.916  72.367  0.00  0.00    -0.220 OA
ATOM     23  C   UNL     1     -13.597  13.659  72.616  0.00  0.00    +0.038 C 
ENDBRANCH  20  21
ENDBRANCH  19  20
ENDBRANCH   6  19
BRANCH   7  24
ATOM     24  O   UNL     1     -12.297  13.775  66.973  0.00  0.00    -0.348 OA
BRANCH  24  25
ATOM     25  C   UNL     1     -12.305  13.902  65.643  0.00  0.00    +0.175 C 
BRANCH  25  26
ATOM     26  C   UNL     1     -12.080  12.477  64.869  0.00  0.00    +0.181 C 
ATOM     27  O   UNL     1     -12.784  12.886  63.589  0.00  0.00    -0.220 OA
ATOM     28  C   UNL     1     -10.621  13.053  64.353  0.00  0.00    +0.038 C 
ENDBRANCH  25  26
ENDBRANCH  24  25
ENDBRANCH   7  24
ENDBRANCH   1   2
BRANCH   1  33
ATOM     29  C   UNL     1      -9.556  10.338  67.480  0.00  0.00    +0.177 C 
ATOM     30  C   UNL     1      -8.985  10.175  69.110  0.00  0.00    +0.174 C 
ATOM     31  C   UNL     1     -10.468   9.312  69.275  0.00  0.00    +0.177 C 
ATOM     32  C   UNL     1     -11.130  10.754  69.957  0.00  0.00    +0.201 C 
ATOM     33  C   UNL     1     -11.592  11.271  68.354  0.00  0.00    +0.266 C 
ATOM     34  O   UNL     1     -10.174  11.602  67.955  0.00  0.00    -0.326 OA
BRANCH  32  35
ATOM     35  O   UNL     1     -12.420  10.051  70.164  0.00  0.00    -0.346 OA
BRANCH  35  36
ATOM     36  C   UNL     1     -13.026  10.365  71.300  0.00  0.00    +0.175 C 
BRANCH  36  37
ATOM     37  C   UNL     1     -13.054   8.975  72.189  0.00  0.00    +0.181 C 
ATOM     38  O   UNL     1     -14.281   9.337  73.010  0.00  0.00    -0.220 OA
ATOM     39  C   UNL     1     -13.989   8.219  71.058  0.00  0.00    +0.038 C 
ENDBRANCH  36  37
ENDBRANCH  35  36
ENDBRANCH  32  35
BRANCH  31  40
ATOM     40  O   UNL     1     -10.117   8.612  70.556  0.00  0.00    -0.348 OA
BRANCH  40  41
ATOM     41  C   UNL     1     -10.482   7.331  70.192  0.00  0.00    +0.175 C 
BRANCH  41  42
ATOM     42  C   UNL     1     -10.037   6.292  71.386  0.00  0.00    +0.181 C 
ATOM     43  O   UNL     1      -8.674   6.069  70.748  0.00  0.00    -0.220 OA
ATOM     44  C   UNL     1      -9.441   7.474  72.372  0.00  0.00    +0.038 C 
ENDBRANCH  41  42
ENDBRANCH  40  41
ENDBRANCH  31  40
BRANCH  30  45
ATOM     45  O   UNL     1      -8.150   8.991  68.806  0.00  0.00    -0.348 OA
BRANCH  45  46
ATOM     46  C   UNL     1      -6.994   8.929  69.409  0.00  0.00    +0.175 C 
BRANCH  46  47
ATOM     47  C   UNL     1      -6.830  10.350  70.231  0.00  0.00    +0.181 C 
ATOM     48  O   UNL     1      -6.443   9.624  71.506  0.00  0.00    -0.220 OA
ATOM     49  C   UNL     1      -5.261  10.459  69.739  0.00  0.00    +0.038 C 
ENDBRANCH  46  47
ENDBRANCH  45  46
ENDBRANCH  30  45
BRANCH  29  50
ATOM     50  C   UNL     1      -8.226  11.175  66.993  0.00  0.00    +0.174 C 
BRANCH  50  51
ATOM     51  O   UNL     1      -8.170  10.724  65.670  0.00  0.00    -0.348 OA
BRANCH  51  52
ATOM     52  C   UNL     1      -9.085   9.715  65.455  0.00  0.00    +0.175 C 
BRANCH  52  54
ATOM     53  C   UNL     1      -9.291   9.789  63.138  0.00  0.00    +0.038 C 
ATOM     54  C   UNL     1      -8.448   8.854  64.209  0.00  0.00    +0.181 C 
ATOM     55  O   UNL     1      -7.219   9.710  64.051  0.00  0.00    -0.220 OA
ENDBRANCH  52  54
ENDBRANCH  51  52
ENDBRANCH  50  51
ENDBRANCH  29  50
ENDBRANCH   1  33
TORSDOF 28
ENDMDL
MODEL 6
REMARK VINA RESULT:      -5.6      2.031      8.240
REMARK  Name = 
REMARK  28 active torsions:
REMARK  status: ('A' for Active; 'I' for Inactive)
REMARK    1  A    between atoms: C_2  and  C_4
REMARK    2  A    between atoms: C_4  and  O_5
REMARK    3  A    between atoms: O_5  and  C_6
REMARK    4  A    between atoms: C_6  and  C_7
REMARK    5  A    between atoms: C_9  and  O_10
REMARK    6  A    between atoms: O_10  and  C_11
REMARK    7  A    between atoms: C_12  and  O_13
REMARK    8  A    between atoms: O_13  and  C_14
REMARK    9  A    between atoms: C_14  and  C_15
REMARK   10  A    between atoms: C_18  and  O_19
REMARK   11  A    between atoms: O_19  and  C_20
REMARK   12  A    between atoms: C_20  and  C_21
REMARK   13  A    between atoms: C_24  and  O_25
REMARK   14  A    between atoms: O_25  and  C_26
REMARK   15  A    between atoms: C_26  and  C_27
REMARK   16  A    between atoms: C_31  and  C_32
REMARK   17  A    between atoms: C_32  and  O_33
REMARK   18  A    between atoms: O_33  and  C_34
REMARK   19  A    between atoms: C_34  and  C_35
REMARK   20  A    between atoms: C_38  and  O_39
REMARK   21  A    between atoms: O_39  and  C_40
REMARK   22  A    between atoms: C_40  and  C_41
REMARK   23  A    between atoms: C_44  and  O_45
REMARK   24  A    between atoms: O_45  and  C_46
REMARK   25  A    between atoms: C_46  and  C_47
REMARK   26  A    between atoms: C_50  and  O_51
REMARK   27  A    between atoms: O_51  and  C_52
REMARK   28  A    between atoms: C_52  and  C_53
REMARK                            x       y       z     vdW  Elec       q    Type
REMARK                         _______ _______ _______ _____ _____    ______ ____
ROOT
ATOM      1  O   UNL     1      -9.399  11.993  67.545  0.00  0.00    -0.326 OA
ENDROOT
BRANCH   1   2
ATOM      2  C   UNL     1      -9.839  12.991  68.641  0.00  0.00    +0.177 C 
ATOM      3  C   UNL     1     -10.404  14.329  67.774  0.00  0.00    +0.177 C 
ATOM      4  O   UNL     1     -11.814  14.461  67.914  0.00  0.00    -0.326 OA
ATOM      5  C   UNL     1     -11.209  15.240  66.685  0.00  0.00    +0.266 C 
ATOM      6  C   UNL     1      -9.656  14.453  66.406  0.00  0.00    +0.201 C 
ATOM      7  C   UNL     1      -8.861  14.252  67.937  0.00  0.00    +0.177 C 
BRANCH   3   8
ATOM      8  C   UNL     1     -10.012  15.412  69.033  0.00  0.00    +0.174 C 
BRANCH   8   9
ATOM      9  O   UNL     1     -10.903  14.930  69.841  0.00  0.00    -0.348 OA
BRANCH   9  10
ATOM     10  C   UNL     1     -11.233  15.829  70.715  0.00  0.00    +0.175 C 
BRANCH  10  11
ATOM     11  C   UNL     1     -12.065  14.584  71.440  0.00  0.00    +0.181 C 
ATOM     12  O   UNL     1     -11.678  15.247  72.740  0.00  0.00    -0.220 OA
ATOM     13  C   UNL     1     -13.504  15.385  71.322  0.00  0.00    +0.038 C 
ENDBRANCH  10  11
ENDBRANCH   9  10
ENDBRANCH   8   9
ENDBRANCH   3   8
BRANCH   5  14
ATOM     14  O   UNL     1     -10.672  16.472  67.365  0.00  0.00    -0.326 OA
BRANCH  14  15
ATOM     15  C   UNL     1     -10.734  17.640  66.948  0.00  0.00    +0.178 C 
BRANCH  15  16
ATOM     16  C   UNL     1      -9.431  18.621  67.041  0.00  0.00    +0.182 C 
ATOM     17  O   UNL     1      -8.708  18.020  65.851  0.00  0.00    -0.220 OA
ATOM     18  C   UNL     1     -10.179  19.782  66.135  0.00  0.00    +0.038 C 
ENDBRANCH  15  16
ENDBRANCH  14  15
ENDBRANCH   5  14
BRANCH   6  19
ATOM     19  O   UNL     1     -10.236  13.130  66.033  0.00  0.00    -0.346 OA
BRANCH  19  20
ATOM     20  C   UNL     1     -10.234  12.873  64.658  0.00  0.00    +0.175 C 
BRANCH  20  21
ATOM     21  C   UNL     1     -11.351  11.742  64.282  0.00  0.00    +0.181 C 
ATOM     22  O   UNL     1     -12.145  12.002  65.554  0.00  0.00    -0.220 OA
ATOM     23  C   UNL     1     -12.279  12.736  63.354  0.00  0.00    +0.038 C 
ENDBRANCH  20  21
ENDBRANCH  19  20
ENDBRANCH   6  19
BRANCH   7  24
ATOM     24  O   UNL     1      -7.735  13.404  67.545  0.00  0.00    -0.348 OA
BRANCH  24  25
ATOM     25  C   UNL     1      -6.655  14.130  67.851  0.00  0.00    +0.175 C 
BRANCH  25  26
ATOM     26  C   UNL     1      -6.503  14.392  69.459  0.00  0.00    +0.181 C 
ATOM     27  O   UNL     1      -6.069  12.980  69.804  0.00  0.00    -0.220 OA
ATOM     28  C   UNL     1      -4.955  14.891  69.173  0.00  0.00    +0.038 C 
ENDBRANCH  25  26
ENDBRANCH  24  25
ENDBRANCH   7  24
ENDBRANCH   1   2
BRANCH   1  33
ATOM     29  C   UNL     1      -9.829   9.579  70.043  0.00  0.00    +0.177 C 
ATOM     30  C   UNL     1     -10.156   8.495  68.729  0.00  0.00    +0.174 C 
ATOM     31  C   UNL     1      -8.443   8.589  68.557  0.00  0.00    +0.177 C 
ATOM     32  C   UNL     1      -8.720   9.738  67.299  0.00  0.00    +0.201 C 
ATOM     33  C   UNL     1      -8.686  11.015  68.490  0.00  0.00    +0.266 C 
ATOM     34  O   UNL     1     -10.043  10.657  69.043  0.00  0.00    -0.326 OA
BRANCH  32  35
ATOM     35  O   UNL     1      -7.256   9.829  67.075  0.00  0.00    -0.346 OA
BRANCH  35  36
ATOM     36  C   UNL     1      -6.911   9.899  65.798  0.00  0.00    +0.175 C 
BRANCH  36  37
ATOM     37  C   UNL     1      -8.266   9.497  64.947  0.00  0.00    +0.181 C 
ATOM     38  O   UNL     1      -7.961  10.370  63.741  0.00  0.00    -0.220 OA
ATOM     39  C   UNL     1      -7.503   8.209  64.254  0.00  0.00    +0.038 C 
ENDBRANCH  36  37
ENDBRANCH  35  36
ENDBRANCH  32  35
BRANCH  31  40
ATOM     40  O   UNL     1      -8.289   7.366  67.700  0.00  0.00    -0.348 OA
BRANCH  40  41
ATOM     41  C   UNL     1      -7.160   6.842  68.297  0.00  0.00    +0.175 C 
BRANCH  41  42
ATOM     42  C   UNL     1      -6.306   6.001  67.172  0.00  0.00    +0.181 C 
ATOM     43  O   UNL     1      -6.042   4.867  68.151  0.00  0.00    -0.220 OA
ATOM     44  C   UNL     1      -7.628   5.231  66.553  0.00  0.00    +0.038 C 
ENDBRANCH  41  42
ENDBRANCH  40  41
ENDBRANCH  31  40
BRANCH  30  45
ATOM     45  O   UNL     1     -10.159   7.291  69.592  0.00  0.00    -0.348 OA
BRANCH  45  46
ATOM     46  C   UNL     1     -11.025   6.364  69.285  0.00  0.00    +0.175 C 
BRANCH  46  47
ATOM     47  C   UNL     1     -10.699   5.086  70.275  0.00  0.00    +0.181 C 
ATOM     48  O   UNL     1      -9.675   4.530  69.304  0.00  0.00    -0.220 OA
ATOM     49  C   UNL     1      -9.562   5.981  71.064  0.00  0.00    +0.038 C 
ENDBRANCH  46  47
ENDBRANCH  45  46
ENDBRANCH  30  45
BRANCH  29  50
ATOM     50  C   UNL     1     -11.410   9.678  70.485  0.00  0.00    +0.174 C 
BRANCH  50  51
ATOM     51  O   UNL     1     -11.262   9.394  71.847  0.00  0.00    -0.348 OA
BRANCH  51  52
ATOM     52  C   UNL     1     -12.155   8.422  72.246  0.00  0.00    +0.175 C 
BRANCH  52  54
ATOM     53  C   UNL     1     -14.008   7.238  71.482  0.00  0.00    +0.038 C 
ATOM     54  C   UNL     1     -13.555   8.828  71.488  0.00  0.00    +0.181 C 
ATOM     55  O   UNL     1     -14.336   9.087  72.749  0.00  0.00    -0.220 OA
ENDBRANCH  52  54
ENDBRANCH  51  52
ENDBRANCH  50  51
ENDBRANCH  29  50
ENDBRANCH   1  33
TORSDOF 28
ENDMDL
MODEL 7
REMARK VINA RESULT:      -5.6      2.937      7.072
REMARK  Name = 
REMARK  28 active torsions:
REMARK  status: ('A' for Active; 'I' for Inactive)
REMARK    1  A    between atoms: C_2  and  C_4
REMARK    2  A    between atoms: C_4  and  O_5
REMARK    3  A    between atoms: O_5  and  C_6
REMARK    4  A    between atoms: C_6  and  C_7
REMARK    5  A    between atoms: C_9  and  O_10
REMARK    6  A    between atoms: O_10  and  C_11
REMARK    7  A    between atoms: C_12  and  O_13
REMARK    8  A    between atoms: O_13  and  C_14
REMARK    9  A    between atoms: C_14  and  C_15
REMARK   10  A    between atoms: C_18  and  O_19
REMARK   11  A    between atoms: O_19  and  C_20
REMARK   12  A    between atoms: C_20  and  C_21
REMARK   13  A    between atoms: C_24  and  O_25
REMARK   14  A    between atoms: O_25  and  C_26
REMARK   15  A    between atoms: C_26  and  C_27
REMARK   16  A    between atoms: C_31  and  C_32
REMARK   17  A    between atoms: C_32  and  O_33
REMARK   18  A    between atoms: O_33  and  C_34
REMARK   19  A    between atoms: C_34  and  C_35
REMARK   20  A    between atoms: C_38  and  O_39
REMARK   21  A    between atoms: O_39  and  C_40
REMARK   22  A    between atoms: C_40  and  C_41
REMARK   23  A    between atoms: C_44  and  O_45
REMARK   24  A    between atoms: O_45  and  C_46
REMARK   25  A    between atoms: C_46  and  C_47
REMARK   26  A    between atoms: C_50  and  O_51
REMARK   27  A    between atoms: O_51  and  C_52
REMARK   28  A    between atoms: C_52  and  C_53
REMARK                            x       y       z     vdW  Elec       q    Type
REMARK                         _______ _______ _______ _____ _____    ______ ____
ROOT
ATOM      1  O   UNL     1      -8.275  12.964  68.192  0.00  0.00    -0.326 OA
ENDROOT
BRANCH   1   2
ATOM      2  C   UNL     1      -7.909  11.955  67.079  0.00  0.00    +0.177 C 
ATOM      3  C   UNL     1      -9.168  10.826  67.120  0.00  0.00    +0.177 C 
ATOM      4  O   UNL     1      -9.973  10.925  65.950  0.00  0.00    -0.326 OA
ATOM      5  C   UNL     1     -10.666  10.178  67.152  0.00  0.00    +0.266 C 
ATOM      6  C   UNL     1      -9.755  10.709  68.565  0.00  0.00    +0.201 C 
ATOM      7  C   UNL     1      -8.061  10.620  68.190  0.00  0.00    +0.177 C 
BRANCH   3   8
ATOM      8  C   UNL     1      -8.172   9.574  66.527  0.00  0.00    +0.174 C 
BRANCH   8   9
ATOM      9  O   UNL     1      -8.010  10.134  65.370  0.00  0.00    -0.348 OA
BRANCH   9  10
ATOM     10  C   UNL     1      -7.151   9.458  64.673  0.00  0.00    +0.175 C 
BRANCH  10  11
ATOM     11  C   UNL     1      -8.483   8.980  63.798  0.00  0.00    +0.181 C 
ATOM     12  O   UNL     1      -8.209  10.199  62.951  0.00  0.00    -0.220 OA
ATOM     13  C   UNL     1      -7.585   7.970  62.849  0.00  0.00    +0.038 C 
ENDBRANCH  10  11
ENDBRANCH   9  10
ENDBRANCH   8   9
ENDBRANCH   3   8
BRANCH   5  14
ATOM     14  O   UNL     1     -10.043   8.811  67.034  0.00  0.00    -0.326 OA
BRANCH  14  15
ATOM     15  C   UNL     1     -10.639   7.721  67.006  0.00  0.00    +0.178 C 
BRANCH  15  16
ATOM     16  C   UNL     1     -10.054   6.439  67.833  0.00  0.00    +0.182 C 
ATOM     17  O   UNL     1     -11.310   6.206  68.651  0.00  0.00    -0.220 OA
ATOM     18  C   UNL     1     -10.512   5.397  66.637  0.00  0.00    +0.038 C 
ENDBRANCH  15  16
ENDBRANCH  14  15
ENDBRANCH   5  14
BRANCH   6  19
ATOM     19  O   UNL     1     -10.155  12.142  68.458  0.00  0.00    -0.346 OA
BRANCH  19  20
ATOM     20  C   UNL     1     -11.299  12.472  69.194  0.00  0.00    +0.175 C 
BRANCH  20  21
ATOM     21  C   UNL     1     -11.301  14.061  69.572  0.00  0.00    +0.181 C 
ATOM     22  O   UNL     1     -12.211  14.409  68.404  0.00  0.00    -0.220 OA
ATOM     23  C   UNL     1     -12.531  13.964  70.661  0.00  0.00    +0.038 C 
ENDBRANCH  20  21
ENDBRANCH  19  20
ENDBRANCH   6  19
BRANCH   7  24
ATOM     24  O   UNL     1      -7.492  11.295  69.357  0.00  0.00    -0.348 OA
BRANCH  24  25
ATOM     25  C   UNL     1      -6.747  10.356  69.949  0.00  0.00    +0.175 C 
BRANCH  25  26
ATOM     26  C   UNL     1      -5.235  10.876  70.300  0.00  0.00    +0.181 C 
ATOM     27  O   UNL     1      -5.477  11.056  71.787  0.00  0.00    -0.220 OA
ATOM     28  C   UNL     1      -4.794   9.294  70.475  0.00  0.00    +0.038 C 
ENDBRANCH  25  26
ENDBRANCH  24  25
ENDBRANCH   7  24
ENDBRANCH   1   2
BRANCH   1  33
ATOM     29  C   UNL     1      -8.674  15.996  66.489  0.00  0.00    +0.177 C 
ATOM     30  C   UNL     1      -9.002  16.661  68.058  0.00  0.00    +0.174 C 
ATOM     31  C   UNL     1      -7.291  16.508  68.201  0.00  0.00    +0.177 C 
ATOM     32  C   UNL     1      -7.583  15.049  69.077  0.00  0.00    +0.201 C 
ATOM     33  C   UNL     1      -7.551  14.166  67.570  0.00  0.00    +0.266 C 
ATOM     34  O   UNL     1      -8.902  14.679  67.137  0.00  0.00    -0.326 OA
BRANCH  32  35
ATOM     35  O   UNL     1      -6.121  14.885  69.270  0.00  0.00    -0.346 OA
BRANCH  35  36
ATOM     36  C   UNL     1      -5.780  14.499  70.491  0.00  0.00    +0.175 C 
BRANCH  36  37
ATOM     37  C   UNL     1      -4.332  15.228  70.801  0.00  0.00    +0.181 C 
ATOM     38  O   UNL     1      -4.902  16.365  71.633  0.00  0.00    -0.220 OA
ATOM     39  C   UNL     1      -4.106  14.305  72.149  0.00  0.00    +0.038 C 
ENDBRANCH  36  37
ENDBRANCH  35  36
ENDBRANCH  32  35
BRANCH  31  40
ATOM     40  O   UNL     1      -7.134  17.433  69.373  0.00  0.00    -0.348 OA
BRANCH  40  41
ATOM     41  C   UNL     1      -6.110  18.216  68.876  0.00  0.00    +0.175 C 
BRANCH  41  42
ATOM     42  C   UNL     1      -6.251  19.732  69.498  0.00  0.00    +0.181 C 
ATOM     43  O   UNL     1      -5.085  19.500  70.447  0.00  0.00    -0.220 OA
ATOM     44  C   UNL     1      -5.266  20.427  68.371  0.00  0.00    +0.038 C 
ENDBRANCH  41  42
ENDBRANCH  40  41
ENDBRANCH  31  40
BRANCH  30  45
ATOM     45  O   UNL     1      -8.992  18.062  67.576  0.00  0.00    -0.348 OA
BRANCH  45  46
ATOM     46  C   UNL     1      -9.871  18.862  68.114  0.00  0.00    +0.175 C 
BRANCH  46  47
ATOM     47  C   UNL     1      -9.734  20.297  67.312  0.00  0.00    +0.181 C 
ATOM     48  O   UNL     1      -8.394  19.898  66.722  0.00  0.00    -0.220 OA
ATOM     49  C   UNL     1     -10.559  19.667  66.033  0.00  0.00    +0.038 C 
ENDBRANCH  46  47
ENDBRANCH  45  46
ENDBRANCH  30  45
BRANCH  29  50
ATOM     50  C   UNL     1     -10.254  16.041  66.031  0.00  0.00    +0.174 C 
BRANCH  50  51
ATOM     51  O   UNL     1     -10.162  15.238  64.889  0.00  0.00    -0.348 OA
BRANCH  51  52
ATOM     52  C   UNL     1     -10.885  14.076  65.047  0.00  0.00    +0.175 C 
BRANCH  52  54
ATOM     53  C   UNL     1     -12.114  12.845  63.500  0.00  0.00    +0.038 C 
ATOM     54  C   UNL     1     -12.261  14.340  64.188  0.00  0.00    +0.181 C 
ATOM     55  O   UNL     1     -13.197  13.808  65.240  0.00  0.00    -0.220 OA
ENDBRANCH  52  54
ENDBRANCH  51  52
ENDBRANCH  50  51
ENDBRANCH  29  50
ENDBRANCH   1  33
TORSDOF 28
ENDMDL
MODEL 8
REMARK VINA RESULT:      -5.5      2.517      6.703
REMARK  Name = 
REMARK  28 active torsions:
REMARK  status: ('A' for Active; 'I' for Inactive)
REMARK    1  A    between atoms: C_2  and  C_4
REMARK    2  A    between atoms: C_4  and  O_5
REMARK    3  A    between atoms: O_5  and  C_6
REMARK    4  A    between atoms: C_6  and  C_7
REMARK    5  A    between atoms: C_9  and  O_10
REMARK    6  A    between atoms: O_10  and  C_11
REMARK    7  A    between atoms: C_12  and  O_13
REMARK    8  A    between atoms: O_13  and  C_14
REMARK    9  A    between atoms: C_14  and  C_15
REMARK   10  A    between atoms: C_18  and  O_19
REMARK   11  A    between atoms: O_19  and  C_20
REMARK   12  A    between atoms: C_20  and  C_21
REMARK   13  A    between atoms: C_24  and  O_25
REMARK   14  A    between atoms: O_25  and  C_26
REMARK   15  A    between atoms: C_26  and  C_27
REMARK   16  A    between atoms: C_31  and  C_32
REMARK   17  A    between atoms: C_32  and  O_33
REMARK   18  A    between atoms: O_33  and  C_34
REMARK   19  A    between atoms: C_34  and  C_35
REMARK   20  A    between atoms: C_38  and  O_39
REMARK   21  A    between atoms: O_39  and  C_40
REMARK   22  A    between atoms: C_40  and  C_41
REMARK   23  A    between atoms: C_44  and  O_45
REMARK   24  A    between atoms: O_45  and  C_46
REMARK   25  A    between atoms: C_46  and  C_47
REMARK   26  A    between atoms: C_50  and  O_51
REMARK   27  A    between atoms: O_51  and  C_52
REMARK   28  A    between atoms: C_52  and  C_53
REMARK                            x       y       z     vdW  Elec       q    Type
REMARK                         _______ _______ _______ _____ _____    ______ ____
ROOT
ATOM      1  O   UNL     1      -8.192  11.486  67.379  0.00  0.00    -0.326 OA
ENDROOT
BRANCH   1   2
ATOM      2  C   UNL     1      -8.248  10.787  66.001  0.00  0.00    +0.177 C 
ATOM      3  C   UNL     1      -8.834   9.239  66.351  0.00  0.00    +0.177 C 
ATOM      4  O   UNL     1     -10.149   9.068  65.833  0.00  0.00    -0.326 OA
ATOM      5  C   UNL     1      -9.753   8.031  66.951  0.00  0.00    +0.266 C 
ATOM      6  C   UNL     1      -8.410   8.804  67.792  0.00  0.00    +0.201 C 
ATOM      7  C   UNL     1      -7.315   9.443  66.606  0.00  0.00    +0.177 C 
BRANCH   3   8
ATOM      8  C   UNL     1      -8.039   8.547  65.010  0.00  0.00    +0.174 C 
BRANCH   8   9
ATOM      9  O   UNL     1      -8.639   9.309  64.152  0.00  0.00    -0.348 OA
BRANCH   9  10
ATOM     10  C   UNL     1      -8.535   8.798  62.964  0.00  0.00    +0.175 C 
BRANCH  10  11
ATOM     11  C   UNL     1      -7.317   9.915  62.768  0.00  0.00    +0.181 C 
ATOM     12  O   UNL     1      -6.722   8.913  61.808  0.00  0.00    -0.220 OA
ATOM     13  C   UNL     1      -8.153  10.723  61.595  0.00  0.00    +0.038 C 
ENDBRANCH  10  11
ENDBRANCH   9  10
ENDBRANCH   8   9
ENDBRANCH   3   8
BRANCH   5  14
ATOM     14  O   UNL     1      -8.932   7.052  66.153  0.00  0.00    -0.326 OA
BRANCH  14  15
ATOM     15  C   UNL     1      -8.906   5.817  66.289  0.00  0.00    +0.178 C 
BRANCH  15  16
ATOM     16  C   UNL     1     -10.180   5.032  66.944  0.00  0.00    +0.182 C 
ATOM     17  O   UNL     1     -10.836   4.685  65.622  0.00  0.00    -0.220 OA
ATOM     18  C   UNL     1      -9.332   3.616  67.016  0.00  0.00    +0.038 C 
ENDBRANCH  15  16
ENDBRANCH  14  15
ENDBRANCH   5  14
BRANCH   6  19
ATOM     19  O   UNL     1      -9.213   9.949  68.313  0.00  0.00    -0.346 OA
BRANCH  19  20
ATOM     20  C   UNL     1      -9.433   9.909  69.694  0.00  0.00    +0.175 C 
BRANCH  20  21
ATOM     21  C   UNL     1     -10.967   9.450  70.019  0.00  0.00    +0.181 C 
ATOM     22  O   UNL     1     -10.710   9.401  71.517  0.00  0.00    -0.220 OA
ATOM     23  C   UNL     1     -11.587  10.974  70.050  0.00  0.00    +0.038 C 
ENDBRANCH  20  21
ENDBRANCH  19  20
ENDBRANCH   6  19
BRANCH   7  24
ATOM     24  O   UNL     1      -6.417  10.221  67.460  0.00  0.00    -0.348 OA
BRANCH  24  25
ATOM     25  C   UNL     1      -5.201   9.740  67.182  0.00  0.00    +0.175 C 
BRANCH  25  26
ATOM     26  C   UNL     1      -4.505  10.484  65.901  0.00  0.00    +0.181 C 
ATOM     27  O   UNL     1      -4.897  11.892  66.310  0.00  0.00    -0.220 OA
ATOM     28  C   UNL     1      -3.099  10.532  66.766  0.00  0.00    +0.038 C 
ENDBRANCH  25  26
ENDBRANCH  24  25
ENDBRANCH   7  24
ENDBRANCH   1   2
BRANCH   1  33
ATOM     29  C   UNL     1     -10.570  13.997  66.840  0.00  0.00    +0.177 C 
ATOM     30  C   UNL     1     -10.339  14.367  68.520  0.00  0.00    +0.174 C 
ATOM     31  C   UNL     1      -8.885  15.059  67.907  0.00  0.00    +0.177 C 
ATOM     32  C   UNL     1      -8.087  13.614  68.413  0.00  0.00    +0.201 C 
ATOM     33  C   UNL     1      -8.426  12.908  66.851  0.00  0.00    +0.266 C 
ATOM     34  O   UNL     1      -9.891  12.715  67.158  0.00  0.00    -0.326 OA
BRANCH  32  35
ATOM     35  O   UNL     1      -6.796  14.175  67.943  0.00  0.00    -0.346 OA
BRANCH  35  36
ATOM     36  C   UNL     1      -5.834  14.146  68.854  0.00  0.00    +0.175 C 
BRANCH  36  37
ATOM     37  C   UNL     1      -6.191  12.872  69.839  0.00  0.00    +0.181 C 
ATOM     38  O   UNL     1      -4.842  12.185  69.705  0.00  0.00    -0.220 OA
ATOM     39  C   UNL     1      -5.678  13.701  71.170  0.00  0.00    +0.038 C 
ENDBRANCH  36  37
ENDBRANCH  35  36
ENDBRANCH  32  35
BRANCH  31  40
ATOM     40  O   UNL     1      -8.578  15.905  69.109  0.00  0.00    -0.348 OA
BRANCH  40  41
ATOM     41  C   UNL     1      -8.295  17.089  68.457  0.00  0.00    +0.175 C 
BRANCH  41  42
ATOM     42  C   UNL     1      -6.852  17.662  68.998  0.00  0.00    +0.181 C 
ATOM     43  O   UNL     1      -6.242  17.571  67.607  0.00  0.00    -0.220 OA
ATOM     44  C   UNL     1      -7.252  19.249  68.777  0.00  0.00    +0.038 C 
ENDBRANCH  41  42
ENDBRANCH  40  41
ENDBRANCH  31  40
BRANCH  30  45
ATOM     45  O   UNL     1     -11.141  15.611  68.459  0.00  0.00    -0.348 OA
BRANCH  45  46
ATOM     46  C   UNL     1     -11.893  15.864  69.495  0.00  0.00    +0.175 C 
BRANCH  46  47
ATOM     47  C   UNL     1     -11.629  14.636  70.564  0.00  0.00    +0.181 C 
ATOM     48  O   UNL     1     -11.330  15.611  71.687  0.00  0.00    -0.220 OA
ATOM     49  C   UNL     1     -13.235  14.604  70.931  0.00  0.00    +0.038 C 
ENDBRANCH  46  47
ENDBRANCH  45  46
ENDBRANCH  30  45
BRANCH  29  50
ATOM     50  C   UNL     1     -12.031  13.285  67.097  0.00  0.00    +0.174 C 
BRANCH  50  51
ATOM     51  O   UNL     1     -12.301  12.888  65.782  0.00  0.00    -0.348 OA
BRANCH  51  52
ATOM     52  C   UNL     1     -11.884  13.846  64.884  0.00  0.00    +0.175 C 
BRANCH  52  54
ATOM     53  C   UNL     1     -10.937  12.072  63.712  0.00  0.00    +0.038 C 
ATOM     54  C   UNL     1     -12.146  13.159  63.414  0.00  0.00    +0.181 C 
ATOM     55  O   UNL     1     -13.192  12.187  63.890  0.00  0.00    -0.220 OA
ENDBRANCH  52  54
ENDBRANCH  51  52
ENDBRANCH  50  51
ENDBRANCH  29  50
ENDBRANCH   1  33
TORSDOF 28
ENDMDL
MODEL 9
REMARK VINA RESULT:      -5.5      2.070      8.895
REMARK  Name = 
REMARK  28 active torsions:
REMARK  status: ('A' for Active; 'I' for Inactive)
REMARK    1  A    between atoms: C_2  and  C_4
REMARK    2  A    between atoms: C_4  and  O_5
REMARK    3  A    between atoms: O_5  and  C_6
REMARK    4  A    between atoms: C_6  and  C_7
REMARK    5  A    between atoms: C_9  and  O_10
REMARK    6  A    between atoms: O_10  and  C_11
REMARK    7  A    between atoms: C_12  and  O_13
REMARK    8  A    between atoms: O_13  and  C_14
REMARK    9  A    between atoms: C_14  and  C_15
REMARK   10  A    between atoms: C_18  and  O_19
REMARK   11  A    between atoms: O_19  and  C_20
REMARK   12  A    between atoms: C_20  and  C_21
REMARK   13  A    between atoms: C_24  and  O_25
REMARK   14  A    between atoms: O_25  and  C_26
REMARK   15  A    between atoms: C_26  and  C_27
REMARK   16  A    between atoms: C_31  and  C_32
REMARK   17  A    between atoms: C_32  and  O_33
REMARK   18  A    between atoms: O_33  and  C_34
REMARK   19  A    between atoms: C_34  and  C_35
REMARK   20  A    between atoms: C_38  and  O_39
REMARK   21  A    between atoms: O_39  and  C_40
REMARK   22  A    between atoms: C_40  and  C_41
REMARK   23  A    between atoms: C_44  and  O_45
REMARK   24  A    between atoms: O_45  and  C_46
REMARK   25  A    between atoms: C_46  and  C_47
REMARK   26  A    between atoms: C_50  and  O_51
REMARK   27  A    between atoms: O_51  and  C_52
REMARK   28  A    between atoms: C_52  and  C_53
REMARK                            x       y       z     vdW  Elec       q    Type
REMARK                         _______ _______ _______ _____ _____    ______ ____
ROOT
ATOM      1  O   UNL     1      -9.785  11.984  68.454  0.00  0.00    -0.326 OA
ENDROOT
BRANCH   1   2
ATOM      2  C   UNL     1     -10.512  12.660  67.269  0.00  0.00    +0.177 C 
ATOM      3  C   UNL     1      -9.842  14.212  67.210  0.00  0.00    +0.177 C 
ATOM      4  O   UNL     1      -9.041  14.371  66.044  0.00  0.00    -0.326 OA
ATOM      5  C   UNL     1      -8.753  15.428  67.177  0.00  0.00    +0.266 C 
ATOM      6  C   UNL     1      -9.393  14.672  68.635  0.00  0.00    +0.201 C 
ATOM      7  C   UNL     1     -10.959  14.016  68.271  0.00  0.00    +0.177 C 
BRANCH   3   8
ATOM      8  C   UNL     1     -11.255  14.884  66.530  0.00  0.00    +0.174 C 
BRANCH   8   9
ATOM      9  O   UNL     1     -11.231  14.106  65.495  0.00  0.00    -0.348 OA
BRANCH   9  10
ATOM     10  C   UNL     1     -11.998  14.589  64.567  0.00  0.00    +0.175 C 
BRANCH  10  11
ATOM     11  C   UNL     1     -12.364  12.993  64.267  0.00  0.00    +0.181 C 
ATOM     12  O   UNL     1     -12.791  13.477  62.903  0.00  0.00    -0.220 OA
ATOM     13  C   UNL     1     -10.819  12.654  63.796  0.00  0.00    +0.038 C 
ENDBRANCH  10  11
ENDBRANCH   9  10
ENDBRANCH   8   9
ENDBRANCH   3   8
BRANCH   5  14
ATOM     14  O   UNL     1      -9.886  16.396  66.958  0.00  0.00    -0.326 OA
BRANCH  14  15
ATOM     15  C   UNL     1      -9.793  17.589  66.624  0.00  0.00    +0.178 C 
BRANCH  15  16
ATOM     16  C   UNL     1     -10.523  18.753  67.508  0.00  0.00    +0.182 C 
ATOM     17  O   UNL     1      -9.717  18.508  68.769  0.00  0.00    -0.220 OA
ATOM     18  C   UNL     1      -9.485  19.904  66.940  0.00  0.00    +0.038 C 
ENDBRANCH  15  16
ENDBRANCH  14  15
ENDBRANCH   5  14
BRANCH   6  19
ATOM     19  O   UNL     1      -8.428  13.534  68.637  0.00  0.00    -0.346 OA
BRANCH  19  20
ATOM     20  C   UNL     1      -7.181  13.843  69.192  0.00  0.00    +0.175 C 
BRANCH  20  21
ATOM     21  C   UNL     1      -6.055  12.761  68.715  0.00  0.00    +0.181 C 
ATOM     22  O   UNL     1      -5.961  13.365  67.322  0.00  0.00    -0.220 OA
ATOM     23  C   UNL     1      -4.767  13.602  69.300  0.00  0.00    +0.038 C 
ENDBRANCH  20  21
ENDBRANCH  19  20
ENDBRANCH   6  19
BRANCH   7  24
ATOM     24  O   UNL     1     -11.222  13.255  69.493  0.00  0.00    -0.348 OA
BRANCH  24  25
ATOM     25  C   UNL     1     -12.337  13.800  69.986  0.00  0.00    +0.175 C 
BRANCH  25  26
ATOM     26  C   UNL     1     -12.050  14.787  71.261  0.00  0.00    +0.181 C 
ATOM     27  O   UNL     1     -12.866  15.954  70.737  0.00  0.00    -0.220 OA
ATOM     28  C   UNL     1     -13.351  14.102  72.012  0.00  0.00    +0.038 C 
ENDBRANCH  25  26
ENDBRANCH  24  25
ENDBRANCH   7  24
ENDBRANCH   1   2
BRANCH   1  33
ATOM     29  C   UNL     1      -8.153   9.452  66.671  0.00  0.00    +0.177 C 
ATOM     30  C   UNL     1      -7.352   9.118  68.174  0.00  0.00    +0.174 C 
ATOM     31  C   UNL     1      -8.884   8.419  68.544  0.00  0.00    +0.177 C 
ATOM     32  C   UNL     1      -9.246   9.878  69.393  0.00  0.00    +0.201 C 
ATOM     33  C   UNL     1      -9.892  10.550  67.916  0.00  0.00    +0.266 C 
ATOM     34  O   UNL     1      -8.527  10.744  67.303  0.00  0.00    -0.326 OA
BRANCH  32  35
ATOM     35  O   UNL     1     -10.563   9.313  69.780  0.00  0.00    -0.346 OA
BRANCH  35  36
ATOM     36  C   UNL     1     -10.981   9.695  70.978  0.00  0.00    +0.175 C 
BRANCH  36  37
ATOM     37  C   UNL     1     -12.446   8.968  71.191  0.00  0.00    +0.181 C 
ATOM     38  O   UNL     1     -12.142   8.397  72.567  0.00  0.00    -0.220 OA
ATOM     39  C   UNL     1     -13.078  10.338  71.859  0.00  0.00    +0.038 C 
ENDBRANCH  36  37
ENDBRANCH  35  36
ENDBRANCH  32  35
BRANCH  31  40
ATOM     40  O   UNL     1      -8.421   7.600  69.713  0.00  0.00    -0.348 OA
BRANCH  40  41
ATOM     41  C   UNL     1      -9.078   6.423  69.408  0.00  0.00    +0.175 C 
BRANCH  41  42
ATOM     42  C   UNL     1     -10.035   6.004  70.677  0.00  0.00    +0.181 C 
ATOM     43  O   UNL     1     -11.270   5.963  69.792  0.00  0.00    -0.220 OA
ATOM     44  C   UNL     1      -9.785   4.382  70.499  0.00  0.00    +0.038 C 
ENDBRANCH  41  42
ENDBRANCH  40  41
ENDBRANCH  31  40
BRANCH  30  45
ATOM     45  O   UNL     1      -6.728   7.869  67.678  0.00  0.00    -0.348 OA
BRANCH  45  46
ATOM     46  C   UNL     1      -5.574   7.555  68.199  0.00  0.00    +0.175 C 
BRANCH  46  47
ATOM     47  C   UNL     1      -5.019   8.920  68.941  0.00  0.00    +0.181 C 
ATOM     48  O   UNL     1      -4.363   8.113  70.046  0.00  0.00    -0.220 OA
ATOM     49  C   UNL     1      -3.658   8.876  68.013  0.00  0.00    +0.038 C 
ENDBRANCH  46  47
ENDBRANCH  45  46
ENDBRANCH  30  45
BRANCH  29  50
ATOM     50  C   UNL     1      -6.825  10.164  66.010  0.00  0.00    +0.174 C 
BRANCH  50  51
ATOM     51  O   UNL     1      -7.221  10.134  64.668  0.00  0.00    -0.348 OA
BRANCH  51  52
ATOM     52  C   UNL     1      -8.012   9.034  64.414  0.00  0.00    +0.175 C 
BRANCH  52  54
ATOM     53  C   UNL     1      -7.601  10.281  62.492  0.00  0.00    +0.038 C 
ATOM     54  C   UNL     1      -8.906   9.476  63.108  0.00  0.00    +0.181 C 
ATOM     55  O   UNL     1      -8.588   8.252  62.290  0.00  0.00    -0.220 OA
ENDBRANCH  52  54
ENDBRANCH  51  52
ENDBRANCH  50  51
ENDBRANCH  29  50
ENDBRANCH   1  33
TORSDOF 28
ENDMDL
