MODEL 1
REMARK VINA RESULT:      -7.4      0.000      0.000
REMARK  Name = 
REMARK  5 active torsions:
REMARK  status: ('A' for Active; 'I' for Inactive)
REMARK    1  A    between atoms: C_2  and  C_24
REMARK    2  A    between atoms: N_3  and  C_4
REMARK    3  A    between atoms: C_4  and  C_5
REMARK    4  A    between atoms: N_7  and  C_8
REMARK    5  A    between atoms: C_11  and  N_12
REMARK                            x       y       z     vdW  Elec       q    Type
REMARK                         _______ _______ _______ _____ _____    ______ ____
ROOT
ATOM      1  C   UNL     1     -11.475  11.998  66.438  0.00  0.00    +0.212 C 
ATOM      2  O   UNL     1      -9.975  12.226  66.112  0.00  0.00    -0.434 OA
ATOM      3  C   UNL     1      -9.617  13.332  66.824  0.00  0.00    +0.409 C 
ATOM      4  O   UNL     1      -8.417  13.737  66.913  0.00  0.00    -0.226 OA
ATOM      5  N   UNL     1     -10.730  14.199  66.850  0.00  0.00    -0.221 N 
ATOM      6  C   UNL     1     -11.831  13.594  66.154  0.00  0.00    +0.147 C 
ENDROOT
BRANCH   5   7
ATOM      7  C   UNL     1     -10.650  15.593  67.082  0.00  0.00    +0.057 A 
ATOM      8  C   UNL     1     -10.957  16.189  68.292  0.00  0.00    +0.016 A 
ATOM      9  C   UNL     1     -10.194  17.258  68.716  0.00  0.00    +0.016 A 
ATOM     10  C   UNL     1      -9.342  17.876  67.810  0.00  0.00    +0.054 A 
ATOM     11  C   UNL     1      -9.606  17.636  66.471  0.00  0.00    +0.016 A 
ATOM     12  C   UNL     1     -10.268  16.477  66.080  0.00  0.00    +0.016 A 
BRANCH  10  13
ATOM     13  N   UNL     1      -8.667  19.059  68.251  0.00  0.00    -0.254 N 
ATOM     14  C   UNL     1      -7.361  18.913  68.829  0.00  0.00    +0.260 C 
ATOM     15  O   UNL     1      -6.901  17.767  69.124  0.00  0.00    -0.272 OA
ATOM     16  C   UNL     1      -6.462  20.096  68.637  0.00  0.00    +0.228 C 
ATOM     17  O   UNL     1      -6.346  20.371  67.293  0.00  0.00    -0.343 OA
ATOM     18  C   UNL     1      -7.468  20.140  66.539  0.00  0.00    +0.165 C 
ATOM     19  C   UNL     1      -8.762  20.191  67.329  0.00  0.00    +0.130 C 
ENDBRANCH  10  13
ENDBRANCH   5   7
BRANCH   1  20
ATOM     20  C   UNL     1     -11.256  12.258  68.065  0.00  0.00    +0.161 C 
BRANCH  20  23
ATOM     21  O   UNL     1     -12.229  12.209  70.633  0.00  0.00    -0.268 OA
ATOM     22  C   UNL     1     -12.362  11.194  70.069  0.00  0.00    +0.271 C 
ATOM     23  N   UNL     1     -12.076  11.205  68.663  0.00  0.00    -0.197 NA
BRANCH  22  24
ATOM     24  C   UNL     1     -12.205   9.977  70.879  0.00  0.00    +0.085 A 
ATOM     25  S   UNL     1     -10.746   9.179  71.314  0.00  0.00    -0.071 S 
ATOM     26  C   UNL     1     -11.373   8.036  72.429  0.00  0.00    +0.087 A 
ATOM     27 CL   UNL     1     -10.593   6.977  73.582  0.00  0.00    -0.075 Cl
ATOM     28  C   UNL     1     -12.737   8.236  72.248  0.00  0.00    +0.019 A 
ATOM     29  C   UNL     1     -13.021   9.526  71.910  0.00  0.00    +0.012 A 
ENDBRANCH  22  24
ENDBRANCH  20  23
ENDBRANCH   1  20
TORSDOF 5
ENDMDL
MODEL 2
REMARK VINA RESULT:      -7.3      4.292      6.350
REMARK  Name = 
REMARK  5 active torsions:
REMARK  status: ('A' for Active; 'I' for Inactive)
REMARK    1  A    between atoms: C_2  and  C_24
REMARK    2  A    between atoms: N_3  and  C_4
REMARK    3  A    between atoms: C_4  and  C_5
REMARK    4  A    between atoms: N_7  and  C_8
REMARK    5  A    between atoms: C_11  and  N_12
REMARK                            x       y       z     vdW  Elec       q    Type
REMARK                         _______ _______ _______ _____ _____    ______ ____
ROOT
ATOM      1  C   UNL     1     -10.734  19.227  67.177  0.00  0.00    +0.212 C 
ATOM      2  O   UNL     1     -10.099  18.535  65.942  0.00  0.00    -0.434 OA
ATOM      3  C   UNL     1      -8.832  18.209  66.324  0.00  0.00    +0.409 C 
ATOM      4  O   UNL     1      -8.056  17.500  65.612  0.00  0.00    -0.226 OA
ATOM      5  N   UNL     1      -8.374  19.227  67.188  0.00  0.00    -0.221 N 
ATOM      6  C   UNL     1      -9.408  20.205  67.373  0.00  0.00    +0.147 C 
ENDROOT
BRANCH   5   7
ATOM      7  C   UNL     1      -7.009  19.504  67.441  0.00  0.00    +0.057 A 
ATOM      8  C   UNL     1      -6.378  20.671  67.050  0.00  0.00    +0.016 A 
ATOM      9  C   UNL     1      -5.438  21.230  67.893  0.00  0.00    +0.016 A 
ATOM     10  C   UNL     1      -4.954  20.474  68.953  0.00  0.00    +0.054 A 
ATOM     11  C   UNL     1      -5.146  19.105  68.857  0.00  0.00    +0.016 A 
ATOM     12  C   UNL     1      -6.189  18.592  68.095  0.00  0.00    +0.016 A 
BRANCH  10  13
ATOM     13  N   UNL     1      -3.888  21.040  69.724  0.00  0.00    -0.254 N 
ATOM     14  C   UNL     1      -4.058  21.122  71.147  0.00  0.00    +0.260 C 
ATOM     15  O   UNL     1      -5.183  20.890  71.686  0.00  0.00    -0.272 OA
ATOM     16  C   UNL     1      -2.782  21.049  71.929  0.00  0.00    +0.228 C 
ATOM     17  O   UNL     1      -2.112  19.890  71.609  0.00  0.00    -0.343 OA
ATOM     18  C   UNL     1      -2.229  19.475  70.306  0.00  0.00    +0.165 C 
ATOM     19  C   UNL     1      -2.552  20.592  69.331  0.00  0.00    +0.130 C 
ENDBRANCH  10  13
ENDBRANCH   5   7
BRANCH   1  20
ATOM     20  C   UNL     1     -10.143  18.088  68.234  0.00  0.00    +0.161 C 
BRANCH  20  23
ATOM     21  O   UNL     1      -9.575  15.404  68.381  0.00  0.00    -0.268 OA
ATOM     22  C   UNL     1     -10.649  15.628  67.977  0.00  0.00    +0.271 C 
ATOM     23  N   UNL     1     -11.094  16.988  68.073  0.00  0.00    -0.197 NA
BRANCH  22  24
ATOM     24  C   UNL     1     -11.150  14.725  66.931  0.00  0.00    +0.085 A 
ATOM     25  S   UNL     1     -10.707  14.684  65.270  0.00  0.00    -0.071 S 
ATOM     26  C   UNL     1     -11.512  13.244  64.801  0.00  0.00    +0.087 A 
ATOM     27 CL   UNL     1     -11.408  12.263  63.356  0.00  0.00    -0.075 Cl
ATOM     28  C   UNL     1     -12.241  12.979  65.955  0.00  0.00    +0.019 A 
ATOM     29  C   UNL     1     -11.596  13.416  67.074  0.00  0.00    +0.012 A 
ENDBRANCH  22  24
ENDBRANCH  20  23
ENDBRANCH   1  20
TORSDOF 5
ENDMDL
MODEL 3
REMARK VINA RESULT:      -7.3      4.762      5.691
REMARK  Name = 
REMARK  5 active torsions:
REMARK  status: ('A' for Active; 'I' for Inactive)
REMARK    1  A    between atoms: C_2  and  C_24
REMARK    2  A    between atoms: N_3  and  C_4
REMARK    3  A    between atoms: C_4  and  C_5
REMARK    4  A    between atoms: N_7  and  C_8
REMARK    5  A    between atoms: C_11  and  N_12
REMARK                            x       y       z     vdW  Elec       q    Type
REMARK                         _______ _______ _______ _____ _____    ______ ____
ROOT
ATOM      1  C   UNL     1     -12.441  13.377  64.789  0.00  0.00    +0.212 C 
ATOM      2  O   UNL     1     -12.646  14.811  64.233  0.00  0.00    -0.434 OA
ATOM      3  C   UNL     1     -11.516  15.494  64.575  0.00  0.00    +0.409 C 
ATOM      4  O   UNL     1     -11.268  16.668  64.163  0.00  0.00    -0.226 OA
ATOM      5  N   UNL     1     -11.091  15.009  65.830  0.00  0.00    -0.221 N 
ATOM      6  C   UNL     1     -11.973  13.964  66.269  0.00  0.00    +0.147 C 
ENDROOT
BRANCH   5   7
ATOM      7  C   UNL     1     -10.258  15.726  66.722  0.00  0.00    +0.057 A 
ATOM      8  C   UNL     1      -8.912  15.954  66.499  0.00  0.00    +0.016 A 
ATOM      9  C   UNL     1      -8.376  17.171  66.870  0.00  0.00    +0.016 A 
ATOM     10  C   UNL     1      -9.117  18.006  67.697  0.00  0.00    +0.054 A 
ATOM     11  C   UNL     1     -10.147  17.402  68.400  0.00  0.00    +0.016 A 
ATOM     12  C   UNL     1     -10.744  16.243  67.917  0.00  0.00    +0.016 A 
BRANCH  10  13
ATOM     13  N   UNL     1      -8.474  19.197  68.164  0.00  0.00    -0.254 N 
ATOM     14  C   UNL     1      -7.234  19.059  68.873  0.00  0.00    +0.260 C 
ATOM     15  O   UNL     1      -6.818  17.920  69.248  0.00  0.00    -0.272 OA
ATOM     16  C   UNL     1      -6.306  20.227  68.731  0.00  0.00    +0.228 C 
ATOM     17  O   UNL     1      -6.055  20.456  67.397  0.00  0.00    -0.343 OA
ATOM     18  C   UNL     1      -7.101  20.210  66.544  0.00  0.00    +0.165 C 
ATOM     19  C   UNL     1      -8.465  20.299  67.201  0.00  0.00    +0.130 C 
ENDBRANCH  10  13
ENDBRANCH   5   7
BRANCH   1  20
ATOM     20  C   UNL     1     -10.874  13.290  64.243  0.00  0.00    +0.161 C 
BRANCH  20  23
ATOM     21  O   UNL     1     -10.051  10.781  65.000  0.00  0.00    -0.268 OA
ATOM     22  C   UNL     1     -10.261  10.872  63.854  0.00  0.00    +0.271 C 
ATOM     23  N   UNL     1     -10.896  12.083  63.418  0.00  0.00    -0.197 NA
BRANCH  22  24
ATOM     24  C   UNL     1      -9.374  10.105  62.968  0.00  0.00    +0.085 A 
ATOM     25  S   UNL     1      -8.380  10.698  61.697  0.00  0.00    -0.071 S 
ATOM     26  C   UNL     1      -7.503   9.269  61.336  0.00  0.00    +0.087 A 
ATOM     27 CL   UNL     1      -6.078   8.985  60.363  0.00  0.00    -0.075 Cl
ATOM     28  C   UNL     1      -8.187   8.352  62.126  0.00  0.00    +0.019 A 
ATOM     29  C   UNL     1      -8.689   8.929  63.255  0.00  0.00    +0.012 A 
ENDBRANCH  22  24
ENDBRANCH  20  23
ENDBRANCH   1  20
TORSDOF 5
ENDMDL
MODEL 4
REMARK VINA RESULT:      -7.2      4.092      9.285
REMARK  Name = 
REMARK  5 active torsions:
REMARK  status: ('A' for Active; 'I' for Inactive)
REMARK    1  A    between atoms: C_2  and  C_24
REMARK    2  A    between atoms: N_3  and  C_4
REMARK    3  A    between atoms: C_4  and  C_5
REMARK    4  A    between atoms: N_7  and  C_8
REMARK    5  A    between atoms: C_11  and  N_12
REMARK                            x       y       z     vdW  Elec       q    Type
REMARK                         _______ _______ _______ _____ _____    ______ ____
ROOT
ATOM      1  C   UNL     1      -9.646  15.515  65.810  0.00  0.00    +0.212 C 
ATOM      2  O   UNL     1     -10.779  14.945  64.916  0.00  0.00    -0.434 OA
ATOM      3  C   UNL     1     -11.707  14.450  65.783  0.00  0.00    +0.409 C 
ATOM      4  O   UNL     1     -12.844  14.026  65.410  0.00  0.00    -0.226 OA
ATOM      5  N   UNL     1     -11.012  13.924  66.892  0.00  0.00    -0.221 N 
ATOM      6  C   UNL     1      -9.601  14.129  66.721  0.00  0.00    +0.147 C 
ENDROOT
BRANCH   5   7
ATOM      7  C   UNL     1     -11.538  12.949  67.774  0.00  0.00    +0.057 A 
ATOM      8  C   UNL     1     -11.605  11.601  67.476  0.00  0.00    +0.016 A 
ATOM      9  C   UNL     1     -11.363  10.687  68.482  0.00  0.00    +0.016 A 
ATOM     10  C   UNL     1     -11.342  11.129  69.799  0.00  0.00    +0.054 A 
ATOM     11  C   UNL     1     -11.947  12.353  70.035  0.00  0.00    +0.016 A 
ATOM     12  C   UNL     1     -12.053  13.295  69.018  0.00  0.00    +0.016 A 
BRANCH  10  13
ATOM     13  N   UNL     1     -11.219  10.132  70.820  0.00  0.00    -0.254 N 
ATOM     14  C   UNL     1     -12.418   9.498  71.288  0.00  0.00    +0.260 C 
ATOM     15  O   UNL     1     -13.563   9.938  70.959  0.00  0.00    -0.272 OA
ATOM     16  C   UNL     1     -12.227   8.095  71.777  0.00  0.00    +0.228 C 
ATOM     17  O   UNL     1     -11.659   7.334  70.781  0.00  0.00    -0.343 OA
ATOM     18  C   UNL     1     -10.762   7.985  69.972  0.00  0.00    +0.165 C 
ATOM     19  C   UNL     1     -10.114   9.194  70.621  0.00  0.00    +0.130 C 
ENDBRANCH  10  13
ENDBRANCH   5   7
BRANCH   1  20
ATOM     20  C   UNL     1     -10.713  16.254  66.849  0.00  0.00    +0.161 C 
BRANCH  20  23
ATOM     21  O   UNL     1     -10.937  18.879  67.625  0.00  0.00    -0.268 OA
ATOM     22  C   UNL     1      -9.923  18.390  67.936  0.00  0.00    +0.271 C 
ATOM     23  N   UNL     1      -9.819  16.971  67.758  0.00  0.00    -0.197 NA
BRANCH  22  24
ATOM     24  C   UNL     1      -8.740  19.262  67.887  0.00  0.00    +0.085 A 
ATOM     25  S   UNL     1      -7.370  19.244  68.925  0.00  0.00    -0.071 S 
ATOM     26  C   UNL     1      -6.366  20.350  68.084  0.00  0.00    +0.087 A 
ATOM     27 CL   UNL     1      -4.671  20.750  68.248  0.00  0.00    -0.075 Cl
ATOM     28  C   UNL     1      -7.257  20.812  67.121  0.00  0.00    +0.019 A 
ATOM     29  C   UNL     1      -8.164  19.857  66.770  0.00  0.00    +0.012 A 
ENDBRANCH  22  24
ENDBRANCH  20  23
ENDBRANCH   1  20
TORSDOF 5
ENDMDL
MODEL 5
REMARK VINA RESULT:      -7.2      4.239      9.354
REMARK  Name = 
REMARK  5 active torsions:
REMARK  status: ('A' for Active; 'I' for Inactive)
REMARK    1  A    between atoms: C_2  and  C_24
REMARK    2  A    between atoms: N_3  and  C_4
REMARK    3  A    between atoms: C_4  and  C_5
REMARK    4  A    between atoms: N_7  and  C_8
REMARK    5  A    between atoms: C_11  and  N_12
REMARK                            x       y       z     vdW  Elec       q    Type
REMARK                         _______ _______ _______ _____ _____    ______ ____
ROOT
ATOM      1  C   UNL     1      -9.426  14.218  66.423  0.00  0.00    +0.212 C 
ATOM      2  O   UNL     1     -10.553  13.740  65.469  0.00  0.00    -0.434 OA
ATOM      3  C   UNL     1     -11.382  12.983  66.243  0.00  0.00    +0.409 C 
ATOM      4  O   UNL     1     -12.496  12.537  65.830  0.00  0.00    -0.226 OA
ATOM      5  N   UNL     1     -10.580  12.307  67.187  0.00  0.00    -0.221 N 
ATOM      6  C   UNL     1      -9.205  12.683  67.012  0.00  0.00    +0.147 C 
ENDROOT
BRANCH   5   7
ATOM      7  C   UNL     1     -10.965  11.120  67.857  0.00  0.00    +0.057 A 
ATOM      8  C   UNL     1     -10.715   9.850  67.373  0.00  0.00    +0.016 A 
ATOM      9  C   UNL     1     -10.379   8.854  68.268  0.00  0.00    +0.016 A 
ATOM     10  C   UNL     1     -10.575   9.078  69.625  0.00  0.00    +0.054 A 
ATOM     11  C   UNL     1     -11.446  10.106  69.949  0.00  0.00    +0.016 A 
ATOM     12  C   UNL     1     -11.655  11.157  69.064  0.00  0.00    +0.016 A 
BRANCH  10  13
ATOM     13  N   UNL     1     -10.337   7.977  70.509  0.00  0.00    -0.254 N 
ATOM     14  C   UNL     1      -9.315   8.123  71.506  0.00  0.00    +0.260 C 
ATOM     15  O   UNL     1      -8.515   9.108  71.483  0.00  0.00    -0.272 OA
ATOM     16  C   UNL     1      -9.550   7.330  72.755  0.00  0.00    +0.228 C 
ATOM     17  O   UNL     1     -10.771   7.668  73.292  0.00  0.00    -0.343 OA
ATOM     18  C   UNL     1     -11.757   7.966  72.385  0.00  0.00    +0.165 C 
ATOM     19  C   UNL     1     -11.549   7.337  71.021  0.00  0.00    +0.130 C 
ENDBRANCH  10  13
ENDBRANCH   5   7
BRANCH   1  20
ATOM     20  C   UNL     1     -10.493  14.611  67.636  0.00  0.00    +0.161 C 
BRANCH  20  23
ATOM     21  O   UNL     1     -11.587  17.001  68.432  0.00  0.00    -0.268 OA
ATOM     22  C   UNL     1     -10.422  16.976  68.515  0.00  0.00    +0.271 C 
ATOM     23  N   UNL     1      -9.798  15.699  68.323  0.00  0.00    -0.197 NA
BRANCH  22  24
ATOM     24  C   UNL     1      -9.722  18.231  68.204  0.00  0.00    +0.085 A 
ATOM     25  S   UNL     1      -8.034  18.546  68.283  0.00  0.00    -0.071 S 
ATOM     26  C   UNL     1      -8.003  20.096  67.550  0.00  0.00    +0.087 A 
ATOM     27 CL   UNL     1      -6.687  21.083  66.955  0.00  0.00    -0.075 Cl
ATOM     28  C   UNL     1      -9.367  20.352  67.454  0.00  0.00    +0.019 A 
ATOM     29  C   UNL     1     -10.087  19.207  67.284  0.00  0.00    +0.012 A 
ENDBRANCH  22  24
ENDBRANCH  20  23
ENDBRANCH   1  20
TORSDOF 5
ENDMDL
MODEL 6
REMARK VINA RESULT:      -7.1      2.620      3.324
REMARK  Name = 
REMARK  5 active torsions:
REMARK  status: ('A' for Active; 'I' for Inactive)
REMARK    1  A    between atoms: C_2  and  C_24
REMARK    2  A    between atoms: N_3  and  C_4
REMARK    3  A    between atoms: C_4  and  C_5
REMARK    4  A    between atoms: N_7  and  C_8
REMARK    5  A    between atoms: C_11  and  N_12
REMARK                            x       y       z     vdW  Elec       q    Type
REMARK                         _______ _______ _______ _____ _____    ______ ____
ROOT
ATOM      1  C   UNL     1     -12.153  13.461  65.405  0.00  0.00    +0.212 C 
ATOM      2  O   UNL     1     -12.597  14.706  64.593  0.00  0.00    -0.434 OA
ATOM      3  C   UNL     1     -11.528  15.550  64.615  0.00  0.00    +0.409 C 
ATOM      4  O   UNL     1     -11.476  16.618  63.931  0.00  0.00    -0.226 OA
ATOM      5  N   UNL     1     -10.899  15.405  65.870  0.00  0.00    -0.221 N 
ATOM      6  C   UNL     1     -11.586  14.410  66.643  0.00  0.00    +0.147 C 
ENDROOT
BRANCH   5   7
ATOM      7  C   UNL     1     -10.059  16.381  66.459  0.00  0.00    +0.057 A 
ATOM      8  C   UNL     1      -8.678  16.306  66.460  0.00  0.00    +0.016 A 
ATOM      9  C   UNL     1      -7.952  17.468  66.300  0.00  0.00    +0.016 A 
ATOM     10  C   UNL     1      -8.602  18.689  66.426  0.00  0.00    +0.054 A 
ATOM     11  C   UNL     1      -9.822  18.659  67.084  0.00  0.00    +0.016 A 
ATOM     12  C   UNL     1     -10.581  17.495  67.108  0.00  0.00    +0.016 A 
BRANCH  10  13
ATOM     13  N   UNL     1      -7.791  19.868  66.383  0.00  0.00    -0.254 N 
ATOM     14  C   UNL     1      -7.145  20.285  67.595  0.00  0.00    +0.260 C 
ATOM     15  O   UNL     1      -7.437  19.750  68.709  0.00  0.00    -0.272 OA
ATOM     16  C   UNL     1      -5.856  21.019  67.390  0.00  0.00    +0.228 C 
ATOM     17  O   UNL     1      -4.995  20.240  66.651  0.00  0.00    -0.343 OA
ATOM     18  C   UNL     1      -5.580  19.451  65.693  0.00  0.00    +0.165 C 
ATOM     19  C   UNL     1      -6.923  19.964  65.209  0.00  0.00    +0.130 C 
ENDBRANCH  10  13
ENDBRANCH   5   7
BRANCH   1  20
ATOM     20  C   UNL     1     -10.663  13.399  64.670  0.00  0.00    +0.161 C 
BRANCH  20  23
ATOM     21  O   UNL     1     -10.491  10.659  64.755  0.00  0.00    -0.268 OA
ATOM     22  C   UNL     1     -10.020  11.180  65.689  0.00  0.00    +0.271 C 
ATOM     23  N   UNL     1      -9.880  12.607  65.618  0.00  0.00    -0.197 NA
BRANCH  22  24
ATOM     24  C   UNL     1     -10.187  10.485  66.973  0.00  0.00    +0.085 A 
ATOM     25  S   UNL     1     -10.633  11.161  68.490  0.00  0.00    -0.071 S 
ATOM     26  C   UNL     1     -10.848   9.716  69.388  0.00  0.00    +0.087 A 
ATOM     27 CL   UNL     1     -11.565   9.408  70.954  0.00  0.00    -0.075 Cl
ATOM     28  C   UNL     1     -10.370   8.783  68.476  0.00  0.00    +0.019 A 
ATOM     29  C   UNL     1     -10.591   9.173  67.188  0.00  0.00    +0.012 A 
ENDBRANCH  22  24
ENDBRANCH  20  23
ENDBRANCH   1  20
TORSDOF 5
ENDMDL
MODEL 7
REMARK VINA RESULT:      -7.0      1.752      2.349
REMARK  Name = 
REMARK  5 active torsions:
REMARK  status: ('A' for Active; 'I' for Inactive)
REMARK    1  A    between atoms: C_2  and  C_24
REMARK    2  A    between atoms: N_3  and  C_4
REMARK    3  A    between atoms: C_4  and  C_5
REMARK    4  A    between atoms: N_7  and  C_8
REMARK    5  A    between atoms: C_11  and  N_12
REMARK                            x       y       z     vdW  Elec       q    Type
REMARK                         _______ _______ _______ _____ _____    ______ ____
ROOT
ATOM      1  C   UNL     1     -11.660  14.025  67.971  0.00  0.00    +0.212 C 
ATOM      2  O   UNL     1     -12.274  14.303  66.574  0.00  0.00    -0.434 OA
ATOM      3  C   UNL     1     -11.286  14.917  65.863  0.00  0.00    +0.409 C 
ATOM      4  O   UNL     1     -11.382  15.169  64.623  0.00  0.00    -0.226 OA
ATOM      5  N   UNL     1     -10.555  15.723  66.761  0.00  0.00    -0.221 N 
ATOM      6  C   UNL     1     -11.091  15.579  68.086  0.00  0.00    +0.147 C 
ENDROOT
BRANCH   5   7
ATOM      7  C   UNL     1      -9.765  16.833  66.375  0.00  0.00    +0.057 A 
ATOM      8  C   UNL     1     -10.264  18.112  66.217  0.00  0.00    +0.016 A 
ATOM      9  C   UNL     1      -9.484  19.181  66.610  0.00  0.00    +0.016 A 
ATOM     10  C   UNL     1      -8.138  18.965  66.882  0.00  0.00    +0.054 A 
ATOM     11  C   UNL     1      -7.597  17.799  66.364  0.00  0.00    +0.016 A 
ATOM     12  C   UNL     1      -8.408  16.701  66.104  0.00  0.00    +0.016 A 
BRANCH  10  13
ATOM     13  N   UNL     1      -7.336  20.118  67.159  0.00  0.00    -0.254 N 
ATOM     14  C   UNL     1      -6.701  20.203  68.443  0.00  0.00    +0.260 C 
ATOM     15  O   UNL     1      -6.994  19.390  69.373  0.00  0.00    -0.272 OA
ATOM     16  C   UNL     1      -5.416  20.973  68.449  0.00  0.00    +0.228 C 
ATOM     17  O   UNL     1      -4.545  20.423  67.537  0.00  0.00    -0.343 OA
ATOM     18  C   UNL     1      -5.118  19.912  66.400  0.00  0.00    +0.165 C 
ATOM     19  C   UNL     1      -6.462  20.528  66.059  0.00  0.00    +0.130 C 
ENDBRANCH  10  13
ENDBRANCH   5   7
BRANCH   1  20
ATOM     20  C   UNL     1     -10.230  13.468  67.334  0.00  0.00    +0.161 C 
BRANCH  20  23
ATOM     21  O   UNL     1     -11.156  10.899  67.035  0.00  0.00    -0.268 OA
ATOM     22  C   UNL     1     -10.620  11.081  68.057  0.00  0.00    +0.271 C 
ATOM     23  N   UNL     1      -9.925  12.328  68.198  0.00  0.00    -0.197 NA
BRANCH  22  24
ATOM     24  C   UNL     1     -11.181  10.375  69.218  0.00  0.00    +0.085 A 
ATOM     25  S   UNL     1     -10.653   8.893  69.910  0.00  0.00    -0.071 S 
ATOM     26  C   UNL     1     -11.623   8.882  71.324  0.00  0.00    +0.087 A 
ATOM     27 CL   UNL     1     -11.573   7.898  72.770  0.00  0.00    -0.075 Cl
ATOM     28  C   UNL     1     -12.448   9.972  71.068  0.00  0.00    +0.019 A 
ATOM     29  C   UNL     1     -11.814  10.925  70.328  0.00  0.00    +0.012 A 
ENDBRANCH  22  24
ENDBRANCH  20  23
ENDBRANCH   1  20
TORSDOF 5
ENDMDL
MODEL 8
REMARK VINA RESULT:      -6.9      4.281      5.701
REMARK  Name = 
REMARK  5 active torsions:
REMARK  status: ('A' for Active; 'I' for Inactive)
REMARK    1  A    between atoms: C_2  and  C_24
REMARK    2  A    between atoms: N_3  and  C_4
REMARK    3  A    between atoms: C_4  and  C_5
REMARK    4  A    between atoms: N_7  and  C_8
REMARK    5  A    between atoms: C_11  and  N_12
REMARK                            x       y       z     vdW  Elec       q    Type
REMARK                         _______ _______ _______ _____ _____    ______ ____
ROOT
ATOM      1  C   UNL     1     -10.812  15.855  67.499  0.00  0.00    +0.212 C 
ATOM      2  O   UNL     1     -11.194  17.110  68.327  0.00  0.00    -0.434 OA
ATOM      3  C   UNL     1     -10.252  18.045  68.019  0.00  0.00    +0.409 C 
ATOM      4  O   UNL     1     -10.323  19.252  68.407  0.00  0.00    -0.226 OA
ATOM      5  N   UNL     1      -9.030  17.367  67.824  0.00  0.00    -0.221 N 
ATOM      6  C   UNL     1      -9.229  15.955  67.986  0.00  0.00    +0.147 C 
ENDROOT
BRANCH   5   7
ATOM      7  C   UNL     1      -7.755  17.974  67.931  0.00  0.00    +0.057 A 
ATOM      8  C   UNL     1      -7.412  19.155  67.300  0.00  0.00    +0.016 A 
ATOM      9  C   UNL     1      -6.599  20.050  67.967  0.00  0.00    +0.016 A 
ATOM     10  C   UNL     1      -5.929  19.627  69.108  0.00  0.00    +0.054 A 
ATOM     11  C   UNL     1      -5.812  18.255  69.266  0.00  0.00    +0.016 A 
ATOM     12  C   UNL     1      -6.735  17.397  68.679  0.00  0.00    +0.016 A 
BRANCH  10  13
ATOM     13  N   UNL     1      -4.997  20.542  69.694  0.00  0.00    -0.254 N 
ATOM     14  C   UNL     1      -5.094  20.789  71.105  0.00  0.00    +0.260 C 
ATOM     15  O   UNL     1      -6.087  20.373  71.775  0.00  0.00    -0.272 OA
ATOM     16  C   UNL     1      -3.795  21.144  71.762  0.00  0.00    +0.228 C 
ATOM     17  O   UNL     1      -2.874  20.149  71.529  0.00  0.00    -0.343 OA
ATOM     18  C   UNL     1      -2.962  19.531  70.307  0.00  0.00    +0.165 C 
ATOM     19  C   UNL     1      -3.617  20.380  69.234  0.00  0.00    +0.130 C 
ENDBRANCH  10  13
ENDBRANCH   5   7
BRANCH   1  20
ATOM     20  C   UNL     1     -10.522  16.740  66.121  0.00  0.00    +0.161 C 
BRANCH  20  23
ATOM     21  O   UNL     1     -12.055  14.981  64.671  0.00  0.00    -0.268 OA
ATOM     22  C   UNL     1     -10.914  14.733  64.641  0.00  0.00    +0.271 C 
ATOM     23  N   UNL     1     -10.032  15.722  65.193  0.00  0.00    -0.197 NA
BRANCH  22  24
ATOM     24  C   UNL     1     -10.560  13.306  64.629  0.00  0.00    +0.085 A 
ATOM     25  S   UNL     1     -10.075  12.326  65.957  0.00  0.00    -0.071 S 
ATOM     26  C   UNL     1     -10.091  10.791  65.193  0.00  0.00    +0.087 A 
ATOM     27 CL   UNL     1      -9.998   9.165  65.832  0.00  0.00    -0.075 Cl
ATOM     28  C   UNL     1     -10.302  11.173  63.872  0.00  0.00    +0.019 A 
ATOM     29  C   UNL     1     -11.045  12.313  63.786  0.00  0.00    +0.012 A 
ENDBRANCH  22  24
ENDBRANCH  20  23
ENDBRANCH   1  20
TORSDOF 5
ENDMDL
MODEL 9
REMARK VINA RESULT:      -6.6      5.217      9.526
REMARK  Name = 
REMARK  5 active torsions:
REMARK  status: ('A' for Active; 'I' for Inactive)
REMARK    1  A    between atoms: C_2  and  C_24
REMARK    2  A    between atoms: N_3  and  C_4
REMARK    3  A    between atoms: C_4  and  C_5
REMARK    4  A    between atoms: N_7  and  C_8
REMARK    5  A    between atoms: C_11  and  N_12
REMARK                            x       y       z     vdW  Elec       q    Type
REMARK                         _______ _______ _______ _____ _____    ______ ____
ROOT
ATOM      1  C   UNL     1      -9.756  18.153  67.190  0.00  0.00    +0.212 C 
ATOM      2  O   UNL     1     -11.062  18.000  68.013  0.00  0.00    -0.434 OA
ATOM      3  C   UNL     1     -11.086  16.697  68.411  0.00  0.00    +0.409 C 
ATOM      4  O   UNL     1     -11.944  16.239  69.226  0.00  0.00    -0.226 OA
ATOM      5  N   UNL     1     -10.516  15.927  67.375  0.00  0.00    -0.221 N 
ATOM      6  C   UNL     1     -10.094  16.789  66.308  0.00  0.00    +0.147 C 
ENDROOT
BRANCH   5   7
ATOM      7  C   UNL     1     -10.749  14.543  67.189  0.00  0.00    +0.057 A 
ATOM      8  C   UNL     1     -11.873  14.030  66.568  0.00  0.00    +0.016 A 
ATOM      9  C   UNL     1     -11.734  12.923  65.755  0.00  0.00    +0.016 A 
ATOM     10  C   UNL     1     -10.550  12.198  65.807  0.00  0.00    +0.054 A 
ATOM     11  C   UNL     1      -9.768  12.396  66.933  0.00  0.00    +0.016 A 
ATOM     12  C   UNL     1      -9.851  13.585  67.648  0.00  0.00    +0.016 A 
BRANCH  10  13
ATOM     13  N   UNL     1     -10.495  10.985  65.047  0.00  0.00    -0.254 N 
ATOM     14  C   UNL     1     -10.054  11.065  63.684  0.00  0.00    +0.260 C 
ATOM     15  O   UNL     1      -9.908  12.187  63.108  0.00  0.00    -0.272 OA
ATOM     16  C   UNL     1      -9.377   9.828  63.178  0.00  0.00    +0.228 C 
ATOM     17  O   UNL     1      -8.310   9.522  63.992  0.00  0.00    -0.343 OA
ATOM     18  C   UNL     1      -8.478   9.805  65.325  0.00  0.00    +0.165 C 
ATOM     19  C   UNL     1      -9.929   9.844  65.767  0.00  0.00    +0.130 C 
ENDBRANCH  10  13
ENDBRANCH   5   7
BRANCH   1  20
ATOM     20  C   UNL     1      -8.850  17.305  68.296  0.00  0.00    +0.161 C 
BRANCH  20  23
ATOM     21  O   UNL     1      -7.207  19.361  69.079  0.00  0.00    -0.268 OA
ATOM     22  C   UNL     1      -6.794  18.763  68.165  0.00  0.00    +0.271 C 
ATOM     23  N   UNL     1      -7.484  17.549  67.835  0.00  0.00    -0.197 NA
BRANCH  22  24
ATOM     24  C   UNL     1      -6.079  19.545  67.146  0.00  0.00    +0.085 A 
ATOM     25  S   UNL     1      -5.918  19.199  65.469  0.00  0.00    -0.071 S 
ATOM     26  C   UNL     1      -5.191  20.662  64.950  0.00  0.00    +0.087 A 
ATOM     27 CL   UNL     1      -4.910  21.328  63.356  0.00  0.00    -0.075 Cl
ATOM     28  C   UNL     1      -4.949  21.269  66.177  0.00  0.00    +0.019 A 
ATOM     29  C   UNL     1      -5.881  20.921  67.108  0.00  0.00    +0.012 A 
ENDBRANCH  22  24
ENDBRANCH  20  23
ENDBRANCH   1  20
TORSDOF 5
ENDMDL
