MODEL 1
REMARK VINA RESULT:      -7.9      0.000      0.000
REMARK  Name = 
REMARK  5 active torsions:
REMARK  status: ('A' for Active; 'I' for Inactive)
REMARK    1  A    between atoms: C_2  and  C_3
REMARK    2  A    between atoms: C_3  and  O_5
REMARK    3  A    between atoms: O_5  and  C_6
REMARK    4  A    between atoms: C_6  and  C_7
REMARK    5  A    between atoms: C_7  and  C_9
REMARK                            x       y       z     vdW  Elec       q    Type
REMARK                         _______ _______ _______ _____ _____    ______ ____
ROOT
ATOM      1  C   UNL     1     -11.065  13.905  67.648  0.00  0.00    +0.187 C 
ATOM      2  C   UNL     1      -9.970  14.800  67.925  0.00  0.00    +0.043 C 
ATOM      3  C   UNL     1     -10.815  16.102  67.460  0.00  0.00    +0.007 C 
ATOM      4  C   UNL     1      -9.783  17.227  68.190  0.00  0.00    +0.036 C 
ATOM      5  C   UNL     1      -8.594  17.057  67.115  0.00  0.00    +0.168 C 
ATOM      6  C   UNL     1      -7.759  15.794  67.744  0.00  0.00    +0.182 C 
ATOM      7  O   UNL     1      -6.829  15.734  66.547  0.00  0.00    -0.220 OA
ATOM      8  F   UNL     1      -9.048  16.759  65.917  0.00  0.00    -0.237 F 
ATOM      9  C   UNL     1      -7.789  18.278  67.184  0.00  0.00    +0.066 C 
ATOM     10  C   UNL     1      -8.311  19.476  67.759  0.00  0.00    -0.003 C 
ATOM     11  C   UNL     1      -7.530  20.518  67.933  0.00  0.00    +0.036 C 
ATOM     12  C   UNL     1      -6.307  20.592  67.116  0.00  0.00    +0.195 C 
ATOM     13  C   UNL     1      -6.384  19.729  65.925  0.00  0.00    +0.038 C 
ATOM     14  O   UNL     1      -5.813  21.762  67.052  0.00  0.00    -0.287 OA
ATOM     15  C   UNL     1      -9.807  19.624  68.339  0.00  0.00    +0.180 C 
ATOM     16  F   UNL     1     -10.154  20.705  67.340  0.00  0.00    -0.233 F 
ATOM     17  C   UNL     1      -6.484  17.940  67.912  0.00  0.00    +0.011 C 
ATOM     18  C   UNL     1      -7.280  18.741  65.840  0.00  0.00    -0.017 C 
ATOM     19  C   UNL     1     -10.420  18.456  67.342  0.00  0.00    +0.042 C 
ATOM     20  C   UNL     1     -11.691  15.953  68.805  0.00  0.00    +0.004 C 
ATOM     21  C   UNL     1      -9.534  15.034  69.330  0.00  0.00    +0.004 C 
ATOM     22  C   UNL     1      -8.777  14.673  67.080  0.00  0.00    +0.039 C 
ATOM     23  C   UNL     1     -12.312  14.472  68.522  0.00  0.00    +0.044 C 
ATOM     24  C   UNL     1     -11.791  13.890  69.954  0.00  0.00    +0.004 C 
ENDROOT
BRANCH   1  25
ATOM     25  C   UNL     1     -10.978  12.483  67.714  0.00  0.00    +0.203 C 
ATOM     26  O   UNL     1     -11.976  11.785  67.924  0.00  0.00    -0.291 OA
BRANCH  25  27
ATOM     27  C   UNL     1      -9.763  11.624  67.915  0.00  0.00    +0.163 C 
ATOM     28 CL   UNL     1      -9.892  10.277  66.786  0.00  0.00    -0.105 Cl
ENDBRANCH  25  27
ENDBRANCH   1  25
BRANCH   1  29
ATOM     29  O   UNL     1     -11.612  14.232  66.355  0.00  0.00    -0.449 OA
BRANCH  29  30
ATOM     30  C   UNL     1     -11.683  13.250  65.364  0.00  0.00    +0.317 C 
ATOM     31  O   UNL     1     -12.858  12.983  64.963  0.00  0.00    -0.250 OA
BRANCH  30  33
ATOM     32  C   UNL     1     -10.575  12.624  63.976  0.00  0.00    +0.012 C 
ATOM     33  C   UNL     1     -10.596  12.996  64.372  0.00  0.00    +0.110 C 
ENDBRANCH  30  33
ENDBRANCH  29  30
ENDBRANCH   1  29
TORSDOF 5
ENDMDL
MODEL 2
REMARK VINA RESULT:      -6.8      1.897      3.626
REMARK  Name = 
REMARK  5 active torsions:
REMARK  status: ('A' for Active; 'I' for Inactive)
REMARK    1  A    between atoms: C_2  and  C_3
REMARK    2  A    between atoms: C_3  and  O_5
REMARK    3  A    between atoms: O_5  and  C_6
REMARK    4  A    between atoms: C_6  and  C_7
REMARK    5  A    between atoms: C_7  and  C_9
REMARK                            x       y       z     vdW  Elec       q    Type
REMARK                         _______ _______ _______ _____ _____    ______ ____
ROOT
ATOM      1  C   UNL     1     -10.495  13.782  67.715  0.00  0.00    +0.187 C 
ATOM      2  C   UNL     1      -9.933  14.966  67.116  0.00  0.00    +0.043 C 
ATOM      3  C   UNL     1      -8.728  15.036  68.198  0.00  0.00    +0.007 C 
ATOM      4  C   UNL     1      -7.770  16.100  67.296  0.00  0.00    +0.036 C 
ATOM      5  C   UNL     1      -8.691  17.394  67.568  0.00  0.00    +0.168 C 
ATOM      6  C   UNL     1      -9.795  17.273  66.361  0.00  0.00    +0.182 C 
ATOM      7  O   UNL     1     -10.591  18.452  66.887  0.00  0.00    -0.220 OA
ATOM      8  F   UNL     1      -9.284  17.345  68.742  0.00  0.00    -0.237 F 
ATOM      9  C   UNL     1      -7.841  18.567  67.356  0.00  0.00    +0.066 C 
ATOM     10  C   UNL     1      -6.417  18.460  67.381  0.00  0.00    -0.003 C 
ATOM     11  C   UNL     1      -5.673  19.494  67.056  0.00  0.00    +0.036 C 
ATOM     12  C   UNL     1      -6.292  20.828  67.144  0.00  0.00    +0.195 C 
ATOM     13  C   UNL     1      -7.486  20.829  68.005  0.00  0.00    +0.038 C 
ATOM     14  O   UNL     1      -5.444  21.774  67.189  0.00  0.00    -0.287 OA
ATOM     15  C   UNL     1      -5.617  17.093  67.676  0.00  0.00    +0.180 C 
ATOM     16  F   UNL     1      -4.961  17.670  68.910  0.00  0.00    -0.233 F 
ATOM     17  C   UNL     1      -8.239  19.202  66.020  0.00  0.00    +0.011 C 
ATOM     18  C   UNL     1      -8.113  19.693  68.324  0.00  0.00    -0.017 C 
ATOM     19  C   UNL     1      -6.841  16.450  68.581  0.00  0.00    +0.042 C 
ATOM     20  C   UNL     1      -8.073  13.751  67.476  0.00  0.00    +0.004 C 
ATOM     21  C   UNL     1      -9.310  14.896  65.764  0.00  0.00    +0.004 C 
ATOM     22  C   UNL     1     -10.728  16.197  67.200  0.00  0.00    +0.039 C 
ATOM     23  C   UNL     1      -9.289  12.693  67.723  0.00  0.00    +0.044 C 
ATOM     24  C   UNL     1      -9.392  12.318  66.138  0.00  0.00    +0.004 C 
ENDROOT
BRANCH   1  25
ATOM     25  C   UNL     1     -11.734  13.194  67.324  0.00  0.00    +0.203 C 
ATOM     26  O   UNL     1     -11.993  12.011  67.573  0.00  0.00    -0.291 OA
BRANCH  25  27
ATOM     27  C   UNL     1     -12.726  13.681  66.307  0.00  0.00    +0.163 C 
ATOM     28 CL   UNL     1     -12.613  12.600  64.919  0.00  0.00    -0.105 Cl
ENDBRANCH  25  27
ENDBRANCH   1  25
BRANCH   1  29
ATOM     29  O   UNL     1     -10.552  13.970  69.143  0.00  0.00    -0.449 OA
BRANCH  29  30
ATOM     30  C   UNL     1     -11.789  14.136  69.771  0.00  0.00    +0.317 C 
ATOM     31  O   UNL     1     -12.132  13.178  70.531  0.00  0.00    -0.250 OA
BRANCH  30  33
ATOM     32  C   UNL     1     -12.417  15.701  70.610  0.00  0.00    +0.012 C 
ATOM     33  C   UNL     1     -12.367  15.467  70.121  0.00  0.00    +0.110 C 
ENDBRANCH  30  33
ENDBRANCH  29  30
ENDBRANCH   1  29
TORSDOF 5
ENDMDL
MODEL 3
REMARK VINA RESULT:      -6.7      3.145      7.928
REMARK  Name = 
REMARK  5 active torsions:
REMARK  status: ('A' for Active; 'I' for Inactive)
REMARK    1  A    between atoms: C_2  and  C_3
REMARK    2  A    between atoms: C_3  and  O_5
REMARK    3  A    between atoms: O_5  and  C_6
REMARK    4  A    between atoms: C_6  and  C_7
REMARK    5  A    between atoms: C_7  and  C_9
REMARK                            x       y       z     vdW  Elec       q    Type
REMARK                         _______ _______ _______ _____ _____    ______ ____
ROOT
ATOM      1  C   UNL     1      -4.591  20.419  68.149  0.00  0.00    +0.187 C 
ATOM      2  C   UNL     1      -5.303  19.245  67.711  0.00  0.00    +0.043 C 
ATOM      3  C   UNL     1      -6.742  19.979  67.828  0.00  0.00    +0.007 C 
ATOM      4  C   UNL     1      -7.575  18.840  66.893  0.00  0.00    +0.036 C 
ATOM      5  C   UNL     1      -7.566  17.689  68.020  0.00  0.00    +0.168 C 
ATOM      6  C   UNL     1      -6.127  16.958  67.735  0.00  0.00    +0.182 C 
ATOM      7  O   UNL     1      -6.274  16.056  68.945  0.00  0.00    -0.220 OA
ATOM      8  F   UNL     1      -7.597  18.185  69.239  0.00  0.00    -0.237 F 
ATOM      9  C   UNL     1      -8.666  16.777  67.698  0.00  0.00    +0.066 C 
ATOM     10  C   UNL     1      -9.734  17.183  66.841  0.00  0.00    -0.003 C 
ATOM     11  C   UNL     1     -10.638  16.310  66.457  0.00  0.00    +0.036 C 
ATOM     12  C   UNL     1     -10.802  15.099  67.279  0.00  0.00    +0.195 C 
ATOM     13  C   UNL     1     -10.252  15.270  68.634  0.00  0.00    +0.038 C 
ATOM     14  O   UNL     1     -11.909  14.505  67.086  0.00  0.00    -0.287 OA
ATOM     15  C   UNL     1      -9.863  18.651  66.189  0.00  0.00    +0.180 C 
ATOM     16  F   UNL     1     -11.174  18.916  66.895  0.00  0.00    -0.233 F 
ATOM     17  C   UNL     1      -8.060  15.496  67.118  0.00  0.00    +0.011 C 
ATOM     18  C   UNL     1      -9.389  16.251  68.915  0.00  0.00    -0.017 C 
ATOM     19  C   UNL     1      -9.017  19.380  67.408  0.00  0.00    +0.042 C 
ATOM     20  C   UNL     1      -6.352  20.843  66.524  0.00  0.00    +0.004 C 
ATOM     21  C   UNL     1      -5.162  18.767  66.306  0.00  0.00    +0.004 C 
ATOM     22  C   UNL     1      -5.280  18.081  68.604  0.00  0.00    +0.039 C 
ATOM     23  C   UNL     1      -5.036  21.597  67.122  0.00  0.00    +0.044 C 
ATOM     24  C   UNL     1      -4.093  21.106  65.884  0.00  0.00    +0.004 C 
ENDROOT
BRANCH   1  25
ATOM     25  C   UNL     1      -3.191  20.456  68.419  0.00  0.00    +0.203 C 
ATOM     26  O   UNL     1      -2.573  21.526  68.475  0.00  0.00    -0.291 OA
BRANCH  25  27
ATOM     27  C   UNL     1      -2.185  19.346  68.322  0.00  0.00    +0.163 C 
ATOM     28 CL   UNL     1      -1.939  18.729  69.954  0.00  0.00    -0.105 Cl
ENDBRANCH  25  27
ENDBRANCH   1  25
BRANCH   1  29
ATOM     29  O   UNL     1      -5.256  20.956  69.309  0.00  0.00    -0.449 OA
BRANCH  29  30
ATOM     30  C   UNL     1      -4.658  20.843  70.566  0.00  0.00    +0.317 C 
ATOM     31  O   UNL     1      -4.295  21.944  71.083  0.00  0.00    -0.250 OA
BRANCH  30  33
ATOM     32  C   UNL     1      -5.450  19.634  71.774  0.00  0.00    +0.012 C 
ATOM     33  C   UNL     1      -4.974  19.754  71.537  0.00  0.00    +0.110 C 
ENDBRANCH  30  33
ENDBRANCH  29  30
ENDBRANCH   1  29
TORSDOF 5
ENDMDL
MODEL 4
REMARK VINA RESULT:      -6.7      2.709      7.141
REMARK  Name = 
REMARK  5 active torsions:
REMARK  status: ('A' for Active; 'I' for Inactive)
REMARK    1  A    between atoms: C_2  and  C_3
REMARK    2  A    between atoms: C_3  and  O_5
REMARK    3  A    between atoms: O_5  and  C_6
REMARK    4  A    between atoms: C_6  and  C_7
REMARK    5  A    between atoms: C_7  and  C_9
REMARK                            x       y       z     vdW  Elec       q    Type
REMARK                         _______ _______ _______ _____ _____    ______ ____
ROOT
ATOM      1  C   UNL     1      -8.084  19.218  67.814  0.00  0.00    +0.187 C 
ATOM      2  C   UNL     1      -8.501  17.947  67.280  0.00  0.00    +0.043 C 
ATOM      3  C   UNL     1      -9.479  17.651  68.537  0.00  0.00    +0.007 C 
ATOM      4  C   UNL     1     -10.350  16.419  67.770  0.00  0.00    +0.036 C 
ATOM      5  C   UNL     1      -9.169  15.327  67.856  0.00  0.00    +0.168 C 
ATOM      6  C   UNL     1      -8.318  15.653  66.493  0.00  0.00    +0.182 C 
ATOM      7  O   UNL     1      -7.238  14.651  66.853  0.00  0.00    -0.220 OA
ATOM      8  F   UNL     1      -8.415  15.493  68.921  0.00  0.00    -0.237 F 
ATOM      9  C   UNL     1      -9.804  14.012  67.749  0.00  0.00    +0.066 C 
ATOM     10  C   UNL     1     -11.199  13.843  68.003  0.00  0.00    -0.003 C 
ATOM     11  C   UNL     1     -11.776  12.685  67.772  0.00  0.00    +0.036 C 
ATOM     12  C   UNL     1     -10.909  11.495  67.724  0.00  0.00    +0.195 C 
ATOM     13  C   UNL     1      -9.614  11.726  68.384  0.00  0.00    +0.038 C 
ATOM     14  O   UNL     1     -11.543  10.404  67.877  0.00  0.00    -0.287 OA
ATOM     15  C   UNL     1     -12.186  15.033  68.459  0.00  0.00    +0.180 C 
ATOM     16  F   UNL     1     -12.512  14.345  69.766  0.00  0.00    -0.233 F 
ATOM     17  C   UNL     1      -9.513  13.461  66.351  0.00  0.00    +0.011 C 
ATOM     18  C   UNL     1      -9.170  12.963  68.631  0.00  0.00    -0.017 C 
ATOM     19  C   UNL     1     -10.977  15.902  69.176  0.00  0.00    +0.042 C 
ATOM     20  C   UNL     1     -10.474  18.783  67.965  0.00  0.00    +0.004 C 
ATOM     21  C   UNL     1      -9.335  17.891  66.046  0.00  0.00    +0.004 C 
ATOM     22  C   UNL     1      -7.483  16.892  67.202  0.00  0.00    +0.039 C 
ATOM     23  C   UNL     1      -9.457  20.056  68.044  0.00  0.00    +0.044 C 
ATOM     24  C   UNL     1      -9.685  20.439  66.474  0.00  0.00    +0.004 C 
ENDROOT
BRANCH   1  25
ATOM     25  C   UNL     1      -7.059  20.032  67.247  0.00  0.00    +0.203 C 
ATOM     26  O   UNL     1      -7.098  21.265  67.325  0.00  0.00    -0.291 OA
BRANCH  25  27
ATOM     27  C   UNL     1      -6.030  19.666  66.216  0.00  0.00    +0.163 C 
ATOM     28 CL   UNL     1      -6.528  20.419  64.703  0.00  0.00    -0.105 Cl
ENDBRANCH  25  27
ENDBRANCH   1  25
BRANCH   1  29
ATOM     29  O   UNL     1      -7.762  19.050  69.209  0.00  0.00    -0.449 OA
BRANCH  29  30
ATOM     30  C   UNL     1      -6.477  19.351  69.666  0.00  0.00    +0.317 C 
ATOM     31  O   UNL     1      -6.411  20.352  70.444  0.00  0.00    -0.250 OA
BRANCH  30  33
ATOM     32  C   UNL     1      -5.414  17.868  70.130  0.00  0.00    +0.012 C 
ATOM     33  C   UNL     1      -5.402  18.331  69.843  0.00  0.00    +0.110 C 
ENDBRANCH  30  33
ENDBRANCH  29  30
ENDBRANCH   1  29
TORSDOF 5
ENDMDL
MODEL 5
REMARK VINA RESULT:      -6.4      3.367      7.307
REMARK  Name = 
REMARK  5 active torsions:
REMARK  status: ('A' for Active; 'I' for Inactive)
REMARK    1  A    between atoms: C_2  and  C_3
REMARK    2  A    between atoms: C_3  and  O_5
REMARK    3  A    between atoms: O_5  and  C_6
REMARK    4  A    between atoms: C_6  and  C_7
REMARK    5  A    between atoms: C_7  and  C_9
REMARK                            x       y       z     vdW  Elec       q    Type
REMARK                         _______ _______ _______ _____ _____    ______ ____
ROOT
ATOM      1  C   UNL     1      -9.646  15.972  67.028  0.00  0.00    +0.187 C 
ATOM      2  C   UNL     1      -9.745  14.737  67.762  0.00  0.00    +0.043 C 
ATOM      3  C   UNL     1      -8.754  13.960  66.742  0.00  0.00    +0.007 C 
ATOM      4  C   UNL     1      -8.447  12.661  67.782  0.00  0.00    +0.036 C 
ATOM      5  C   UNL     1      -9.897  11.982  67.602  0.00  0.00    +0.168 C 
ATOM      6  C   UNL     1     -10.773  12.765  68.745  0.00  0.00    +0.182 C 
ATOM      7  O   UNL     1     -12.060  12.095  68.306  0.00  0.00    -0.220 OA
ATOM      8  F   UNL     1     -10.401  12.197  66.406  0.00  0.00    -0.237 F 
ATOM      9  C   UNL     1      -9.746  10.571  67.963  0.00  0.00    +0.066 C 
ATOM     10  C   UNL     1      -8.462   9.947  67.985  0.00  0.00    -0.003 C 
ATOM     11  C   UNL     1      -8.333   8.721  68.440  0.00  0.00    +0.036 C 
ATOM     12  C   UNL     1      -9.538   7.875  68.459  0.00  0.00    +0.195 C 
ATOM     13  C   UNL     1     -10.584   8.381  67.554  0.00  0.00    +0.038 C 
ATOM     14  O   UNL     1      -9.281   6.633  68.541  0.00  0.00    -0.287 OA
ATOM     15  C   UNL     1      -7.088  10.690  67.589  0.00  0.00    +0.180 C 
ATOM     16  F   UNL     1      -6.829   9.736  66.445  0.00  0.00    -0.233 F 
ATOM     17  C   UNL     1     -10.390  10.365  69.337  0.00  0.00    +0.011 C 
ATOM     18  C   UNL     1     -10.561   9.638  67.099  0.00  0.00    -0.017 C 
ATOM     19  C   UNL     1      -7.837  11.761  66.577  0.00  0.00    +0.042 C 
ATOM     20  C   UNL     1      -7.532  14.813  67.359  0.00  0.00    +0.004 C 
ATOM     21  C   UNL     1      -9.151  14.628  69.125  0.00  0.00    +0.004 C 
ATOM     22  C   UNL     1     -11.052  14.069  67.768  0.00  0.00    +0.039 C 
ATOM     23  C   UNL     1      -8.057  16.304  66.961  0.00  0.00    +0.044 C 
ATOM     24  C   UNL     1      -7.934  16.845  68.496  0.00  0.00    +0.004 C 
ENDROOT
BRANCH   1  25
ATOM     25  C   UNL     1     -10.417  17.139  67.309  0.00  0.00    +0.203 C 
ATOM     26  O   UNL     1     -11.461  17.079  67.968  0.00  0.00    -0.291 OA
BRANCH  25  27
ATOM     27  C   UNL     1     -10.374  18.480  66.633  0.00  0.00    +0.163 C 
ATOM     28 CL   UNL     1     -10.230  19.692  67.904  0.00  0.00    -0.105 Cl
ENDBRANCH  25  27
ENDBRANCH   1  25
BRANCH   1  29
ATOM     29  O   UNL     1      -9.811  15.690  65.624  0.00  0.00    -0.449 OA
BRANCH  29  30
ATOM     30  C   UNL     1     -11.073  15.801  65.037  0.00  0.00    +0.317 C 
ATOM     31  O   UNL     1     -11.193  16.757  64.211  0.00  0.00    -0.250 OA
BRANCH  30  33
ATOM     32  C   UNL     1     -12.074  14.361  64.350  0.00  0.00    +0.012 C 
ATOM     33  C   UNL     1     -11.984  14.640  64.809  0.00  0.00    +0.110 C 
ENDBRANCH  30  33
ENDBRANCH  29  30
ENDBRANCH   1  29
TORSDOF 5
ENDMDL
MODEL 6
REMARK VINA RESULT:      -6.2      1.861      2.327
REMARK  Name = 
REMARK  5 active torsions:
REMARK  status: ('A' for Active; 'I' for Inactive)
REMARK    1  A    between atoms: C_2  and  C_3
REMARK    2  A    between atoms: C_3  and  O_5
REMARK    3  A    between atoms: O_5  and  C_6
REMARK    4  A    between atoms: C_6  and  C_7
REMARK    5  A    between atoms: C_7  and  C_9
REMARK                            x       y       z     vdW  Elec       q    Type
REMARK                         _______ _______ _______ _____ _____    ______ ____
ROOT
ATOM      1  C   UNL     1      -9.985  15.055  66.998  0.00  0.00    +0.187 C 
ATOM      2  C   UNL     1      -8.814  15.586  67.647  0.00  0.00    +0.043 C 
ATOM      3  C   UNL     1      -9.023  17.055  66.994  0.00  0.00    +0.007 C 
ATOM      4  C   UNL     1      -7.980  17.850  68.063  0.00  0.00    +0.036 C 
ATOM      5  C   UNL     1      -6.627  17.261  67.416  0.00  0.00    +0.168 C 
ATOM      6  C   UNL     1      -6.466  15.843  68.223  0.00  0.00    +0.182 C 
ATOM      7  O   UNL     1      -5.273  15.429  67.383  0.00  0.00    -0.220 OA
ATOM      8  F   UNL     1      -6.747  17.045  66.123  0.00  0.00    -0.237 F 
ATOM      9  C   UNL     1      -5.548  18.178  67.790  0.00  0.00    +0.066 C 
ATOM     10  C   UNL     1      -5.828  19.510  68.220  0.00  0.00    -0.003 C 
ATOM     11  C   UNL     1      -4.860  20.272  68.678  0.00  0.00    +0.036 C 
ATOM     12  C   UNL     1      -3.482  19.918  68.296  0.00  0.00    +0.195 C 
ATOM     13  C   UNL     1      -3.442  19.050  67.108  0.00  0.00    +0.038 C 
ATOM     14  O   UNL     1      -2.657  20.874  68.444  0.00  0.00    -0.287 OA
ATOM     15  C   UNL     1      -7.307  20.144  68.298  0.00  0.00    +0.180 C 
ATOM     16  F   UNL     1      -6.969  21.218  67.289  0.00  0.00    -0.233 F 
ATOM     17  C   UNL     1      -4.712  17.500  68.880  0.00  0.00    +0.011 C 
ATOM     18  C   UNL     1      -4.525  18.381  66.699  0.00  0.00    -0.017 C 
ATOM     19  C   UNL     1      -7.904  19.162  67.110  0.00  0.00    +0.042 C 
ATOM     20  C   UNL     1     -10.279  17.261  67.983  0.00  0.00    +0.004 C 
ATOM     21  C   UNL     1      -8.794  15.759  69.127  0.00  0.00    +0.004 C 
ATOM     22  C   UNL     1      -7.516  15.049  67.222  0.00  0.00    +0.039 C 
ATOM     23  C   UNL     1     -11.205  16.028  67.453  0.00  0.00    +0.044 C 
ATOM     24  C   UNL     1     -11.370  15.401  68.951  0.00  0.00    +0.004 C 
ENDROOT
BRANCH   1  25
ATOM     25  C   UNL     1     -10.368  13.681  67.027  0.00  0.00    +0.203 C 
ATOM     26  O   UNL     1     -11.363  13.302  67.656  0.00  0.00    -0.291 OA
BRANCH  25  27
ATOM     27  C   UNL     1      -9.549  12.470  66.683  0.00  0.00    +0.163 C 
ATOM     28 CL   UNL     1     -10.616  11.351  65.837  0.00  0.00    -0.105 Cl
ENDBRANCH  25  27
ENDBRANCH   1  25
BRANCH   1  29
ATOM     29  O   UNL     1      -9.968  15.455  65.613  0.00  0.00    -0.449 OA
BRANCH  29  30
ATOM     30  C   UNL     1     -11.167  15.553  64.904  0.00  0.00    +0.317 C 
ATOM     31  O   UNL     1     -11.311  16.631  64.249  0.00  0.00    -0.250 OA
BRANCH  30  33
ATOM     32  C   UNL     1     -12.438  14.325  64.253  0.00  0.00    +0.012 C 
ATOM     33  C   UNL     1     -11.907  14.374  64.365  0.00  0.00    +0.110 C 
ENDBRANCH  30  33
ENDBRANCH  29  30
ENDBRANCH   1  29
TORSDOF 5
ENDMDL
MODEL 7
REMARK VINA RESULT:      -6.2      4.243      6.827
REMARK  Name = 
REMARK  5 active torsions:
REMARK  status: ('A' for Active; 'I' for Inactive)
REMARK    1  A    between atoms: C_2  and  C_3
REMARK    2  A    between atoms: C_3  and  O_5
REMARK    3  A    between atoms: O_5  and  C_6
REMARK    4  A    between atoms: C_6  and  C_7
REMARK    5  A    between atoms: C_7  and  C_9
REMARK                            x       y       z     vdW  Elec       q    Type
REMARK                         _______ _______ _______ _____ _____    ______ ____
ROOT
ATOM      1  C   UNL     1      -8.530   8.771  68.367  0.00  0.00    +0.187 C 
ATOM      2  C   UNL     1      -9.438   9.861  68.116  0.00  0.00    +0.043 C 
ATOM      3  C   UNL     1      -9.121   9.862  66.527  0.00  0.00    +0.007 C 
ATOM      4  C   UNL     1     -10.477  10.778  66.098  0.00  0.00    +0.036 C 
ATOM      5  C   UNL     1      -9.903  12.171  66.670  0.00  0.00    +0.168 C 
ATOM      6  C   UNL     1     -10.373  12.102  68.239  0.00  0.00    +0.182 C 
ATOM      7  O   UNL     1      -9.631  13.380  68.582  0.00  0.00    -0.220 OA
ATOM      8  F   UNL     1      -8.591  12.240  66.584  0.00  0.00    -0.237 F 
ATOM      9  C   UNL     1     -10.623  13.239  65.975  0.00  0.00    +0.066 C 
ATOM     10  C   UNL     1     -11.307  12.991  64.747  0.00  0.00    -0.003 C 
ATOM     11  C   UNL     1     -12.057  13.927  64.210  0.00  0.00    +0.036 C 
ATOM     12  C   UNL     1     -11.796  15.319  64.614  0.00  0.00    +0.195 C 
ATOM     13  C   UNL     1     -10.456  15.483  65.200  0.00  0.00    +0.038 C 
ATOM     14  O   UNL     1     -12.272  16.176  63.804  0.00  0.00    -0.287 OA
ATOM     15  C   UNL     1     -11.328  11.567  63.994  0.00  0.00    +0.180 C 
ATOM     16  F   UNL     1     -10.651  12.135  62.767  0.00  0.00    -0.233 F 
ATOM     17  C   UNL     1     -11.629  13.844  66.958  0.00  0.00    +0.011 C 
ATOM     18  C   UNL     1      -9.759  14.434  65.646  0.00  0.00    -0.017 C 
ATOM     19  C   UNL     1      -9.874  11.096  64.624  0.00  0.00    +0.042 C 
ATOM     20  C   UNL     1      -9.949   8.484  66.411  0.00  0.00    +0.004 C 
ATOM     21  C   UNL     1     -10.906   9.661  68.274  0.00  0.00    +0.004 C 
ATOM     22  C   UNL     1      -9.082  11.168  68.680  0.00  0.00    +0.039 C 
ATOM     23  C   UNL     1      -9.026   7.568  67.395  0.00  0.00    +0.044 C 
ATOM     24  C   UNL     1     -10.301   7.126  68.313  0.00  0.00    +0.004 C 
ENDROOT
BRANCH   1  25
ATOM     25  C   UNL     1      -8.187   8.293  69.666  0.00  0.00    +0.203 C 
ATOM     26  O   UNL     1      -7.956   7.096  69.872  0.00  0.00    -0.291 OA
BRANCH  25  27
ATOM     27  C   UNL     1      -8.385   8.961  70.996  0.00  0.00    +0.163 C 
ATOM     28 CL   UNL     1      -9.883   8.326  71.674  0.00  0.00    -0.105 Cl
ENDBRANCH  25  27
ENDBRANCH   1  25
BRANCH   1  29
ATOM     29  O   UNL     1      -7.292   9.034  67.678  0.00  0.00    -0.449 OA
BRANCH  29  30
ATOM     30  C   UNL     1      -6.098   9.109  68.400  0.00  0.00    +0.317 C 
ATOM     31  O   UNL     1      -5.285   8.159  68.183  0.00  0.00    -0.250 OA
BRANCH  30  33
ATOM     32  C   UNL     1      -5.424  10.860  68.563  0.00  0.00    +0.012 C 
ATOM     33  C   UNL     1      -5.477  10.394  68.840  0.00  0.00    +0.110 C 
ENDBRANCH  30  33
ENDBRANCH  29  30
ENDBRANCH   1  29
TORSDOF 5
ENDMDL
MODEL 8
REMARK VINA RESULT:      -6.1      3.774      6.464
REMARK  Name = 
REMARK  5 active torsions:
REMARK  status: ('A' for Active; 'I' for Inactive)
REMARK    1  A    between atoms: C_2  and  C_3
REMARK    2  A    between atoms: C_3  and  O_5
REMARK    3  A    between atoms: O_5  and  C_6
REMARK    4  A    between atoms: C_6  and  C_7
REMARK    5  A    between atoms: C_7  and  C_9
REMARK                            x       y       z     vdW  Elec       q    Type
REMARK                         _______ _______ _______ _____ _____    ______ ____
ROOT
ATOM      1  C   UNL     1      -9.397   8.533  68.353  0.00  0.00    +0.187 C 
ATOM      2  C   UNL     1      -9.311   9.597  67.386  0.00  0.00    +0.043 C 
ATOM      3  C   UNL     1      -9.896  10.694  68.425  0.00  0.00    +0.007 C 
ATOM      4  C   UNL     1      -9.389  12.040  67.533  0.00  0.00    +0.036 C 
ATOM      5  C   UNL     1     -10.501  11.880  66.378  0.00  0.00    +0.168 C 
ATOM      6  C   UNL     1      -9.760  10.843  65.347  0.00  0.00    +0.182 C 
ATOM      7  O   UNL     1     -10.991  10.738  64.468  0.00  0.00    -0.220 OA
ATOM      8  F   UNL     1     -11.619  11.356  66.834  0.00  0.00    -0.237 F 
ATOM      9  C   UNL     1     -10.647  13.195  65.751  0.00  0.00    +0.066 C 
ATOM     10  C   UNL     1     -10.209  14.381  66.414  0.00  0.00    -0.003 C 
ATOM     11  C   UNL     1     -10.226  15.533  65.782  0.00  0.00    +0.036 C 
ATOM     12  C   UNL     1     -11.119  15.653  64.616  0.00  0.00    +0.195 C 
ATOM     13  C   UNL     1     -12.175  14.627  64.620  0.00  0.00    +0.038 C 
ATOM     14  O   UNL     1     -11.371  16.858  64.297  0.00  0.00    -0.287 OA
ATOM     15  C   UNL     1      -9.565  14.408  67.890  0.00  0.00    +0.180 C 
ATOM     16  F   UNL     1     -10.678  15.280  68.428  0.00  0.00    -0.233 F 
ATOM     17  C   UNL     1      -9.962  13.142  64.383  0.00  0.00    +0.011 C 
ATOM     18  C   UNL     1     -12.070  13.525  65.370  0.00  0.00    -0.017 C 
ATOM     19  C   UNL     1     -10.355  13.038  68.373  0.00  0.00    +0.042 C 
ATOM     20  C   UNL     1      -8.492  10.621  69.214  0.00  0.00    +0.004 C 
ATOM     21  C   UNL     1      -7.980  10.085  66.928  0.00  0.00    +0.004 C 
ATOM     22  C   UNL     1     -10.202   9.512  66.222  0.00  0.00    +0.039 C 
ATOM     23  C   UNL     1      -8.533   9.045  69.630  0.00  0.00    +0.044 C 
ATOM     24  C   UNL     1      -7.070   8.749  68.973  0.00  0.00    +0.004 C 
ENDROOT
BRANCH   1  25
ATOM     25  C   UNL     1      -9.144   7.159  68.062  0.00  0.00    +0.203 C 
ATOM     26  O   UNL     1      -8.361   6.489  68.745  0.00  0.00    -0.291 OA
BRANCH  25  27
ATOM     27  C   UNL     1      -9.419   6.400  66.796  0.00  0.00    +0.163 C 
ATOM     28 CL   UNL     1     -10.395   5.001  67.237  0.00  0.00    -0.105 Cl
ENDBRANCH  25  27
ENDBRANCH   1  25
BRANCH   1  29
ATOM     29  O   UNL     1     -10.686   8.595  68.994  0.00  0.00    -0.449 OA
BRANCH  29  30
ATOM     30  C   UNL     1     -10.877   7.972  70.230  0.00  0.00    +0.317 C 
ATOM     31  O   UNL     1     -11.123   8.764  71.192  0.00  0.00    -0.250 OA
BRANCH  30  33
ATOM     32  C   UNL     1     -11.384   6.255  70.812  0.00  0.00    +0.012 C 
ATOM     33  C   UNL     1     -11.420   6.590  70.385  0.00  0.00    +0.110 C 
ENDBRANCH  30  33
ENDBRANCH  29  30
ENDBRANCH   1  29
TORSDOF 5
ENDMDL
MODEL 9
REMARK VINA RESULT:      -6.0      2.640      7.214
REMARK  Name = 
REMARK  5 active torsions:
REMARK  status: ('A' for Active; 'I' for Inactive)
REMARK    1  A    between atoms: C_2  and  C_3
REMARK    2  A    between atoms: C_3  and  O_5
REMARK    3  A    between atoms: O_5  and  C_6
REMARK    4  A    between atoms: C_6  and  C_7
REMARK    5  A    between atoms: C_7  and  C_9
REMARK                            x       y       z     vdW  Elec       q    Type
REMARK                         _______ _______ _______ _____ _____    ______ ____
ROOT
ATOM      1  C   UNL     1      -7.896  18.138  66.760  0.00  0.00    +0.187 C 
ATOM      2  C   UNL     1      -8.714  17.049  67.232  0.00  0.00    +0.043 C 
ATOM      3  C   UNL     1      -7.534  15.962  67.007  0.00  0.00    +0.007 C 
ATOM      4  C   UNL     1      -8.242  14.762  67.967  0.00  0.00    +0.036 C 
ATOM      5  C   UNL     1      -9.400  14.391  66.910  0.00  0.00    +0.168 C 
ATOM      6  C   UNL     1     -10.566  15.475  67.302  0.00  0.00    +0.182 C 
ATOM      7  O   UNL     1     -11.441  15.048  66.140  0.00  0.00    -0.220 OA
ATOM      8  F   UNL     1      -9.010  14.564  65.665  0.00  0.00    -0.237 F 
ATOM      9  C   UNL     1      -9.845  13.034  67.234  0.00  0.00    +0.066 C 
ATOM     10  C   UNL     1      -9.033  12.158  68.017  0.00  0.00    -0.003 C 
ATOM     11  C   UNL     1      -9.506  10.997  68.409  0.00  0.00    +0.036 C 
ATOM     12  C   UNL     1     -10.639  10.436  67.652  0.00  0.00    +0.195 C 
ATOM     13  C   UNL     1     -10.765  11.041  66.315  0.00  0.00    +0.038 C 
ATOM     14  O   UNL     1     -10.793   9.186  67.828  0.00  0.00    -0.287 OA
ATOM     15  C   UNL     1      -7.571  12.538  68.576  0.00  0.00    +0.180 C 
ATOM     16  F   UNL     1      -6.914  11.420  67.798  0.00  0.00    -0.233 F 
ATOM     17  C   UNL     1     -11.213  13.138  67.914  0.00  0.00    +0.011 C 
ATOM     18  C   UNL     1     -10.169  12.200  66.018  0.00  0.00    -0.017 C 
ATOM     19  C   UNL     1      -7.270  13.614  67.358  0.00  0.00    +0.042 C 
ATOM     20  C   UNL     1      -6.771  16.602  68.276  0.00  0.00    +0.004 C 
ATOM     21  C   UNL     1      -9.112  16.981  68.667  0.00  0.00    +0.004 C 
ATOM     22  C   UNL     1      -9.872  16.681  66.409  0.00  0.00    +0.039 C 
ATOM     23  C   UNL     1      -6.568  18.112  67.696  0.00  0.00    +0.044 C 
ATOM     24  C   UNL     1      -7.270  18.795  69.001  0.00  0.00    +0.004 C 
ENDROOT
BRANCH   1  25
ATOM     25  C   UNL     1      -8.369  19.467  66.552  0.00  0.00    +0.203 C 
ATOM     26  O   UNL     1      -7.659  20.450  66.796  0.00  0.00    -0.291 OA
BRANCH  25  27
ATOM     27  C   UNL     1      -9.782  19.948  66.388  0.00  0.00    +0.163 C 
ATOM     28 CL   UNL     1     -10.434  20.194  68.006  0.00  0.00    -0.105 Cl
ENDBRANCH  25  27
ENDBRANCH   1  25
BRANCH   1  29
ATOM     29  O   UNL     1      -7.243  17.730  65.542  0.00  0.00    -0.449 OA
BRANCH  29  30
ATOM     30  C   UNL     1      -6.015  18.295  65.190  0.00  0.00    +0.317 C 
ATOM     31  O   UNL     1      -5.023  17.507  65.278  0.00  0.00    -0.250 OA
BRANCH  30  33
ATOM     32  C   UNL     1      -5.654  19.384  63.697  0.00  0.00    +0.012 C 
ATOM     33  C   UNL     1      -5.868  19.400  64.198  0.00  0.00    +0.110 C 
ENDBRANCH  30  33
ENDBRANCH  29  30
ENDBRANCH   1  29
TORSDOF 5
ENDMDL
