MODEL 1
REMARK VINA RESULT:      -7.5      0.000      0.000
REMARK  Name = 
REMARK  3 active torsions:
REMARK  status: ('A' for Active; 'I' for Inactive)
REMARK    1  A    between atoms: N_7  and  C_8
REMARK    2  A    between atoms: C_15  and  C_16
REMARK    3  A    between atoms: N_20  and  C_21
REMARK                            x       y       z     vdW  Elec       q    Type
REMARK                         _______ _______ _______ _____ _____    ______ ____
ROOT
ATOM      1  C   UNL     1     -10.989  15.128  67.806  0.00  0.00    +0.088 A 
ATOM      2  C   UNL     1     -11.083  14.827  69.157  0.00  0.00    +0.089 A 
ATOM      3 CL   UNL     1     -10.894  16.115  70.306  0.00  0.00    -0.079 Cl
ATOM      4  C   UNL     1     -11.546  13.597  69.607  0.00  0.00    +0.075 A 
ATOM      5  C   UNL     1     -11.540  12.578  68.664  0.00  0.00    +0.058 A 
ATOM      6  C   UNL     1     -11.859  11.300  69.065  0.00  0.00    +0.205 A 
ATOM      7  C   UNL     1     -12.328  11.171  70.369  0.00  0.00    +0.136 A 
ATOM      8  C   UNL     1     -12.810  12.293  71.031  0.00  0.00    +0.086 A 
ATOM      9  O   UNL     1     -11.356  10.324  68.432  0.00  0.00    -0.286 OA
ATOM     10  C   UNL     1     -11.504  12.830  67.301  0.00  0.00    +0.036 A 
ATOM     11  N   UNL     1     -12.363  13.517  70.685  0.00  0.00    -0.327 N 
ATOM     12  C   UNL     1     -11.258  14.130  66.878  0.00  0.00    +0.154 A 
ATOM     13  F   UNL     1     -11.767  14.534  65.688  0.00  0.00    -0.203 F 
ENDROOT
BRANCH   1  17
ATOM     14  N   UNL     1      -6.716  16.500  66.501  0.00  0.00    -0.131 NA
ATOM     15  C   UNL     1      -8.148  17.145  66.503  0.00  0.00    +0.111 C 
ATOM     16  C   UNL     1      -8.743  15.984  67.498  0.00  0.00    +0.110 C 
ATOM     17  N   UNL     1     -10.171  16.197  67.339  0.00  0.00    -0.304 N 
ATOM     18  C   UNL     1     -10.920  17.417  67.130  0.00  0.00    +0.091 C 
ATOM     19  C   UNL     1     -10.240  18.643  67.638  0.00  0.00    +0.021 C 
ATOM     20  C   UNL     1      -9.042  18.408  68.490  0.00  0.00    +0.003 C 
ATOM     21  C   UNL     1      -7.774  18.131  67.758  0.00  0.00    +0.021 C 
ENDBRANCH   1  17
BRANCH   7  22
ATOM     22  C   UNL     1     -12.332   9.850  71.000  0.00  0.00    +0.392 C 
ATOM     23  O   UNL     1     -11.150   9.476  71.645  0.00  0.00    -0.240 OA
ATOM     24  O   UNL     1     -13.400   9.476  71.574  0.00  0.00    -0.240 OA
ENDBRANCH   7  22
BRANCH  11  25
ATOM     25  C   UNL     1     -12.482  14.682  71.530  0.00  0.00    +0.086 C 
ATOM     26  C   UNL     1     -13.143  14.454  72.897  0.00  0.00    +0.024 C 
ATOM     27  C   UNL     1     -13.922  15.192  71.812  0.00  0.00    +0.024 C 
ENDBRANCH  11  25
TORSDOF 3
ENDMDL
MODEL 2
REMARK VINA RESULT:      -7.4      4.216      5.552
REMARK  Name = 
REMARK  3 active torsions:
REMARK  status: ('A' for Active; 'I' for Inactive)
REMARK    1  A    between atoms: N_7  and  C_8
REMARK    2  A    between atoms: C_15  and  C_16
REMARK    3  A    between atoms: N_20  and  C_21
REMARK                            x       y       z     vdW  Elec       q    Type
REMARK                         _______ _______ _______ _____ _____    ______ ____
ROOT
ATOM      1  C   UNL     1      -8.372  17.513  66.905  0.00  0.00    +0.088 A 
ATOM      2  C   UNL     1      -8.247  16.161  66.625  0.00  0.00    +0.089 A 
ATOM      3 CL   UNL     1      -6.847  15.321  67.214  0.00  0.00    -0.079 Cl
ATOM      4  C   UNL     1      -9.297  15.417  66.101  0.00  0.00    +0.075 A 
ATOM      5  C   UNL     1     -10.320  16.156  65.524  0.00  0.00    +0.058 A 
ATOM      6  C   UNL     1     -11.331  15.492  64.867  0.00  0.00    +0.205 A 
ATOM      7  C   UNL     1     -11.325  14.105  64.984  0.00  0.00    +0.136 A 
ATOM      8  C   UNL     1     -10.601  13.515  66.014  0.00  0.00    +0.086 A 
ATOM      9  O   UNL     1     -11.926  16.083  63.916  0.00  0.00    -0.286 OA
ATOM     10  C   UNL     1     -10.520  17.497  65.814  0.00  0.00    +0.036 A 
ATOM     11  N   UNL     1      -9.535  14.154  66.533  0.00  0.00    -0.327 N 
ATOM     12  C   UNL     1      -9.545  18.166  66.543  0.00  0.00    +0.154 A 
ATOM     13  F   UNL     1      -9.915  19.214  67.318  0.00  0.00    -0.203 F 
ENDROOT
BRANCH   1  17
ATOM     14  N   UNL     1      -5.078  19.134  69.798  0.00  0.00    -0.131 NA
ATOM     15  C   UNL     1      -5.365  19.237  68.256  0.00  0.00    +0.111 C 
ATOM     16  C   UNL     1      -6.896  18.674  68.437  0.00  0.00    +0.110 C 
ATOM     17  N   UNL     1      -7.228  18.349  67.061  0.00  0.00    -0.304 N 
ATOM     18  C   UNL     1      -6.840  18.992  65.824  0.00  0.00    +0.091 C 
ATOM     19  C   UNL     1      -6.489  20.434  65.973  0.00  0.00    +0.021 C 
ATOM     20  C   UNL     1      -6.825  21.046  67.288  0.00  0.00    +0.003 C 
ATOM     21  C   UNL     1      -5.847  20.799  68.384  0.00  0.00    +0.021 C 
ENDBRANCH   1  17
BRANCH   7  22
ATOM     22  C   UNL     1     -12.106  13.303  64.040  0.00  0.00    +0.392 C 
ATOM     23  O   UNL     1     -11.370  12.548  63.124  0.00  0.00    -0.240 OA
ATOM     24  O   UNL     1     -13.160  12.746  64.474  0.00  0.00    -0.240 OA
ENDBRANCH   7  22
BRANCH  11  25
ATOM     25  C   UNL     1      -8.503  13.499  67.302  0.00  0.00    +0.086 C 
ATOM     26  C   UNL     1      -8.282  12.010  66.995  0.00  0.00    +0.024 C 
ATOM     27  C   UNL     1      -8.969  12.403  68.300  0.00  0.00    +0.024 C 
ENDBRANCH  11  25
TORSDOF 3
ENDMDL
MODEL 3
REMARK VINA RESULT:      -7.3      4.155      8.091
REMARK  Name = 
REMARK  3 active torsions:
REMARK  status: ('A' for Active; 'I' for Inactive)
REMARK    1  A    between atoms: N_7  and  C_8
REMARK    2  A    between atoms: C_15  and  C_16
REMARK    3  A    between atoms: N_20  and  C_21
REMARK                            x       y       z     vdW  Elec       q    Type
REMARK                         _______ _______ _______ _____ _____    ______ ____
ROOT
ATOM      1  C   UNL     1     -12.289   8.938  71.182  0.00  0.00    +0.088 A 
ATOM      2  C   UNL     1     -11.468   9.894  70.603  0.00  0.00    +0.089 A 
ATOM      3 CL   UNL     1     -10.133   9.357  69.631  0.00  0.00    -0.079 Cl
ATOM      4  C   UNL     1     -11.806  11.241  70.581  0.00  0.00    +0.075 A 
ATOM      5  C   UNL     1     -12.790  11.622  71.484  0.00  0.00    +0.058 A 
ATOM      6  C   UNL     1     -13.089  12.959  71.616  0.00  0.00    +0.205 A 
ATOM      7  C   UNL     1     -12.483  13.812  70.697  0.00  0.00    +0.136 A 
ATOM      8  C   UNL     1     -11.968  13.284  69.520  0.00  0.00    +0.086 A 
ATOM      9  O   UNL     1     -13.526  13.375  72.731  0.00  0.00    -0.286 OA
ATOM     10  C   UNL     1     -13.671  10.712  72.047  0.00  0.00    +0.036 A 
ATOM     11  N   UNL     1     -11.566  11.998  69.483  0.00  0.00    -0.327 N 
ATOM     12  C   UNL     1     -13.428   9.357  71.860  0.00  0.00    +0.154 A 
ATOM     13  F   UNL     1     -14.479   8.501  71.859  0.00  0.00    -0.203 F 
ENDROOT
BRANCH   1  17
ATOM     14  N   UNL     1     -10.213   6.356  74.479  0.00  0.00    -0.131 NA
ATOM     15  C   UNL     1     -10.869   6.071  73.080  0.00  0.00    +0.111 C 
ATOM     16  C   UNL     1     -10.879   7.664  72.686  0.00  0.00    +0.110 C 
ATOM     17  N   UNL     1     -11.790   7.656  71.555  0.00  0.00    -0.304 N 
ATOM     18  C   UNL     1     -12.001   6.661  70.527  0.00  0.00    +0.091 C 
ATOM     19  C   UNL     1     -10.823   5.778  70.284  0.00  0.00    +0.021 C 
ATOM     20  C   UNL     1      -9.555   6.203  70.936  0.00  0.00    +0.003 C 
ATOM     21  C   UNL     1      -9.411   5.830  72.371  0.00  0.00    +0.021 C 
ENDBRANCH   1  17
BRANCH   7  22
ATOM     22  C   UNL     1     -12.432  15.247  70.979  0.00  0.00    +0.392 C 
ATOM     23  O   UNL     1     -11.243  15.896  70.639  0.00  0.00    -0.240 OA
ATOM     24  O   UNL     1     -13.489  15.923  70.783  0.00  0.00    -0.240 OA
ENDBRANCH   7  22
BRANCH  11  25
ATOM     25  C   UNL     1     -10.679  11.464  68.476  0.00  0.00    +0.086 C 
ATOM     26  C   UNL     1     -10.138  12.475  67.454  0.00  0.00    +0.024 C 
ATOM     27  C   UNL     1     -11.202  11.474  67.013  0.00  0.00    +0.024 C 
ENDBRANCH  11  25
TORSDOF 3
ENDMDL
MODEL 4
REMARK VINA RESULT:      -7.3      3.961      7.628
REMARK  Name = 
REMARK  3 active torsions:
REMARK  status: ('A' for Active; 'I' for Inactive)
REMARK    1  A    between atoms: N_7  and  C_8
REMARK    2  A    between atoms: C_15  and  C_16
REMARK    3  A    between atoms: N_20  and  C_21
REMARK                            x       y       z     vdW  Elec       q    Type
REMARK                         _______ _______ _______ _____ _____    ______ ____
ROOT
ATOM      1  C   UNL     1     -11.567   9.482  70.509  0.00  0.00    +0.088 A 
ATOM      2  C   UNL     1     -11.068  10.675  70.009  0.00  0.00    +0.089 A 
ATOM      3 CL   UNL     1      -9.791  10.609  68.834  0.00  0.00    -0.079 Cl
ATOM      4  C   UNL     1     -11.700  11.891  70.236  0.00  0.00    +0.075 A 
ATOM      5  C   UNL     1     -12.612  11.901  71.282  0.00  0.00    +0.058 A 
ATOM      6  C   UNL     1     -13.183  13.098  71.655  0.00  0.00    +0.205 A 
ATOM      7  C   UNL     1     -12.915  14.184  70.827  0.00  0.00    +0.136 A 
ATOM      8  C   UNL     1     -12.459  13.954  69.534  0.00  0.00    +0.086 A 
ATOM      9  O   UNL     1     -13.546  13.245  72.861  0.00  0.00    -0.286 OA
ATOM     10  C   UNL     1     -13.181  10.739  71.781  0.00  0.00    +0.036 A 
ATOM     11  N   UNL     1     -11.787  12.821  69.253  0.00  0.00    -0.327 N 
ATOM     12  C   UNL     1     -12.668   9.520  71.357  0.00  0.00    +0.154 A 
ATOM     13  F   UNL     1     -13.490   8.442  71.326  0.00  0.00    -0.203 F 
ENDROOT
BRANCH   1  17
ATOM     14  N   UNL     1      -9.733   5.766  68.347  0.00  0.00    -0.131 NA
ATOM     15  C   UNL     1      -9.575   6.430  69.762  0.00  0.00    +0.111 C 
ATOM     16  C   UNL     1     -10.916   7.353  69.552  0.00  0.00    +0.110 C 
ATOM     17  N   UNL     1     -10.746   8.322  70.621  0.00  0.00    -0.304 N 
ATOM     18  C   UNL     1     -10.177   8.172  71.942  0.00  0.00    +0.091 C 
ATOM     19  C   UNL     1     -10.233   6.779  72.474  0.00  0.00    +0.021 C 
ATOM     20  C   UNL     1     -11.070   5.826  71.696  0.00  0.00    +0.003 C 
ATOM     21  C   UNL     1     -10.425   5.233  70.491  0.00  0.00    +0.021 C 
ENDBRANCH   1  17
BRANCH   7  22
ATOM     22  C   UNL     1     -13.150  15.539  71.326  0.00  0.00    +0.392 C 
ATOM     23  O   UNL     1     -14.448  15.813  71.765  0.00  0.00    -0.240 OA
ATOM     24  O   UNL     1     -12.227  16.085  72.004  0.00  0.00    -0.240 OA
ENDBRANCH   7  22
BRANCH  11  25
ATOM     25  C   UNL     1     -10.948  12.653  68.090  0.00  0.00    +0.086 C 
ATOM     26  C   UNL     1     -10.928  13.829  67.103  0.00  0.00    +0.024 C 
ATOM     27  C   UNL     1     -11.673  12.554  66.719  0.00  0.00    +0.024 C 
ENDBRANCH  11  25
TORSDOF 3
ENDMDL
MODEL 5
REMARK VINA RESULT:      -7.2      1.465      1.873
REMARK  Name = 
REMARK  3 active torsions:
REMARK  status: ('A' for Active; 'I' for Inactive)
REMARK    1  A    between atoms: N_7  and  C_8
REMARK    2  A    between atoms: C_15  and  C_16
REMARK    3  A    between atoms: N_20  and  C_21
REMARK                            x       y       z     vdW  Elec       q    Type
REMARK                         _______ _______ _______ _____ _____    ______ ____
ROOT
ATOM      1  C   UNL     1     -10.371  16.506  66.768  0.00  0.00    +0.088 A 
ATOM      2  C   UNL     1     -10.427  16.036  68.071  0.00  0.00    +0.089 A 
ATOM      3 CL   UNL     1     -10.251  17.176  69.369  0.00  0.00    -0.079 Cl
ATOM      4  C   UNL     1     -10.846  14.747  68.373  0.00  0.00    +0.075 A 
ATOM      5  C   UNL     1     -10.833  13.853  67.310  0.00  0.00    +0.058 A 
ATOM      6  C   UNL     1     -11.108  12.527  67.554  0.00  0.00    +0.205 A 
ATOM      7  C   UNL     1     -11.545  12.222  68.840  0.00  0.00    +0.136 A 
ATOM      8  C   UNL     1     -12.044  13.239  69.645  0.00  0.00    +0.086 A 
ATOM      9  O   UNL     1     -10.591  11.652  66.795  0.00  0.00    -0.286 OA
ATOM     10  C   UNL     1     -10.832  14.273  65.989  0.00  0.00    +0.036 A 
ATOM     11  N   UNL     1     -11.638  14.508  69.447  0.00  0.00    -0.327 N 
ATOM     12  C   UNL     1     -10.631  15.622  65.727  0.00  0.00    +0.154 A 
ATOM     13  F   UNL     1     -11.176  16.156  64.606  0.00  0.00    -0.203 F 
ENDROOT
BRANCH   1  17
ATOM     14  N   UNL     1      -6.111  18.215  65.885  0.00  0.00    -0.131 NA
ATOM     15  C   UNL     1      -7.579  18.768  65.803  0.00  0.00    +0.111 C 
ATOM     16  C   UNL     1      -8.170  17.518  66.687  0.00  0.00    +0.110 C 
ATOM     17  N   UNL     1      -9.592  17.649  66.423  0.00  0.00    -0.304 N 
ATOM     18  C   UNL     1     -10.403  18.828  66.216  0.00  0.00    +0.091 C 
ATOM     19  C   UNL     1      -9.849  20.065  66.840  0.00  0.00    +0.021 C 
ATOM     20  C   UNL     1      -8.707  19.859  67.772  0.00  0.00    +0.003 C 
ATOM     21  C   UNL     1      -7.371  19.703  67.133  0.00  0.00    +0.021 C 
ENDBRANCH   1  17
BRANCH   7  22
ATOM     22  C   UNL     1     -11.499  10.833  69.301  0.00  0.00    +0.392 C 
ATOM     23  O   UNL     1     -10.246  10.362  69.700  0.00  0.00    -0.240 OA
ATOM     24  O   UNL     1     -12.477  10.410  69.989  0.00  0.00    -0.240 OA
ENDBRANCH   7  22
BRANCH  11  25
ATOM     25  C   UNL     1     -11.771  15.556  70.432  0.00  0.00    +0.086 C 
ATOM     26  C   UNL     1     -11.823  15.096  71.897  0.00  0.00    +0.024 C 
ATOM     27  C   UNL     1     -13.103  15.593  71.231  0.00  0.00    +0.024 C 
ENDBRANCH  11  25
TORSDOF 3
ENDMDL
MODEL 6
REMARK VINA RESULT:      -7.2      3.792      7.250
REMARK  Name = 
REMARK  3 active torsions:
REMARK  status: ('A' for Active; 'I' for Inactive)
REMARK    1  A    between atoms: N_7  and  C_8
REMARK    2  A    between atoms: C_15  and  C_16
REMARK    3  A    between atoms: N_20  and  C_21
REMARK                            x       y       z     vdW  Elec       q    Type
REMARK                         _______ _______ _______ _____ _____    ______ ____
ROOT
ATOM      1  C   UNL     1     -11.084  10.066  70.414  0.00  0.00    +0.088 A 
ATOM      2  C   UNL     1     -11.910  11.177  70.341  0.00  0.00    +0.089 A 
ATOM      3 CL   UNL     1     -12.758  11.673  71.773  0.00  0.00    -0.079 Cl
ATOM      4  C   UNL     1     -11.903  12.029  69.244  0.00  0.00    +0.075 A 
ATOM      5  C   UNL     1     -11.327  11.512  68.092  0.00  0.00    +0.058 A 
ATOM      6  C   UNL     1     -11.398  12.243  66.928  0.00  0.00    +0.205 A 
ATOM      7  C   UNL     1     -11.904  13.534  67.049  0.00  0.00    +0.136 A 
ATOM      8  C   UNL     1     -11.933  14.136  68.301  0.00  0.00    +0.086 A 
ATOM      9  O   UNL     1     -11.399  11.622  65.822  0.00  0.00    -0.286 OA
ATOM     10  C   UNL     1     -10.451  10.437  68.119  0.00  0.00    +0.036 A 
ATOM     11  N   UNL     1     -11.997  13.372  69.409  0.00  0.00    -0.327 N 
ATOM     12  C   UNL     1     -10.310   9.734  69.308  0.00  0.00    +0.154 A 
ATOM     13  F   UNL     1      -9.130   9.115  69.563  0.00  0.00    -0.203 F 
ENDROOT
BRANCH   1  17
ATOM     14  N   UNL     1      -9.509   7.434  73.941  0.00  0.00    -0.131 NA
ATOM     15  C   UNL     1     -10.878   7.593  73.186  0.00  0.00    +0.111 C 
ATOM     16  C   UNL     1     -10.180   8.434  71.962  0.00  0.00    +0.110 C 
ATOM     17  N   UNL     1     -11.354   8.997  71.318  0.00  0.00    -0.304 N 
ATOM     18  C   UNL     1     -12.683   8.452  71.148  0.00  0.00    +0.091 C 
ATOM     19  C   UNL     1     -12.737   6.962  71.173  0.00  0.00    +0.021 C 
ATOM     20  C   UNL     1     -11.421   6.269  71.114  0.00  0.00    +0.003 C 
ATOM     21  C   UNL     1     -10.688   6.163  72.407  0.00  0.00    +0.021 C 
ENDBRANCH   1  17
BRANCH   7  22
ATOM     22  C   UNL     1     -12.365  14.237  65.851  0.00  0.00    +0.392 C 
ATOM     23  O   UNL     1     -11.395  14.488  64.877  0.00  0.00    -0.240 OA
ATOM     24  O   UNL     1     -13.515  13.943  65.402  0.00  0.00    -0.240 OA
ENDBRANCH   7  22
BRANCH  11  25
ATOM     25  C   UNL     1     -12.418  13.864  70.700  0.00  0.00    +0.086 C 
ATOM     26  C   UNL     1     -12.887  15.326  70.739  0.00  0.00    +0.024 C 
ATOM     27  C   UNL     1     -11.534  14.968  71.344  0.00  0.00    +0.024 C 
ENDBRANCH  11  25
TORSDOF 3
ENDMDL
MODEL 7
REMARK VINA RESULT:      -6.9      3.115      5.022
REMARK  Name = 
REMARK  3 active torsions:
REMARK  status: ('A' for Active; 'I' for Inactive)
REMARK    1  A    between atoms: N_7  and  C_8
REMARK    2  A    between atoms: C_15  and  C_16
REMARK    3  A    between atoms: N_20  and  C_21
REMARK                            x       y       z     vdW  Elec       q    Type
REMARK                         _______ _______ _______ _____ _____    ______ ____
ROOT
ATOM      1  C   UNL     1     -11.135  12.397  68.807  0.00  0.00    +0.088 A 
ATOM      2  C   UNL     1     -10.456  11.188  68.828  0.00  0.00    +0.089 A 
ATOM      3 CL   UNL     1      -9.186  10.933  67.672  0.00  0.00    -0.079 Cl
ATOM      4  C   UNL     1     -10.596  10.283  69.872  0.00  0.00    +0.075 A 
ATOM      5  C   UNL     1     -11.712  10.469  70.675  0.00  0.00    +0.058 A 
ATOM      6  C   UNL     1     -11.993   9.537  71.649  0.00  0.00    +0.205 A 
ATOM      7  C   UNL     1     -11.023   8.560  71.854  0.00  0.00    +0.136 A 
ATOM      8  C   UNL     1      -9.730   8.782  71.396  0.00  0.00    +0.086 A 
ATOM      9  O   UNL     1     -13.201   9.367  71.994  0.00  0.00    -0.286 OA
ATOM     10  C   UNL     1     -12.392  11.676  70.731  0.00  0.00    +0.036 A 
ATOM     11  N   UNL     1      -9.523   9.605  70.350  0.00  0.00    -0.327 N 
ATOM     12  C   UNL     1     -12.068  12.657  69.803  0.00  0.00    +0.154 A 
ATOM     13  F   UNL     1     -12.238  13.959  70.145  0.00  0.00    -0.203 F 
ENDROOT
BRANCH   1  17
ATOM     14  N   UNL     1     -13.221  12.628  64.631  0.00  0.00    -0.131 NA
ATOM     15  C   UNL     1     -12.313  13.585  65.484  0.00  0.00    +0.111 C 
ATOM     16  C   UNL     1     -11.875  12.372  66.499  0.00  0.00    +0.110 C 
ATOM     17  N   UNL     1     -11.305  13.133  67.598  0.00  0.00    -0.304 N 
ATOM     18  C   UNL     1     -10.559  14.371  67.594  0.00  0.00    +0.091 C 
ATOM     19  C   UNL     1      -9.846  14.648  66.314  0.00  0.00    +0.021 C 
ATOM     20  C   UNL     1      -9.800  13.518  65.346  0.00  0.00    +0.003 C 
ATOM     21  C   UNL     1     -11.019  13.335  64.510  0.00  0.00    +0.021 C 
ENDBRANCH   1  17
BRANCH   7  22
ATOM     22  C   UNL     1     -11.381   7.338  72.576  0.00  0.00    +0.392 C 
ATOM     23  O   UNL     1     -11.775   6.254  71.787  0.00  0.00    -0.240 OA
ATOM     24  O   UNL     1     -10.693   7.036  73.599  0.00  0.00    -0.240 OA
ENDBRANCH   7  22
BRANCH  11  25
ATOM     25  C   UNL     1      -8.316   9.607  69.557  0.00  0.00    +0.086 C 
ATOM     26  C   UNL     1      -7.274   8.538  69.920  0.00  0.00    +0.024 C 
ATOM     27  C   UNL     1      -7.003   9.993  70.292  0.00  0.00    +0.024 C 
ENDBRANCH  11  25
TORSDOF 3
ENDMDL
MODEL 8
REMARK VINA RESULT:      -6.8      3.936      7.043
REMARK  Name = 
REMARK  3 active torsions:
REMARK  status: ('A' for Active; 'I' for Inactive)
REMARK    1  A    between atoms: N_7  and  C_8
REMARK    2  A    between atoms: C_15  and  C_16
REMARK    3  A    between atoms: N_20  and  C_21
REMARK                            x       y       z     vdW  Elec       q    Type
REMARK                         _______ _______ _______ _____ _____    ______ ____
ROOT
ATOM      1  C   UNL     1      -9.591  10.728  68.228  0.00  0.00    +0.088 A 
ATOM      2  C   UNL     1     -10.574  11.701  68.321  0.00  0.00    +0.089 A 
ATOM      3 CL   UNL     1     -11.468  11.833  69.804  0.00  0.00    -0.079 Cl
ATOM      4  C   UNL     1     -10.708  12.707  67.373  0.00  0.00    +0.075 A 
ATOM      5  C   UNL     1     -10.076  12.469  66.160  0.00  0.00    +0.058 A 
ATOM      6  C   UNL     1     -10.269  13.356  65.125  0.00  0.00    +0.205 A 
ATOM      7  C   UNL     1     -10.961  14.521  65.442  0.00  0.00    +0.136 A 
ATOM      8  C   UNL     1     -11.063  14.907  66.773  0.00  0.00    +0.086 A 
ATOM      9  O   UNL     1     -10.191  12.923  63.935  0.00  0.00    -0.286 OA
ATOM     10  C   UNL     1      -9.049  11.547  66.028  0.00  0.00    +0.036 A 
ATOM     11  N   UNL     1     -10.999  13.977  67.746  0.00  0.00    -0.327 N 
ATOM     12  C   UNL     1      -8.790  10.694  67.093  0.00  0.00    +0.154 A 
ATOM     13  F   UNL     1      -7.528  10.225  67.260  0.00  0.00    -0.203 F 
ENDROOT
BRANCH   1  17
ATOM     14  N   UNL     1     -11.144   6.320  68.258  0.00  0.00    -0.131 NA
ATOM     15  C   UNL     1     -10.239   7.196  69.198  0.00  0.00    +0.111 C 
ATOM     16  C   UNL     1     -10.699   8.585  68.456  0.00  0.00    +0.110 C 
ATOM     17  N   UNL     1      -9.687   9.502  68.949  0.00  0.00    -0.304 N 
ATOM     18  C   UNL     1      -9.017   9.560  70.229  0.00  0.00    +0.091 C 
ATOM     19  C   UNL     1      -9.791   8.950  71.349  0.00  0.00    +0.021 C 
ATOM     20  C   UNL     1     -11.207   8.611  71.043  0.00  0.00    +0.003 C 
ATOM     21  C   UNL     1     -11.421   7.322  70.327  0.00  0.00    +0.021 C 
ENDBRANCH   1  17
BRANCH   7  22
ATOM     22  C   UNL     1     -11.536  15.327  64.365  0.00  0.00    +0.392 C 
ATOM     23  O   UNL     1     -12.824  14.972  63.954  0.00  0.00    -0.240 OA
ATOM     24  O   UNL     1     -11.299  16.574  64.373  0.00  0.00    -0.240 OA
ENDBRANCH   7  22
BRANCH  11  25
ATOM     25  C   UNL     1     -11.472  14.192  69.093  0.00  0.00    +0.086 C 
ATOM     26  C   UNL     1     -12.052  15.584  69.386  0.00  0.00    +0.024 C 
ATOM     27  C   UNL     1     -10.683  15.219  69.952  0.00  0.00    +0.024 C 
ENDBRANCH  11  25
TORSDOF 3
ENDMDL
MODEL 9
REMARK VINA RESULT:      -6.8      4.051      7.883
REMARK  Name = 
REMARK  3 active torsions:
REMARK  status: ('A' for Active; 'I' for Inactive)
REMARK    1  A    between atoms: N_7  and  C_8
REMARK    2  A    between atoms: C_15  and  C_16
REMARK    3  A    between atoms: N_20  and  C_21
REMARK                            x       y       z     vdW  Elec       q    Type
REMARK                         _______ _______ _______ _____ _____    ______ ____
ROOT
ATOM      1  C   UNL     1     -11.417   9.403  70.475  0.00  0.00    +0.088 A 
ATOM      2  C   UNL     1     -10.767  10.378  69.734  0.00  0.00    +0.089 A 
ATOM      3 CL   UNL     1      -9.510   9.884  68.642  0.00  0.00    -0.079 Cl
ATOM      4  C   UNL     1     -11.235  11.683  69.662  0.00  0.00    +0.075 A 
ATOM      5  C   UNL     1     -12.137  12.047  70.652  0.00  0.00    +0.058 A 
ATOM      6  C   UNL     1     -12.546  13.360  70.728  0.00  0.00    +0.205 A 
ATOM      7  C   UNL     1     -12.139  14.186  69.684  0.00  0.00    +0.136 A 
ATOM      8  C   UNL     1     -11.718  13.613  68.491  0.00  0.00    +0.086 A 
ATOM      9  O   UNL     1     -12.887  13.823  71.858  0.00  0.00    -0.286 OA
ATOM     10  C   UNL     1     -12.853  11.112  71.382  0.00  0.00    +0.036 A 
ATOM     11  N   UNL     1     -11.200  12.369  68.492  0.00  0.00    -0.327 N 
ATOM     12  C   UNL     1     -12.503   9.773  71.259  0.00  0.00    +0.154 A 
ATOM     13  F   UNL     1     -13.459   8.830  71.449  0.00  0.00    -0.203 F 
ENDROOT
BRANCH   1  17
ATOM     14  N   UNL     1     -10.282   5.011  69.349  0.00  0.00    -0.131 NA
ATOM     15  C   UNL     1      -9.923   5.996  70.519  0.00  0.00    +0.111 C 
ATOM     16  C   UNL     1     -11.139   7.022  70.117  0.00  0.00    +0.110 C 
ATOM     17  N   UNL     1     -10.755   8.203  70.869  0.00  0.00    -0.304 N 
ATOM     18  C   UNL     1     -10.108   8.327  72.157  0.00  0.00    +0.091 C 
ATOM     19  C   UNL     1     -10.309   7.152  73.053  0.00  0.00    +0.021 C 
ATOM     20  C   UNL     1     -11.328   6.165  72.602  0.00  0.00    +0.003 C 
ATOM     21  C   UNL     1     -10.867   5.181  71.583  0.00  0.00    +0.021 C 
ENDBRANCH   1  17
BRANCH   7  22
ATOM     22  C   UNL     1     -12.195  15.638  69.858  0.00  0.00    +0.392 C 
ATOM     23  O   UNL     1     -11.544  16.146  70.986  0.00  0.00    -0.240 OA
ATOM     24  O   UNL     1     -12.108  16.358  68.817  0.00  0.00    -0.240 OA
ENDBRANCH   7  22
BRANCH  11  25
ATOM     25  C   UNL     1     -10.391  11.835  67.422  0.00  0.00    +0.086 C 
ATOM     26  C   UNL     1     -10.061  12.809  66.281  0.00  0.00    +0.024 C 
ATOM     27  C   UNL     1     -11.076  11.698  66.034  0.00  0.00    +0.024 C 
ENDBRANCH  11  25
TORSDOF 3
ENDMDL
