MODEL 1
REMARK VINA RESULT:      -6.0      0.000      0.000
REMARK  Name = 
REMARK  2 active torsions:
REMARK  status: ('A' for Active; 'I' for Inactive)
REMARK    1  A    between atoms: C_8  and  O_9
REMARK    2  A    between atoms: O_9  and  C_10
REMARK                            x       y       z     vdW  Elec       q    Type
REMARK                         _______ _______ _______ _____ _____    ______ ____
ROOT
ATOM      1  O   UNL     1      -9.436  17.141  65.621  0.00  0.00    -0.449 OA
ENDROOT
BRANCH   1   4
ATOM      2  O   UNL     1     -11.580  16.637  63.862  0.00  0.00    -0.283 OA
ATOM      3  C   UNL     1     -11.180  15.741  64.854  0.00  0.00    +0.231 A 
ATOM      4  C   UNL     1     -10.462  16.259  65.926  0.00  0.00    +0.184 A 
ATOM      5  C   UNL     1     -10.635  15.710  67.192  0.00  0.00    +0.042 A 
ATOM      6  C   UNL     1     -11.385  14.549  67.339  0.00  0.00    +0.015 A 
ATOM      7  C   UNL     1     -11.627  13.779  66.207  0.00  0.00    +0.061 A 
ATOM      8 CL   UNL     1     -11.676  12.031  66.256  0.00  0.00    -0.082 Cl
ATOM      9  C   UNL     1     -11.783  14.501  65.029  0.00  0.00    +0.057 A 
ENDBRANCH   1   4
BRANCH   1  10
ATOM     10  C   UNL     1      -8.842  17.966  66.556  0.00  0.00    +0.156 A 
ATOM     11  C   UNL     1      -7.540  17.719  66.953  0.00  0.00    +0.093 A 
ATOM     12 CL   UNL     1      -7.008  16.044  67.041  0.00  0.00    -0.079 Cl
ATOM     13  C   UNL     1      -6.705  18.748  67.352  0.00  0.00    +0.026 A 
ATOM     14  C   UNL     1      -7.188  20.048  67.360  0.00  0.00    +0.059 A 
ATOM     15 CL   UNL     1      -6.051  21.384  67.247  0.00  0.00    -0.082 Cl
ATOM     16  C   UNL     1      -8.556  20.234  67.351  0.00  0.00    +0.015 A 
ATOM     17  C   UNL     1      -9.361  19.222  66.841  0.00  0.00    +0.039 A 
ENDBRANCH   1  10
TORSDOF 2
ENDMDL
MODEL 2
REMARK VINA RESULT:      -5.9      4.720      6.497
REMARK  Name = 
REMARK  2 active torsions:
REMARK  status: ('A' for Active; 'I' for Inactive)
REMARK    1  A    between atoms: C_8  and  O_9
REMARK    2  A    between atoms: O_9  and  C_10
REMARK                            x       y       z     vdW  Elec       q    Type
REMARK                         _______ _______ _______ _____ _____    ______ ____
ROOT
ATOM      1  O   UNL     1     -12.380  13.939  66.673  0.00  0.00    -0.449 OA
ENDROOT
BRANCH   1   4
ATOM      2  O   UNL     1     -11.488  15.442  68.883  0.00  0.00    -0.283 OA
ATOM      3  C   UNL     1     -11.949  14.130  68.990  0.00  0.00    +0.231 A 
ATOM      4  C   UNL     1     -11.915  13.350  67.839  0.00  0.00    +0.184 A 
ATOM      5  C   UNL     1     -11.654  11.988  67.946  0.00  0.00    +0.042 A 
ATOM      6  C   UNL     1     -11.603  11.397  69.202  0.00  0.00    +0.015 A 
ATOM      7  C   UNL     1     -12.165  12.084  70.273  0.00  0.00    +0.061 A 
ATOM      8 CL   UNL     1     -13.003  11.269  71.573  0.00  0.00    -0.082 Cl
ATOM      9  C   UNL     1     -12.046  13.468  70.207  0.00  0.00    +0.057 A 
ENDBRANCH   1   4
BRANCH   1  10
ATOM     10  C   UNL     1     -11.971  13.551  65.412  0.00  0.00    +0.156 A 
ATOM     11  C   UNL     1     -10.653  13.733  65.036  0.00  0.00    +0.093 A 
ATOM     12 CL   UNL     1      -9.806  15.146  65.655  0.00  0.00    -0.079 Cl
ATOM     13  C   UNL     1     -10.040  12.880  64.134  0.00  0.00    +0.026 A 
ATOM     14  C   UNL     1     -10.767  11.830  63.593  0.00  0.00    +0.059 A 
ATOM     15 CL   UNL     1      -9.911  10.424  62.977  0.00  0.00    -0.082 Cl
ATOM     16  C   UNL     1     -12.145  11.891  63.659  0.00  0.00    +0.015 A 
ATOM     17  C   UNL     1     -12.730  12.672  64.648  0.00  0.00    +0.039 A 
ENDBRANCH   1  10
TORSDOF 2
ENDMDL
MODEL 3
REMARK VINA RESULT:      -5.8      1.623      2.247
REMARK  Name = 
REMARK  2 active torsions:
REMARK  status: ('A' for Active; 'I' for Inactive)
REMARK    1  A    between atoms: C_8  and  O_9
REMARK    2  A    between atoms: O_9  and  C_10
REMARK                            x       y       z     vdW  Elec       q    Type
REMARK                         _______ _______ _______ _____ _____    ______ ____
ROOT
ATOM      1  O   UNL     1      -9.847  17.795  65.822  0.00  0.00    -0.449 OA
ENDROOT
BRANCH   1   4
ATOM      2  O   UNL     1     -11.568  16.610  63.931  0.00  0.00    -0.283 OA
ATOM      3  C   UNL     1     -10.851  15.875  64.876  0.00  0.00    +0.231 A 
ATOM      4  C   UNL     1     -10.426  16.549  66.014  0.00  0.00    +0.184 A 
ATOM      5  C   UNL     1     -10.377  15.874  67.229  0.00  0.00    +0.042 A 
ATOM      6  C   UNL     1     -10.587  14.500  67.258  0.00  0.00    +0.015 A 
ATOM      7  C   UNL     1     -10.474  13.796  66.064  0.00  0.00    +0.061 A 
ATOM      8 CL   UNL     1      -9.804  12.183  65.989  0.00  0.00    -0.082 Cl
ATOM      9  C   UNL     1     -10.895  14.487  64.934  0.00  0.00    +0.057 A 
ENDBRANCH   1   4
BRANCH   1  10
ATOM     10  C   UNL     1      -8.687  18.199  66.454  0.00  0.00    +0.156 A 
ATOM     11  C   UNL     1      -8.768  18.946  67.615  0.00  0.00    +0.093 A 
ATOM     12 CL   UNL     1     -10.099  20.087  67.771  0.00  0.00    -0.079 Cl
ATOM     13  C   UNL     1      -7.790  18.863  68.591  0.00  0.00    +0.026 A 
ATOM     14  C   UNL     1      -6.705  18.022  68.393  0.00  0.00    +0.059 A 
ATOM     15 CL   UNL     1      -5.817  17.427  69.788  0.00  0.00    -0.082 Cl
ATOM     16  C   UNL     1      -6.434  17.602  67.106  0.00  0.00    +0.015 A 
ATOM     17  C   UNL     1      -7.468  17.593  66.177  0.00  0.00    +0.039 A 
ENDBRANCH   1  10
TORSDOF 2
ENDMDL
MODEL 4
REMARK VINA RESULT:      -5.8      4.854      5.788
REMARK  Name = 
REMARK  2 active torsions:
REMARK  status: ('A' for Active; 'I' for Inactive)
REMARK    1  A    between atoms: C_8  and  O_9
REMARK    2  A    between atoms: O_9  and  C_10
REMARK                            x       y       z     vdW  Elec       q    Type
REMARK                         _______ _______ _______ _____ _____    ______ ____
ROOT
ATOM      1  O   UNL     1     -10.818  14.196  68.358  0.00  0.00    -0.449 OA
ENDROOT
BRANCH   1   4
ATOM      2  O   UNL     1      -8.996  15.055  66.388  0.00  0.00    -0.283 OA
ATOM      3  C   UNL     1     -10.035  14.161  66.127  0.00  0.00    +0.231 A 
ATOM      4  C   UNL     1     -11.114  14.172  67.004  0.00  0.00    +0.184 A 
ATOM      5  C   UNL     1     -12.392  13.922  66.515  0.00  0.00    +0.042 A 
ATOM      6  C   UNL     1     -12.553  13.498  65.201  0.00  0.00    +0.015 A 
ATOM      7  C   UNL     1     -11.441  12.990  64.537  0.00  0.00    +0.061 A 
ATOM      8 CL   UNL     1     -11.553  11.666  63.400  0.00  0.00    -0.082 Cl
ATOM      9  C   UNL     1     -10.232  13.586  64.878  0.00  0.00    +0.057 A 
ENDBRANCH   1   4
BRANCH   1  10
ATOM     10  C   UNL     1     -11.778  14.327  69.343  0.00  0.00    +0.156 A 
ATOM     11  C   UNL     1     -12.082  13.243  70.147  0.00  0.00    +0.093 A 
ATOM     12 CL   UNL     1     -12.011  11.637  69.429  0.00  0.00    -0.079 Cl
ATOM     13  C   UNL     1     -12.510  13.415  71.451  0.00  0.00    +0.026 A 
ATOM     14  C   UNL     1     -12.644  14.700  71.956  0.00  0.00    +0.059 A 
ATOM     15 CL   UNL     1     -12.570  14.950  73.694  0.00  0.00    -0.082 Cl
ATOM     16  C   UNL     1     -12.727  15.746  71.058  0.00  0.00    +0.015 A 
ATOM     17  C   UNL     1     -12.187  15.577  69.788  0.00  0.00    +0.039 A 
ENDBRANCH   1  10
TORSDOF 2
ENDMDL
MODEL 5
REMARK VINA RESULT:      -5.8      4.157      7.423
REMARK  Name = 
REMARK  2 active torsions:
REMARK  status: ('A' for Active; 'I' for Inactive)
REMARK    1  A    between atoms: C_8  and  O_9
REMARK    2  A    between atoms: O_9  and  C_10
REMARK                            x       y       z     vdW  Elec       q    Type
REMARK                         _______ _______ _______ _____ _____    ______ ____
ROOT
ATOM      1  O   UNL     1     -11.934  11.513  66.917  0.00  0.00    -0.449 OA
ENDROOT
BRANCH   1   4
ATOM      2  O   UNL     1     -13.246  12.573  64.660  0.00  0.00    -0.283 OA
ATOM      3  C   UNL     1     -12.261  13.266  65.365  0.00  0.00    +0.231 A 
ATOM      4  C   UNL     1     -11.380  12.511  66.130  0.00  0.00    +0.184 A 
ATOM      5  C   UNL     1     -10.059  12.927  66.258  0.00  0.00    +0.042 A 
ATOM      6  C   UNL     1      -9.682  14.172  65.766  0.00  0.00    +0.015 A 
ATOM      7  C   UNL     1     -10.682  15.101  65.500  0.00  0.00    +0.061 A 
ATOM      8 CL   UNL     1     -10.469  16.813  65.783  0.00  0.00    -0.082 Cl
ATOM      9  C   UNL     1     -11.876  14.559  65.035  0.00  0.00    +0.057 A 
ENDBRANCH   1   4
BRANCH   1  10
ATOM     10  C   UNL     1     -11.431  11.154  68.153  0.00  0.00    +0.156 A 
ATOM     11  C   UNL     1     -11.842  11.839  69.282  0.00  0.00    +0.093 A 
ATOM     12 CL   UNL     1     -12.183  13.559  69.124  0.00  0.00    -0.079 Cl
ATOM     13  C   UNL     1     -11.902  11.216  70.516  0.00  0.00    +0.026 A 
ATOM     14  C   UNL     1     -11.536   9.883  70.621  0.00  0.00    +0.059 A 
ATOM     15 CL   UNL     1     -12.166   8.924  71.952  0.00  0.00    -0.082 Cl
ATOM     16  C   UNL     1     -10.770   9.337  69.609  0.00  0.00    +0.015 A 
ATOM     17  C   UNL     1     -10.817   9.923  68.350  0.00  0.00    +0.039 A 
ENDBRANCH   1  10
TORSDOF 2
ENDMDL
MODEL 6
REMARK VINA RESULT:      -5.7      4.156      5.507
REMARK  Name = 
REMARK  2 active torsions:
REMARK  status: ('A' for Active; 'I' for Inactive)
REMARK    1  A    between atoms: C_8  and  O_9
REMARK    2  A    between atoms: O_9  and  C_10
REMARK                            x       y       z     vdW  Elec       q    Type
REMARK                         _______ _______ _______ _____ _____    ______ ____
ROOT
ATOM      1  O   UNL     1     -11.568  14.543  67.316  0.00  0.00    -0.449 OA
ENDROOT
BRANCH   1   4
ATOM      2  O   UNL     1     -13.623  14.032  65.457  0.00  0.00    -0.283 OA
ATOM      3  C   UNL     1     -12.369  13.423  65.394  0.00  0.00    +0.231 A 
ATOM      4  C   UNL     1     -11.628  13.376  66.569  0.00  0.00    +0.184 A 
ATOM      5  C   UNL     1     -10.809  12.279  66.816  0.00  0.00    +0.042 A 
ATOM      6  C   UNL     1     -10.611  11.333  65.816  0.00  0.00    +0.015 A 
ATOM      7  C   UNL     1     -10.926  11.687  64.509  0.00  0.00    +0.061 A 
ATOM      8 CL   UNL     1      -9.988  11.140  63.138  0.00  0.00    -0.082 Cl
ATOM      9  C   UNL     1     -12.016  12.542  64.380  0.00  0.00    +0.057 A 
ENDBRANCH   1   4
BRANCH   1  10
ATOM     10  C   UNL     1     -11.547  14.559  68.697  0.00  0.00    +0.156 A 
ATOM     11  C   UNL     1     -11.382  15.761  69.362  0.00  0.00    +0.093 A 
ATOM     12 CL   UNL     1     -10.353  16.981  68.619  0.00  0.00    -0.079 Cl
ATOM     13  C   UNL     1     -11.937  15.971  70.612  0.00  0.00    +0.026 A 
ATOM     14  C   UNL     1     -12.665  14.952  71.210  0.00  0.00    +0.059 A 
ATOM     15 CL   UNL     1     -13.859  15.357  72.434  0.00  0.00    -0.082 Cl
ATOM     16  C   UNL     1     -12.491  13.666  70.738  0.00  0.00    +0.015 A 
ATOM     17  C   UNL     1     -12.035  13.490  69.438  0.00  0.00    +0.039 A 
ENDBRANCH   1  10
TORSDOF 2
ENDMDL
MODEL 7
REMARK VINA RESULT:      -5.6      4.113      6.342
REMARK  Name = 
REMARK  2 active torsions:
REMARK  status: ('A' for Active; 'I' for Inactive)
REMARK    1  A    between atoms: C_8  and  O_9
REMARK    2  A    between atoms: O_9  and  C_10
REMARK                            x       y       z     vdW  Elec       q    Type
REMARK                         _______ _______ _______ _____ _____    ______ ____
ROOT
ATOM      1  O   UNL     1     -10.776  14.176  68.485  0.00  0.00    -0.449 OA
ENDROOT
BRANCH   1   4
ATOM      2  O   UNL     1     -12.242  12.018  69.548  0.00  0.00    -0.283 OA
ATOM      3  C   UNL     1     -12.043  13.216  70.235  0.00  0.00    +0.231 A 
ATOM      4  C   UNL     1     -11.733  14.338  69.475  0.00  0.00    +0.184 A 
ATOM      5  C   UNL     1     -12.198  15.585  69.879  0.00  0.00    +0.042 A 
ATOM      6  C   UNL     1     -12.814  15.718  71.118  0.00  0.00    +0.015 A 
ATOM      7  C   UNL     1     -12.623  14.708  72.055  0.00  0.00    +0.061 A 
ATOM      8 CL   UNL     1     -12.475  15.034  73.767  0.00  0.00    -0.082 Cl
ATOM      9  C   UNL     1     -12.517  13.427  71.523  0.00  0.00    +0.057 A 
ENDBRANCH   1   4
BRANCH   1  10
ATOM     10  C   UNL     1     -11.054  14.283  67.136  0.00  0.00    +0.156 A 
ATOM     11  C   UNL     1     -10.012  14.327  66.226  0.00  0.00    +0.093 A 
ATOM     12 CL   UNL     1      -8.526  15.134  66.713  0.00  0.00    -0.079 Cl
ATOM     13  C   UNL     1     -10.159  13.829  64.943  0.00  0.00    +0.026 A 
ATOM     14  C   UNL     1     -11.376  13.284  64.563  0.00  0.00    +0.059 A 
ATOM     15 CL   UNL     1     -11.421  12.127  63.241  0.00  0.00    -0.082 Cl
ATOM     16  C   UNL     1     -12.492  13.598  65.314  0.00  0.00    +0.015 A 
ATOM     17  C   UNL     1     -12.316  13.990  66.635  0.00  0.00    +0.039 A 
ENDBRANCH   1  10
TORSDOF 2
ENDMDL
MODEL 8
REMARK VINA RESULT:      -5.6      2.107      6.011
REMARK  Name = 
REMARK  2 active torsions:
REMARK  status: ('A' for Active; 'I' for Inactive)
REMARK    1  A    between atoms: C_8  and  O_9
REMARK    2  A    between atoms: O_9  and  C_10
REMARK                            x       y       z     vdW  Elec       q    Type
REMARK                         _______ _______ _______ _____ _____    ______ ____
ROOT
ATOM      1  O   UNL     1     -10.069  14.726  65.735  0.00  0.00    -0.449 OA
ENDROOT
BRANCH   1   4
ATOM      2  O   UNL     1     -11.240  16.847  64.296  0.00  0.00    -0.283 OA
ATOM      3  C   UNL     1     -10.577  17.024  65.510  0.00  0.00    +0.231 A 
ATOM      4  C   UNL     1      -9.664  16.044  65.883  0.00  0.00    +0.184 A 
ATOM      5  C   UNL     1      -8.522  16.408  66.589  0.00  0.00    +0.042 A 
ATOM      6  C   UNL     1      -8.393  17.710  67.058  0.00  0.00    +0.015 A 
ATOM      7  C   UNL     1      -9.538  18.495  67.134  0.00  0.00    +0.061 A 
ATOM      8 CL   UNL     1      -9.799  19.649  68.421  0.00  0.00    -0.082 Cl
ATOM      9  C   UNL     1     -10.476  18.262  66.134  0.00  0.00    +0.057 A 
ENDBRANCH   1   4
BRANCH   1  10
ATOM     10  C   UNL     1     -10.983  14.114  66.571  0.00  0.00    +0.156 A 
ATOM     11  C   UNL     1     -11.369  12.810  66.321  0.00  0.00    +0.093 A 
ATOM     12 CL   UNL     1     -11.478  12.288  64.644  0.00  0.00    -0.079 Cl
ATOM     13  C   UNL     1     -11.741  11.963  67.351  0.00  0.00    +0.026 A 
ATOM     14  C   UNL     1     -11.734  12.436  68.654  0.00  0.00    +0.059 A 
ATOM     15 CL   UNL     1     -11.585  11.292  69.980  0.00  0.00    -0.082 Cl
ATOM     16  C   UNL     1     -11.738  13.803  68.849  0.00  0.00    +0.015 A 
ATOM     17  C   UNL     1     -11.254  14.621  67.836  0.00  0.00    +0.039 A 
ENDBRANCH   1  10
TORSDOF 2
ENDMDL
MODEL 9
REMARK VINA RESULT:      -5.5      4.457      6.350
REMARK  Name = 
REMARK  2 active torsions:
REMARK  status: ('A' for Active; 'I' for Inactive)
REMARK    1  A    between atoms: C_8  and  O_9
REMARK    2  A    between atoms: O_9  and  C_10
REMARK                            x       y       z     vdW  Elec       q    Type
REMARK                         _______ _______ _______ _____ _____    ______ ____
ROOT
ATOM      1  O   UNL     1     -11.689  14.716  67.685  0.00  0.00    -0.449 OA
ENDROOT
BRANCH   1   4
ATOM      2  O   UNL     1      -9.804  15.656  65.813  0.00  0.00    -0.283 OA
ATOM      3  C   UNL     1     -10.494  14.453  65.662  0.00  0.00    +0.231 A 
ATOM      4  C   UNL     1     -11.690  14.316  66.357  0.00  0.00    +0.184 A 
ATOM      5  C   UNL     1     -12.730  13.588  65.789  0.00  0.00    +0.042 A 
ATOM      6  C   UNL     1     -12.505  12.868  64.622  0.00  0.00    +0.015 A 
ATOM      7  C   UNL     1     -11.188  12.598  64.263  0.00  0.00    +0.061 A 
ATOM      8 CL   UNL     1     -10.713  11.095  63.506  0.00  0.00    -0.082 Cl
ATOM      9  C   UNL     1     -10.275  13.595  64.592  0.00  0.00    +0.057 A 
ENDBRANCH   1   4
BRANCH   1  10
ATOM     10  C   UNL     1     -11.480  13.848  68.739  0.00  0.00    +0.156 A 
ATOM     11  C   UNL     1     -12.107  14.082  69.950  0.00  0.00    +0.093 A 
ATOM     12 CL   UNL     1     -12.353  15.754  70.442  0.00  0.00    -0.079 Cl
ATOM     13  C   UNL     1     -12.455  13.039  70.790  0.00  0.00    +0.026 A 
ATOM     14  C   UNL     1     -12.162  11.738  70.412  0.00  0.00    +0.059 A 
ATOM     15 CL   UNL     1     -13.097  10.416  71.096  0.00  0.00    -0.082 Cl
ATOM     16  C   UNL     1     -11.210  11.545  69.430  0.00  0.00    +0.015 A 
ATOM     17  C   UNL     1     -10.963  12.576  68.532  0.00  0.00    +0.039 A 
ENDBRANCH   1  10
TORSDOF 2
ENDMDL
