MODEL 1
REMARK VINA RESULT:      -7.6      0.000      0.000
REMARK  Name = 
REMARK  9 active torsions:
REMARK  status: ('A' for Active; 'I' for Inactive)
REMARK    1  A    between atoms: C_2  and  C_3
REMARK    2  A    between atoms: C_9  and  C_10
REMARK    3  A    between atoms: C_33  and  O_34
REMARK    4  A    between atoms: C_41  and  C_42
REMARK    5  A    between atoms: N_44  and  C_45
REMARK    6  A    between atoms: C_45  and  C_46
REMARK    7  A    between atoms: N_48  and  S_49
REMARK    8  A    between atoms: S_49  and  C_52
REMARK    9  A    between atoms: C_57  and  C_58
REMARK                            x       y       z     vdW  Elec       q    Type
REMARK                         _______ _______ _______ _____ _____    ______ ____
ROOT
ATOM      1  C   UNL     1     -10.792   8.363  69.482  0.00  0.00    +0.069 C 
ATOM      2  C   UNL     1     -10.502   9.002  67.933  0.00  0.00    +0.157 C 
ATOM      3  N   UNL     1      -9.045   8.427  67.851  0.00  0.00    -0.268 N 
ATOM      4  C   UNL     1      -8.064   8.841  67.059  0.00  0.00    +0.246 C 
ATOM      5  C   UNL     1      -7.218   7.898  66.080  0.00  0.00    +0.174 C 
ATOM      6  N   UNL     1      -8.411   7.157  65.368  0.00  0.00    -0.161 NA
ATOM      7  C   UNL     1      -7.934   6.201  64.417  0.00  0.00    +0.421 C 
ATOM      8  O   UNL     1      -6.616   5.875  64.262  0.00  0.00    -0.437 OA
ATOM      9  C   UNL     1      -5.736   6.067  65.529  0.00  0.00    +0.171 C 
ATOM     10  C   UNL     1      -5.994   4.440  65.981  0.00  0.00    +0.044 C 
ATOM     11  C   UNL     1      -5.076   4.656  67.325  0.00  0.00    +0.004 C 
ATOM     12  C   UNL     1      -5.563   3.677  68.328  0.00  0.00    +0.000 C 
ATOM     13  C   UNL     1      -6.473   4.424  69.205  0.00  0.00    +0.006 C 
ATOM     14  C   UNL     1      -6.019   5.758  69.762  0.00  0.00    +0.073 C 
ATOM     15  C   UNL     1      -7.204   6.378  70.566  0.00  0.00    +0.303 C 
ATOM     16  C   UNL     1      -8.235   5.370  70.670  0.00  0.00    +0.172 A 
ATOM     17  C   UNL     1      -9.622   5.648  70.706  0.00  0.00    +0.244 A 
ATOM     18  O   UNL     1      -9.806   6.940  70.727  0.00  0.00    -0.461 OA
ATOM     19  N   UNL     1     -10.445   4.976  71.564  0.00  0.00    -0.209 NA
ATOM     20  C   UNL     1      -9.953   3.982  72.347  0.00  0.00    +0.105 A 
ATOM     21  C   UNL     1      -8.896   3.300  71.753  0.00  0.00    +0.099 A 
ATOM     22  C   UNL     1      -8.669   2.021  72.168  0.00  0.00    +0.024 A 
ATOM     23  C   UNL     1      -9.564   1.443  73.071  0.00  0.00    +0.039 A 
ATOM     24  C   UNL     1     -10.213   2.313  73.953  0.00  0.00    +0.140 A 
ATOM     25  C   UNL     1     -10.472   3.616  73.566  0.00  0.00    +0.058 A 
ATOM     26  N   UNL     1      -7.996   4.122  71.185  0.00  0.00    -0.238 NA
ATOM     27  F   UNL     1      -6.598   5.926  71.802  0.00  0.00    -0.198 F 
ATOM     28  F   UNL     1      -7.026   7.535  71.135  0.00  0.00    -0.198 F 
ATOM     29  C   UNL     1      -4.663   4.853  64.981  0.00  0.00    +0.047 C 
ATOM     30  O   UNL     1      -8.653   5.893  63.417  0.00  0.00    -0.225 OA
ATOM     31  O   UNL     1      -7.578   9.979  67.268  0.00  0.00    -0.273 OA
ATOM     32  C   UNL     1      -9.187   7.106  68.361  0.00  0.00    +0.137 C 
ATOM     33  C   UNL     1      -9.166   7.957  69.792  0.00  0.00    +0.189 C 
ENDROOT
BRANCH   5  34
ATOM     34  C   UNL     1      -7.146   9.092  64.934  0.00  0.00    +0.027 C 
ATOM     35  C   UNL     1      -6.527  10.295  65.347  0.00  0.00    +0.002 C 
ATOM     36  C   UNL     1      -8.519   9.244  64.418  0.00  0.00    +0.002 C 
ATOM     37  C   UNL     1      -6.125   8.643  63.914  0.00  0.00    +0.002 C 
ENDBRANCH   5  34
BRANCH   2  38
ATOM     38  C   UNL     1     -10.098  10.494  68.329  0.00  0.00    +0.260 C 
ATOM     39  N   UNL     1     -11.175  11.262  67.792  0.00  0.00    -0.198 NA
ATOM     40  O   UNL     1      -9.399  10.912  69.106  0.00  0.00    -0.272 OA
BRANCH  39  41
ATOM     41  C   UNL     1     -10.921  12.610  67.360  0.00  0.00    +0.155 C 
ATOM     42  C   UNL     1     -10.343  12.734  65.836  0.00  0.00    +0.096 C 
ATOM     43  C   UNL     1     -11.987  12.737  66.106  0.00  0.00    +0.037 C 
BRANCH  42  44
ATOM     44  C   UNL     1     -10.231  14.374  65.675  0.00  0.00    +0.321 C 
ATOM     45  F   UNL     1     -10.996  14.743  64.643  0.00  0.00    -0.198 F 
ATOM     46  F   UNL     1      -9.201  14.958  65.973  0.00  0.00    -0.198 F 
ENDBRANCH  42  44
BRANCH  41  47
ATOM     47  C   UNL     1     -10.907  13.568  68.324  0.00  0.00    +0.280 C 
ATOM     48  N   UNL     1     -11.802  13.442  69.441  0.00  0.00    -0.062 NA
ATOM     49  O   UNL     1      -9.787  14.039  68.697  0.00  0.00    -0.270 OA
BRANCH  48  50
ATOM     50  S   UNL     1     -12.070  14.844  70.438  0.00  0.00    +0.072 S 
ATOM     51  O   UNL     1     -10.819  15.310  71.107  0.00  0.00    -0.153 OA
ATOM     52  O   UNL     1     -12.529  15.951  69.523  0.00  0.00    -0.153 OA
BRANCH  50  53
ATOM     53  C   UNL     1     -13.350  14.391  71.565  0.00  0.00    +0.131 C 
ATOM     54  C   UNL     1     -14.663  15.137  71.374  0.00  0.00    +0.026 C 
ATOM     55  C   UNL     1     -13.765  15.430  72.593  0.00  0.00    +0.026 C 
ATOM     56  C   UNL     1     -13.412  12.983  72.081  0.00  0.00    +0.026 C 
ENDBRANCH  50  53
ENDBRANCH  48  50
ENDBRANCH  41  47
ENDBRANCH  39  41
ENDBRANCH   2  38
BRANCH  24  57
ATOM     57  O   UNL     1     -10.499   1.990  75.260  0.00  0.00    -0.471 OA
ATOM     58  C   UNL     1      -9.711   2.350  76.362  0.00  0.00    +0.252 C 
ENDBRANCH  24  57
BRANCH   1  60
ATOM     59  C   UNL     1     -11.872   9.644  71.261  0.00  0.00    +0.000 C 
ATOM     60  C   UNL     1     -10.815   9.687  70.382  0.00  0.00    +0.006 C 
ENDBRANCH   1  60
TORSDOF 9
ENDMDL
MODEL 2
REMARK VINA RESULT:      -7.1      4.314     10.612
REMARK  Name = 
REMARK  9 active torsions:
REMARK  status: ('A' for Active; 'I' for Inactive)
REMARK    1  A    between atoms: C_2  and  C_3
REMARK    2  A    between atoms: C_9  and  C_10
REMARK    3  A    between atoms: C_33  and  O_34
REMARK    4  A    between atoms: C_41  and  C_42
REMARK    5  A    between atoms: N_44  and  C_45
REMARK    6  A    between atoms: C_45  and  C_46
REMARK    7  A    between atoms: N_48  and  S_49
REMARK    8  A    between atoms: S_49  and  C_52
REMARK    9  A    between atoms: C_57  and  C_58
REMARK                            x       y       z     vdW  Elec       q    Type
REMARK                         _______ _______ _______ _____ _____    ______ ____
ROOT
ATOM      1  C   UNL     1      -5.064  12.564  68.703  0.00  0.00    +0.069 C 
ATOM      2  C   UNL     1      -5.782  11.050  68.418  0.00  0.00    +0.157 C 
ATOM      3  N   UNL     1      -7.217  11.649  68.212  0.00  0.00    -0.268 N 
ATOM      4  C   UNL     1      -8.375  11.008  68.309  0.00  0.00    +0.246 C 
ATOM      5  C   UNL     1      -9.511  10.994  67.182  0.00  0.00    +0.174 C 
ATOM      6  N   UNL     1      -8.617  10.616  65.943  0.00  0.00    -0.161 NA
ATOM      7  C   UNL     1      -9.395  10.551  64.743  0.00  0.00    +0.421 C 
ATOM      8  O   UNL     1     -10.709  10.915  64.668  0.00  0.00    -0.437 OA
ATOM      9  C   UNL     1     -11.158  11.979  65.709  0.00  0.00    +0.171 C 
ATOM     10  C   UNL     1     -10.839  13.235  64.596  0.00  0.00    +0.044 C 
ATOM     11  C   UNL     1     -11.300  14.352  65.707  0.00  0.00    +0.004 C 
ATOM     12  C   UNL     1     -10.570  15.601  65.375  0.00  0.00    +0.000 C 
ATOM     13  C   UNL     1      -9.411  15.637  66.275  0.00  0.00    +0.006 C 
ATOM     14  C   UNL     1      -9.625  15.380  67.753  0.00  0.00    +0.073 C 
ATOM     15  C   UNL     1      -8.231  15.374  68.452  0.00  0.00    +0.303 C 
ATOM     16  C   UNL     1      -7.255  15.822  67.484  0.00  0.00    +0.172 A 
ATOM     17  C   UNL     1      -5.912  15.379  67.440  0.00  0.00    +0.244 A 
ATOM     18  O   UNL     1      -5.682  14.589  68.454  0.00  0.00    -0.461 OA
ATOM     19  N   UNL     1      -4.895  16.258  67.204  0.00  0.00    -0.209 NA
ATOM     20  C   UNL     1      -5.166  17.562  66.941  0.00  0.00    +0.105 A 
ATOM     21  C   UNL     1      -6.378  17.740  66.281  0.00  0.00    +0.099 A 
ATOM     22  C   UNL     1      -6.517  18.869  65.529  0.00  0.00    +0.024 A 
ATOM     23  C   UNL     1      -5.414  19.712  65.378  0.00  0.00    +0.039 A 
ATOM     24  C   UNL     1      -4.497  19.737  66.435  0.00  0.00    +0.140 A 
ATOM     25  C   UNL     1      -4.317  18.609  67.215  0.00  0.00    +0.058 A 
ATOM     26  N   UNL     1      -7.375  17.013  66.814  0.00  0.00    -0.238 NA
ATOM     27  F   UNL     1      -8.453  16.734  68.900  0.00  0.00    -0.198 F 
ATOM     28  F   UNL     1      -8.185  15.170  69.736  0.00  0.00    -0.198 F 
ATOM     29  C   UNL     1     -12.392  12.510  64.650  0.00  0.00    +0.047 C 
ATOM     30  O   UNL     1      -9.022   9.798  63.790  0.00  0.00    -0.225 OA
ATOM     31  O   UNL     1      -8.732  10.604  69.443  0.00  0.00    -0.273 OA
ATOM     32  C   UNL     1      -6.978  12.795  67.402  0.00  0.00    +0.137 C 
ATOM     33  C   UNL     1      -6.535  13.404  68.886  0.00  0.00    +0.189 C 
ENDROOT
BRANCH   5  34
ATOM     34  C   UNL     1      -9.880   9.416  67.522  0.00  0.00    +0.027 C 
ATOM     35  C   UNL     1     -10.562   8.716  66.500  0.00  0.00    +0.002 C 
ATOM     36  C   UNL     1     -10.564   9.431  68.829  0.00  0.00    +0.002 C 
ATOM     37  C   UNL     1      -8.573   8.656  67.493  0.00  0.00    +0.002 C 
ENDBRANCH   5  34
BRANCH   2  38
ATOM     38  C   UNL     1      -5.992  10.564  69.924  0.00  0.00    +0.260 C 
ATOM     39  N   UNL     1      -5.058   9.489  70.037  0.00  0.00    -0.198 NA
ATOM     40  O   UNL     1      -6.437  11.061  70.829  0.00  0.00    -0.272 OA
BRANCH  39  41
ATOM     41  C   UNL     1      -5.349   8.406  70.937  0.00  0.00    +0.155 C 
ATOM     42  C   UNL     1      -4.229   8.179  72.107  0.00  0.00    +0.096 C 
ATOM     43  C   UNL     1      -5.501   9.224  72.363  0.00  0.00    +0.037 C 
BRANCH  42  44
ATOM     44  C   UNL     1      -4.907   6.933  72.953  0.00  0.00    +0.321 C 
ATOM     45  F   UNL     1      -4.746   7.182  74.256  0.00  0.00    -0.198 F 
ATOM     46  F   UNL     1      -4.913   5.802  72.494  0.00  0.00    -0.198 F 
ENDBRANCH  42  44
BRANCH  41  47
ATOM     47  C   UNL     1      -6.326   7.541  70.557  0.00  0.00    +0.280 C 
ATOM     48  N   UNL     1      -7.680   7.799  70.965  0.00  0.00    -0.062 NA
ATOM     49  O   UNL     1      -6.294   7.068  69.378  0.00  0.00    -0.270 OA
BRANCH  48  50
ATOM     50  S   UNL     1      -8.837   6.505  70.831  0.00  0.00    +0.072 S 
ATOM     51  O   UNL     1      -9.088   6.115  69.412  0.00  0.00    -0.153 OA
ATOM     52  O   UNL     1      -8.237   5.309  71.526  0.00  0.00    -0.153 OA
BRANCH  50  53
ATOM     53  C   UNL     1     -10.279   7.065  71.680  0.00  0.00    +0.131 C 
ATOM     54  C   UNL     1     -10.147   8.438  72.325  0.00  0.00    +0.026 C 
ATOM     55  C   UNL     1     -10.194   7.164  73.194  0.00  0.00    +0.026 C 
ATOM     56  C   UNL     1     -11.633   6.649  71.184  0.00  0.00    +0.026 C 
ENDBRANCH  50  53
ENDBRANCH  48  50
ENDBRANCH  41  47
ENDBRANCH  39  41
ENDBRANCH   2  38
BRANCH  24  57
ATOM     57  O   UNL     1      -3.843  20.878  66.841  0.00  0.00    -0.471 OA
ATOM     58  C   UNL     1      -3.437  21.912  65.987  0.00  0.00    +0.252 C 
ENDBRANCH  24  57
BRANCH   1  60
ATOM     59  C   UNL     1      -3.425  12.878  70.490  0.00  0.00    +0.000 C 
ATOM     60  C   UNL     1      -4.720  12.474  70.265  0.00  0.00    +0.006 C 
ENDBRANCH   1  60
TORSDOF 9
ENDMDL
MODEL 3
REMARK VINA RESULT:      -6.9      5.101     10.831
REMARK  Name = 
REMARK  9 active torsions:
REMARK  status: ('A' for Active; 'I' for Inactive)
REMARK    1  A    between atoms: C_2  and  C_3
REMARK    2  A    between atoms: C_9  and  C_10
REMARK    3  A    between atoms: C_33  and  O_34
REMARK    4  A    between atoms: C_41  and  C_42
REMARK    5  A    between atoms: N_44  and  C_45
REMARK    6  A    between atoms: C_45  and  C_46
REMARK    7  A    between atoms: N_48  and  S_49
REMARK    8  A    between atoms: S_49  and  C_52
REMARK    9  A    between atoms: C_57  and  C_58
REMARK                            x       y       z     vdW  Elec       q    Type
REMARK                         _______ _______ _______ _____ _____    ______ ____
ROOT
ATOM      1  C   UNL     1      -4.952  13.189  68.811  0.00  0.00    +0.069 C 
ATOM      2  C   UNL     1      -5.500  11.598  68.565  0.00  0.00    +0.157 C 
ATOM      3  N   UNL     1      -6.975  12.039  68.264  0.00  0.00    -0.268 N 
ATOM      4  C   UNL     1      -8.067  11.288  68.337  0.00  0.00    +0.246 C 
ATOM      5  C   UNL     1      -9.137  11.110  67.160  0.00  0.00    +0.174 C 
ATOM      6  N   UNL     1      -8.148  10.774  65.983  0.00  0.00    -0.161 NA
ATOM      7  C   UNL     1      -8.852  10.579  64.753  0.00  0.00    +0.421 C 
ATOM      8  O   UNL     1     -10.191  10.804  64.600  0.00  0.00    -0.437 OA
ATOM      9  C   UNL     1     -10.797  11.859  65.567  0.00  0.00    +0.171 C 
ATOM     10  C   UNL     1     -10.547  13.093  64.412  0.00  0.00    +0.044 C 
ATOM     11  C   UNL     1     -11.174  14.204  65.446  0.00  0.00    +0.004 C 
ATOM     12  C   UNL     1     -10.556  15.505  65.089  0.00  0.00    +0.000 C 
ATOM     13  C   UNL     1      -9.454  15.697  66.040  0.00  0.00    +0.006 C 
ATOM     14  C   UNL     1      -9.717  15.483  67.516  0.00  0.00    +0.073 C 
ATOM     15  C   UNL     1      -8.366  15.648  68.280  0.00  0.00    +0.303 C 
ATOM     16  C   UNL     1      -7.392  16.152  67.338  0.00  0.00    +0.172 A 
ATOM     17  C   UNL     1      -6.011  15.846  67.378  0.00  0.00    +0.244 A 
ATOM     18  O   UNL     1      -5.756  15.128  68.437  0.00  0.00    -0.461 OA
ATOM     19  N   UNL     1      -5.076  16.814  67.148  0.00  0.00    -0.209 NA
ATOM     20  C   UNL     1      -5.462  18.072  66.812  0.00  0.00    +0.105 A 
ATOM     21  C   UNL     1      -6.650  18.097  66.088  0.00  0.00    +0.099 A 
ATOM     22  C   UNL     1      -6.862  19.172  65.278  0.00  0.00    +0.024 A 
ATOM     23  C   UNL     1      -5.842  20.117  65.139  0.00  0.00    +0.039 A 
ATOM     24  C   UNL     1      -4.988  20.280  66.235  0.00  0.00    +0.140 A 
ATOM     25  C   UNL     1      -4.737  19.210  67.075  0.00  0.00    +0.058 A 
ATOM     26  N   UNL     1      -7.596  17.295  66.608  0.00  0.00    -0.238 NA
ATOM     27  F   UNL     1      -8.745  16.996  68.652  0.00  0.00    -0.198 F 
ATOM     28  F   UNL     1      -8.366  15.505  69.573  0.00  0.00    -0.198 F 
ATOM     29  C   UNL     1     -12.021  12.217  64.427  0.00  0.00    +0.047 C 
ATOM     30  O   UNL     1      -8.358   9.828  63.855  0.00  0.00    -0.225 OA
ATOM     31  O   UNL     1      -8.440  10.898  69.470  0.00  0.00    -0.273 OA
ATOM     32  C   UNL     1      -6.811  13.168  67.413  0.00  0.00    +0.137 C 
ATOM     33  C   UNL     1      -6.507  13.882  68.885  0.00  0.00    +0.189 C 
ENDROOT
BRANCH   5  34
ATOM     34  C   UNL     1      -9.364   9.519  67.557  0.00  0.00    +0.027 C 
ATOM     35  C   UNL     1      -9.882   9.282  68.851  0.00  0.00    +0.002 C 
ATOM     36  C   UNL     1      -8.087   8.841  67.264  0.00  0.00    +0.002 C 
ATOM     37  C   UNL     1     -10.544   9.040  66.742  0.00  0.00    +0.002 C 
ENDBRANCH   5  34
BRANCH   2  38
ATOM     38  C   UNL     1      -5.737  11.158  70.080  0.00  0.00    +0.260 C 
ATOM     39  N   UNL     1      -4.977   9.953  70.177  0.00  0.00    -0.198 NA
ATOM     40  O   UNL     1      -6.074  11.723  70.993  0.00  0.00    -0.272 OA
BRANCH  39  41
ATOM     41  C   UNL     1      -5.404   8.933  71.095  0.00  0.00    +0.155 C 
ATOM     42  C   UNL     1      -6.806   8.197  70.686  0.00  0.00    +0.096 C 
ATOM     43  C   UNL     1      -5.356   7.602  70.120  0.00  0.00    +0.037 C 
BRANCH  42  44
ATOM     44  C   UNL     1      -6.944   7.085  71.898  0.00  0.00    +0.321 C 
ATOM     45  F   UNL     1      -7.094   5.880  71.341  0.00  0.00    -0.198 F 
ATOM     46  F   UNL     1      -7.460   7.387  72.962  0.00  0.00    -0.198 F 
ENDBRANCH  42  44
BRANCH  41  47
ATOM     47  C   UNL     1      -4.782   8.898  72.303  0.00  0.00    +0.280 C 
ATOM     48  N   UNL     1      -5.335   9.657  73.391  0.00  0.00    -0.062 NA
ATOM     49  O   UNL     1      -4.321   7.789  72.718  0.00  0.00    -0.270 OA
BRANCH  48  50
ATOM     50  S   UNL     1      -4.334   9.936  74.788  0.00  0.00    +0.072 S 
ATOM     51  O   UNL     1      -4.466   8.850  75.804  0.00  0.00    -0.153 OA
ATOM     52  O   UNL     1      -2.904   9.931  74.310  0.00  0.00    -0.153 OA
BRANCH  50  53
ATOM     53  C   UNL     1      -4.789  11.531  75.390  0.00  0.00    +0.131 C 
ATOM     54  C   UNL     1      -4.656  12.658  74.376  0.00  0.00    +0.026 C 
ATOM     55  C   UNL     1      -3.673  12.548  75.560  0.00  0.00    +0.026 C 
ATOM     56  C   UNL     1      -5.863  11.646  76.431  0.00  0.00    +0.026 C 
ENDBRANCH  50  53
ENDBRANCH  48  50
ENDBRANCH  41  47
ENDBRANCH  39  41
ENDBRANCH   2  38
BRANCH  24  57
ATOM     57  O   UNL     1      -4.473  21.497  66.616  0.00  0.00    -0.471 OA
ATOM     58  C   UNL     1      -3.231  22.002  66.209  0.00  0.00    +0.252 C 
ENDBRANCH  24  57
BRANCH   1  60
ATOM     59  C   UNL     1      -3.482  13.815  70.661  0.00  0.00    +0.000 C 
ATOM     60  C   UNL     1      -4.682  13.200  70.390  0.00  0.00    +0.006 C 
ENDBRANCH   1  60
TORSDOF 9
ENDMDL
MODEL 4
REMARK VINA RESULT:      -6.8      5.273      8.316
REMARK  Name = 
REMARK  9 active torsions:
REMARK  status: ('A' for Active; 'I' for Inactive)
REMARK    1  A    between atoms: C_2  and  C_3
REMARK    2  A    between atoms: C_9  and  C_10
REMARK    3  A    between atoms: C_33  and  O_34
REMARK    4  A    between atoms: C_41  and  C_42
REMARK    5  A    between atoms: N_44  and  C_45
REMARK    6  A    between atoms: C_45  and  C_46
REMARK    7  A    between atoms: N_48  and  S_49
REMARK    8  A    between atoms: S_49  and  C_52
REMARK    9  A    between atoms: C_57  and  C_58
REMARK                            x       y       z     vdW  Elec       q    Type
REMARK                         _______ _______ _______ _____ _____    ______ ____
ROOT
ATOM      1  C   UNL     1      -5.844  13.907  70.286  0.00  0.00    +0.069 C 
ATOM      2  C   UNL     1      -6.845  15.221  69.882  0.00  0.00    +0.157 C 
ATOM      3  N   UNL     1      -7.325  14.579  68.534  0.00  0.00    -0.268 N 
ATOM      4  C   UNL     1      -7.854  15.207  67.491  0.00  0.00    +0.246 C 
ATOM      5  C   UNL     1      -9.243  14.818  66.796  0.00  0.00    +0.174 C 
ATOM      6  N   UNL     1     -10.145  14.743  68.084  0.00  0.00    -0.161 NA
ATOM      7  C   UNL     1     -11.489  14.379  67.755  0.00  0.00    +0.421 C 
ATOM      8  O   UNL     1     -11.891  14.003  66.505  0.00  0.00    -0.437 OA
ATOM      9  C   UNL     1     -10.782  13.369  65.619  0.00  0.00    +0.171 C 
ATOM     10  C   UNL     1     -11.232  11.804  66.137  0.00  0.00    +0.044 C 
ATOM     11  C   UNL     1     -10.049  11.144  65.211  0.00  0.00    +0.004 C 
ATOM     12  C   UNL     1      -9.674   9.863  65.859  0.00  0.00    +0.000 C 
ATOM     13  C   UNL     1      -8.470  10.152  66.647  0.00  0.00    +0.006 C 
ATOM     14  C   UNL     1      -7.332  10.909  65.993  0.00  0.00    +0.073 C 
ATOM     15  C   UNL     1      -6.236  11.168  67.072  0.00  0.00    +0.303 C 
ATOM     16  C   UNL     1      -6.599  10.415  68.251  0.00  0.00    +0.172 A 
ATOM     17  C   UNL     1      -6.317  10.823  69.577  0.00  0.00    +0.244 A 
ATOM     18  O   UNL     1      -5.609  11.919  69.552  0.00  0.00    -0.461 OA
ATOM     19  N   UNL     1      -5.880   9.923  70.505  0.00  0.00    -0.209 NA
ATOM     20  C   UNL     1      -5.774   8.608  70.186  0.00  0.00    +0.105 A 
ATOM     21  C   UNL     1      -6.716   8.203  69.245  0.00  0.00    +0.099 A 
ATOM     22  C   UNL     1      -7.051   6.881  69.229  0.00  0.00    +0.024 A 
ATOM     23  C   UNL     1      -6.521   6.045  70.215  0.00  0.00    +0.039 A 
ATOM     24  C   UNL     1      -5.268   6.398  70.725  0.00  0.00    +0.140 A 
ATOM     25  C   UNL     1      -4.893   7.728  70.770  0.00  0.00    +0.058 A 
ATOM     26  N   UNL     1      -6.835   9.065  68.219  0.00  0.00    -0.238 NA
ATOM     27  F   UNL     1      -5.470  10.050  66.559  0.00  0.00    -0.198 F 
ATOM     28  F   UNL     1      -5.160  11.809  66.718  0.00  0.00    -0.198 F 
ATOM     29  C   UNL     1     -11.965  12.493  64.747  0.00  0.00    +0.047 C 
ATOM     30  O   UNL     1     -12.445  14.752  68.504  0.00  0.00    -0.225 OA
ATOM     31  O   UNL     1      -7.117  15.980  66.833  0.00  0.00    -0.273 OA
ATOM     32  C   UNL     1      -7.575  13.224  68.890  0.00  0.00    +0.137 C 
ATOM     33  C   UNL     1      -5.917  13.175  68.749  0.00  0.00    +0.189 C 
ENDROOT
BRANCH   5  34
ATOM     34  C   UNL     1      -9.595  16.413  66.523  0.00  0.00    +0.027 C 
ATOM     35  C   UNL     1      -8.558  17.171  65.931  0.00  0.00    +0.002 C 
ATOM     36  C   UNL     1     -10.101  16.943  67.803  0.00  0.00    +0.002 C 
ATOM     37  C   UNL     1     -10.586  16.442  65.382  0.00  0.00    +0.002 C 
ENDBRANCH   5  34
BRANCH   2  38
ATOM     38  C   UNL     1      -5.757  16.203  69.250  0.00  0.00    +0.260 C 
ATOM     39  N   UNL     1      -5.651  17.229  70.236  0.00  0.00    -0.198 NA
ATOM     40  O   UNL     1      -4.973  16.059  68.456  0.00  0.00    -0.272 OA
BRANCH  39  41
ATOM     41  C   UNL     1      -5.311  18.562  69.820  0.00  0.00    +0.155 C 
ATOM     42  C   UNL     1      -4.225  19.315  70.783  0.00  0.00    +0.096 C 
ATOM     43  C   UNL     1      -3.700  18.384  69.505  0.00  0.00    +0.037 C 
BRANCH  42  44
ATOM     44  C   UNL     1      -4.041  20.750  69.988  0.00  0.00    +0.321 C 
ATOM     45  F   UNL     1      -2.757  21.110  70.073  0.00  0.00    -0.198 F 
ATOM     46  F   UNL     1      -4.952  21.562  69.954  0.00  0.00    -0.198 F 
ENDBRANCH  42  44
BRANCH  41  47
ATOM     47  C   UNL     1      -6.115  19.135  68.886  0.00  0.00    +0.280 C 
ATOM     48  N   UNL     1      -5.656  19.209  67.526  0.00  0.00    -0.062 NA
ATOM     49  O   UNL     1      -7.362  18.895  68.927  0.00  0.00    -0.270 OA
BRANCH  48  50
ATOM     50  S   UNL     1      -6.487  20.285  66.438  0.00  0.00    +0.072 S 
ATOM     51  O   UNL     1      -7.969  20.110  66.491  0.00  0.00    -0.153 OA
ATOM     52  O   UNL     1      -6.185  21.689  66.896  0.00  0.00    -0.153 OA
BRANCH  50  53
ATOM     53  C   UNL     1      -5.792  19.982  64.845  0.00  0.00    +0.131 C 
ATOM     54  C   UNL     1      -4.941  21.116  64.293  0.00  0.00    +0.026 C 
ATOM     55  C   UNL     1      -6.327  20.811  63.689  0.00  0.00    +0.026 C 
ATOM     56  C   UNL     1      -5.431  18.579  64.454  0.00  0.00    +0.026 C 
ENDBRANCH  50  53
ENDBRANCH  48  50
ENDBRANCH  41  47
ENDBRANCH  39  41
ENDBRANCH   2  38
BRANCH  24  57
ATOM     57  O   UNL     1      -4.307   5.475  71.073  0.00  0.00    -0.471 OA
ATOM     58  C   UNL     1      -3.178   5.755  71.855  0.00  0.00    +0.252 C 
ENDBRANCH  24  57
BRANCH   1  60
ATOM     59  C   UNL     1      -3.621  14.296  71.225  0.00  0.00    +0.000 C 
ATOM     60  C   UNL     1      -4.385  14.541  70.108  0.00  0.00    +0.006 C 
ENDBRANCH   1  60
TORSDOF 9
ENDMDL
MODEL 5
REMARK VINA RESULT:      -6.7      3.136      6.804
REMARK  Name = 
REMARK  9 active torsions:
REMARK  status: ('A' for Active; 'I' for Inactive)
REMARK    1  A    between atoms: C_2  and  C_3
REMARK    2  A    between atoms: C_9  and  C_10
REMARK    3  A    between atoms: C_33  and  O_34
REMARK    4  A    between atoms: C_41  and  C_42
REMARK    5  A    between atoms: N_44  and  C_45
REMARK    6  A    between atoms: C_45  and  C_46
REMARK    7  A    between atoms: N_48  and  S_49
REMARK    8  A    between atoms: S_49  and  C_52
REMARK    9  A    between atoms: C_57  and  C_58
REMARK                            x       y       z     vdW  Elec       q    Type
REMARK                         _______ _______ _______ _____ _____    ______ ____
ROOT
ATOM      1  C   UNL     1      -7.693   8.597  65.403  0.00  0.00    +0.069 C 
ATOM      2  C   UNL     1      -8.015   9.408  66.862  0.00  0.00    +0.157 C 
ATOM      3  N   UNL     1      -8.766   8.186  67.499  0.00  0.00    -0.268 N 
ATOM      4  C   UNL     1      -9.623   8.212  68.511  0.00  0.00    +0.246 C 
ATOM      5  C   UNL     1      -9.510   7.311  69.830  0.00  0.00    +0.174 C 
ATOM      6  N   UNL     1      -8.007   7.603  70.194  0.00  0.00    -0.161 NA
ATOM      7  C   UNL     1      -7.608   6.885  71.365  0.00  0.00    +0.421 C 
ATOM      8  O   UNL     1      -8.390   5.956  71.991  0.00  0.00    -0.437 OA
ATOM      9  C   UNL     1      -9.422   5.239  71.076  0.00  0.00    +0.171 C 
ATOM     10  C   UNL     1      -8.312   3.974  70.779  0.00  0.00    +0.044 C 
ATOM     11  C   UNL     1      -9.402   3.232  69.802  0.00  0.00    +0.004 C 
ATOM     12  C   UNL     1      -8.617   2.431  68.829  0.00  0.00    +0.000 C 
ATOM     13  C   UNL     1      -8.542   3.246  67.611  0.00  0.00    +0.006 C 
ATOM     14  C   UNL     1      -9.813   3.868  67.068  0.00  0.00    +0.073 C 
ATOM     15  C   UNL     1      -9.435   4.756  65.842  0.00  0.00    +0.303 C 
ATOM     16  C   UNL     1      -8.045   4.503  65.533  0.00  0.00    +0.172 A 
ATOM     17  C   UNL     1      -7.158   5.469  65.001  0.00  0.00    +0.244 A 
ATOM     18  O   UNL     1      -7.812   6.570  64.753  0.00  0.00    -0.461 OA
ATOM     19  N   UNL     1      -6.276   5.136  64.014  0.00  0.00    -0.209 NA
ATOM     20  C   UNL     1      -6.192   3.853  63.575  0.00  0.00    +0.105 A 
ATOM     21  C   UNL     1      -6.473   2.922  64.571  0.00  0.00    +0.099 A 
ATOM     22  C   UNL     1      -5.942   1.676  64.425  0.00  0.00    +0.024 A 
ATOM     23  C   UNL     1      -5.070   1.441  63.359  0.00  0.00    +0.039 A 
ATOM     24  C   UNL     1      -5.272   2.207  62.206  0.00  0.00    +0.140 A 
ATOM     25  C   UNL     1      -5.798   3.482  62.311  0.00  0.00    +0.058 A 
ATOM     26  N   UNL     1      -7.561   3.243  65.294  0.00  0.00    -0.238 NA
ATOM     27  F   UNL     1      -9.855   3.696  64.948  0.00  0.00    -0.198 F 
ATOM     28  F   UNL     1     -10.387   5.387  65.220  0.00  0.00    -0.198 F 
ATOM     29  C   UNL     1      -9.398   3.871  72.103  0.00  0.00    +0.047 C 
ATOM     30  O   UNL     1      -6.679   7.343  72.100  0.00  0.00    -0.225 OA
ATOM     31  O   UNL     1     -10.733   8.769  68.330  0.00  0.00    -0.273 OA
ATOM     32  C   UNL     1      -7.944   7.079  67.147  0.00  0.00    +0.137 C 
ATOM     33  C   UNL     1      -8.750   7.297  65.707  0.00  0.00    +0.189 C 
ENDROOT
BRANCH   5  34
ATOM     34  C   UNL     1     -10.082   8.550  70.769  0.00  0.00    +0.027 C 
ATOM     35  C   UNL     1     -11.358   9.045  70.413  0.00  0.00    +0.002 C 
ATOM     36  C   UNL     1      -9.009   9.562  70.804  0.00  0.00    +0.002 C 
ATOM     37  C   UNL     1     -10.432   7.943  72.109  0.00  0.00    +0.002 C 
ENDBRANCH   5  34
BRANCH   2  38
ATOM     38  C   UNL     1      -9.314  10.229  66.433  0.00  0.00    +0.260 C 
ATOM     39  N   UNL     1      -8.916  11.582  66.657  0.00  0.00    -0.198 NA
ATOM     40  O   UNL     1     -10.201   9.969  65.792  0.00  0.00    -0.272 OA
BRANCH  39  41
ATOM     41  C   UNL     1      -9.916  12.552  67.013  0.00  0.00    +0.155 C 
ATOM     42  C   UNL     1     -11.149  11.956  67.906  0.00  0.00    +0.096 C 
ATOM     43  C   UNL     1      -9.782  12.541  68.658  0.00  0.00    +0.037 C 
BRANCH  42  44
ATOM     44  C   UNL     1     -12.039  13.322  68.164  0.00  0.00    +0.321 C 
ATOM     45  F   UNL     1     -12.467  13.305  69.430  0.00  0.00    -0.198 F 
ATOM     46  F   UNL     1     -12.685  13.822  67.257  0.00  0.00    -0.198 F 
ENDBRANCH  42  44
BRANCH  41  47
ATOM     47  C   UNL     1      -9.882  13.736  66.348  0.00  0.00    +0.280 C 
ATOM     48  N   UNL     1      -9.111  14.818  66.896  0.00  0.00    -0.062 NA
ATOM     49  O   UNL     1      -9.796  13.720  65.080  0.00  0.00    -0.270 OA
BRANCH  48  50
ATOM     50  S   UNL     1      -9.394  16.421  66.278  0.00  0.00    +0.072 S 
ATOM     51  O   UNL     1      -8.148  17.052  65.749  0.00  0.00    -0.153 OA
ATOM     52  O   UNL     1     -10.352  16.282  65.122  0.00  0.00    -0.153 OA
BRANCH  50  53
ATOM     53  C   UNL     1     -10.136  17.319  67.604  0.00  0.00    +0.131 C 
ATOM     54  C   UNL     1     -10.560  18.738  67.255  0.00  0.00    +0.026 C 
ATOM     55  C   UNL     1      -9.348  18.486  68.174  0.00  0.00    +0.026 C 
ATOM     56  C   UNL     1     -10.938  16.580  68.635  0.00  0.00    +0.026 C 
ENDBRANCH  50  53
ENDBRANCH  48  50
ENDBRANCH  41  47
ENDBRANCH  39  41
ENDBRANCH   2  38
BRANCH  24  57
ATOM     57  O   UNL     1      -5.101   1.715  60.932  0.00  0.00    -0.471 OA
ATOM     58  C   UNL     1      -5.327   2.444  59.757  0.00  0.00    +0.252 C 
ENDBRANCH  24  57
BRANCH   1  60
ATOM     59  C   UNL     1      -7.966   9.707  63.242  0.00  0.00    +0.000 C 
ATOM     60  C   UNL     1      -8.656   9.369  64.382  0.00  0.00    +0.006 C 
ENDBRANCH   1  60
TORSDOF 9
ENDMDL
MODEL 6
REMARK VINA RESULT:      -6.7      3.141      9.244
REMARK  Name = 
REMARK  9 active torsions:
REMARK  status: ('A' for Active; 'I' for Inactive)
REMARK    1  A    between atoms: C_2  and  C_3
REMARK    2  A    between atoms: C_9  and  C_10
REMARK    3  A    between atoms: C_33  and  O_34
REMARK    4  A    between atoms: C_41  and  C_42
REMARK    5  A    between atoms: N_44  and  C_45
REMARK    6  A    between atoms: C_45  and  C_46
REMARK    7  A    between atoms: N_48  and  S_49
REMARK    8  A    between atoms: S_49  and  C_52
REMARK    9  A    between atoms: C_57  and  C_58
REMARK                            x       y       z     vdW  Elec       q    Type
REMARK                         _______ _______ _______ _____ _____    ______ ____
ROOT
ATOM      1  C   UNL     1      -8.227   9.019  69.333  0.00  0.00    +0.069 C 
ATOM      2  C   UNL     1      -7.656   7.570  68.651  0.00  0.00    +0.157 C 
ATOM      3  N   UNL     1      -8.395   7.795  67.286  0.00  0.00    -0.268 N 
ATOM      4  C   UNL     1      -8.701   6.876  66.379  0.00  0.00    +0.246 C 
ATOM      5  C   UNL     1      -8.317   6.957  64.827  0.00  0.00    +0.174 C 
ATOM      6  N   UNL     1      -6.788   7.296  64.973  0.00  0.00    -0.161 NA
ATOM      7  C   UNL     1      -6.166   7.452  63.694  0.00  0.00    +0.421 C 
ATOM      8  O   UNL     1      -6.850   7.453  62.512  0.00  0.00    -0.437 OA
ATOM      9  C   UNL     1      -8.330   7.918  62.607  0.00  0.00    +0.171 C 
ATOM     10  C   UNL     1      -7.872   9.524  62.241  0.00  0.00    +0.044 C 
ATOM     11  C   UNL     1      -9.436  10.009  62.360  0.00  0.00    +0.004 C 
ATOM     12  C   UNL     1      -9.403  11.441  62.747  0.00  0.00    +0.000 C 
ATOM     13  C   UNL     1      -9.608  11.466  64.200  0.00  0.00    +0.006 C 
ATOM     14  C   UNL     1     -10.744  10.657  64.792  0.00  0.00    +0.073 C 
ATOM     15  C   UNL     1     -10.670  10.778  66.345  0.00  0.00    +0.303 C 
ATOM     16  C   UNL     1      -9.679  11.783  66.657  0.00  0.00    +0.172 A 
ATOM     17  C   UNL     1      -8.855  11.761  67.807  0.00  0.00    +0.244 A 
ATOM     18  O   UNL     1      -9.197  10.757  68.568  0.00  0.00    -0.461 OA
ATOM     19  N   UNL     1      -8.607  12.905  68.510  0.00  0.00    -0.209 NA
ATOM     20  C   UNL     1      -9.096  14.095  68.074  0.00  0.00    +0.105 A 
ATOM     21  C   UNL     1      -9.195  14.162  66.687  0.00  0.00    +0.099 A 
ATOM     22  C   UNL     1      -9.166  15.402  66.121  0.00  0.00    +0.024 A 
ATOM     23  C   UNL     1      -8.931  16.507  66.943  0.00  0.00    +0.039 A 
ATOM     24  C   UNL     1      -9.361  16.402  68.270  0.00  0.00    +0.140 A 
ATOM     25  C   UNL     1      -9.394  15.163  68.885  0.00  0.00    +0.058 A 
ATOM     26  N   UNL     1      -9.733  13.054  66.147  0.00  0.00    -0.238 NA
ATOM     27  F   UNL     1     -11.717  11.779  66.314  0.00  0.00    -0.198 F 
ATOM     28  F   UNL     1     -11.563  10.154  67.056  0.00  0.00    -0.198 F 
ATOM     29  C   UNL     1      -8.283   8.438  60.978  0.00  0.00    +0.047 C 
ATOM     30  O   UNL     1      -4.926   7.214  63.562  0.00  0.00    -0.225 OA
ATOM     31  O   UNL     1      -9.567   6.018  66.679  0.00  0.00    -0.273 OA
ATOM     32  C   UNL     1      -8.160   9.172  67.012  0.00  0.00    +0.137 C 
ATOM     33  C   UNL     1      -9.391   9.314  68.124  0.00  0.00    +0.189 C 
ENDROOT
BRANCH   5  34
ATOM     34  C   UNL     1      -8.052   5.323  64.770  0.00  0.00    +0.027 C 
ATOM     35  C   UNL     1      -9.155   4.514  65.129  0.00  0.00    +0.002 C 
ATOM     36  C   UNL     1      -6.825   5.083  65.552  0.00  0.00    +0.002 C 
ATOM     37  C   UNL     1      -7.960   4.957  63.306  0.00  0.00    +0.002 C 
ENDBRANCH   5  34
BRANCH   2  38
ATOM     38  C   UNL     1      -8.711   6.546  69.273  0.00  0.00    +0.260 C 
ATOM     39  N   UNL     1      -7.902   5.754  70.143  0.00  0.00    -0.198 NA
ATOM     40  O   UNL     1      -9.832   6.570  69.363  0.00  0.00    -0.272 OA
BRANCH  39  41
ATOM     41  C   UNL     1      -8.273   4.387  70.386  0.00  0.00    +0.155 C 
ATOM     42  C   UNL     1      -8.222   3.427  69.064  0.00  0.00    +0.096 C 
ATOM     43  C   UNL     1      -6.864   3.614  70.010  0.00  0.00    +0.037 C 
BRANCH  42  44
ATOM     44  C   UNL     1      -8.641   1.970  69.718  0.00  0.00    +0.321 C 
ATOM     45  F   UNL     1      -7.803   1.045  69.240  0.00  0.00    -0.198 F 
ATOM     46  F   UNL     1      -9.804   1.724  69.994  0.00  0.00    -0.198 F 
ENDBRANCH  42  44
BRANCH  41  47
ATOM     47  C   UNL     1      -8.885   4.121  71.570  0.00  0.00    +0.280 C 
ATOM     48  N   UNL     1      -8.223   4.489  72.792  0.00  0.00    -0.062 NA
ATOM     49  O   UNL     1     -10.138   4.311  71.664  0.00  0.00    -0.270 OA
BRANCH  48  50
ATOM     50  S   UNL     1      -8.802   3.794  74.279  0.00  0.00    +0.072 S 
ATOM     51  O   UNL     1      -9.816   2.722  74.046  0.00  0.00    -0.153 OA
ATOM     52  O   UNL     1      -7.617   3.150  74.953  0.00  0.00    -0.153 OA
BRANCH  50  53
ATOM     53  C   UNL     1      -9.408   5.148  75.235  0.00  0.00    +0.131 C 
ATOM     54  C   UNL     1     -10.177   6.195  74.443  0.00  0.00    +0.026 C 
ATOM     55  C   UNL     1      -8.769   6.505  74.991  0.00  0.00    +0.026 C 
ATOM     56  C   UNL     1      -9.799   4.922  76.666  0.00  0.00    +0.026 C 
ENDBRANCH  50  53
ENDBRANCH  48  50
ENDBRANCH  41  47
ENDBRANCH  39  41
ENDBRANCH   2  38
BRANCH  24  57
ATOM     57  O   UNL     1      -9.891  17.456  68.978  0.00  0.00    -0.471 OA
ATOM     58  C   UNL     1      -9.809  18.800  68.590  0.00  0.00    +0.252 C 
ENDBRANCH  24  57
BRANCH   1  60
ATOM     59  C   UNL     1      -8.845   8.858  71.692  0.00  0.00    +0.000 C 
ATOM     60  C   UNL     1      -9.255   8.479  70.436  0.00  0.00    +0.006 C 
ENDBRANCH   1  60
TORSDOF 9
ENDMDL
MODEL 7
REMARK VINA RESULT:      -6.6      2.107      2.838
REMARK  Name = 
REMARK  9 active torsions:
REMARK  status: ('A' for Active; 'I' for Inactive)
REMARK    1  A    between atoms: C_2  and  C_3
REMARK    2  A    between atoms: C_9  and  C_10
REMARK    3  A    between atoms: C_33  and  O_34
REMARK    4  A    between atoms: C_41  and  C_42
REMARK    5  A    between atoms: N_44  and  C_45
REMARK    6  A    between atoms: C_45  and  C_46
REMARK    7  A    between atoms: N_48  and  S_49
REMARK    8  A    between atoms: S_49  and  C_52
REMARK    9  A    between atoms: C_57  and  C_58
REMARK                            x       y       z     vdW  Elec       q    Type
REMARK                         _______ _______ _______ _____ _____    ______ ____
ROOT
ATOM      1  C   UNL     1     -10.214   8.655  67.279  0.00  0.00    +0.069 C 
ATOM      2  C   UNL     1     -10.141   9.520  65.817  0.00  0.00    +0.157 C 
ATOM      3  N   UNL     1      -8.780   8.876  65.379  0.00  0.00    -0.268 N 
ATOM      4  C   UNL     1      -7.918   9.352  64.489  0.00  0.00    +0.246 C 
ATOM      5  C   UNL     1      -7.346   8.531  63.239  0.00  0.00    +0.174 C 
ATOM      6  N   UNL     1      -8.706   7.994  62.660  0.00  0.00    -0.161 NA
ATOM      7  C   UNL     1      -8.492   7.178  61.504  0.00  0.00    +0.421 C 
ATOM      8  O   UNL     1      -7.257   6.800  61.059  0.00  0.00    -0.437 OA
ATOM      9  C   UNL     1      -6.156   6.726  62.154  0.00  0.00    +0.171 C 
ATOM     10  C   UNL     1      -6.479   5.065  62.397  0.00  0.00    +0.044 C 
ATOM     11  C   UNL     1      -5.325   5.000  63.563  0.00  0.00    +0.004 C 
ATOM     12  C   UNL     1      -5.718   3.903  64.481  0.00  0.00    +0.000 C 
ATOM     13  C   UNL     1      -6.389   4.552  65.614  0.00  0.00    +0.006 C 
ATOM     14  C   UNL     1      -5.725   5.745  66.271  0.00  0.00    +0.073 C 
ATOM     15  C   UNL     1      -6.689   6.298  67.365  0.00  0.00    +0.303 C 
ATOM     16  C   UNL     1      -7.774   5.353  67.507  0.00  0.00    +0.172 A 
ATOM     17  C   UNL     1      -9.102   5.708  67.842  0.00  0.00    +0.244 A 
ATOM     18  O   UNL     1      -9.161   6.988  68.090  0.00  0.00    -0.461 OA
ATOM     19  N   UNL     1      -9.822   4.958  68.728  0.00  0.00    -0.209 NA
ATOM     20  C   UNL     1      -9.294   3.820  69.248  0.00  0.00    +0.105 A 
ATOM     21  C   UNL     1      -8.423   3.179  68.371  0.00  0.00    +0.099 A 
ATOM     22  C   UNL     1      -8.246   1.838  68.541  0.00  0.00    +0.024 A 
ATOM     23  C   UNL     1      -9.020   1.177  69.497  0.00  0.00    +0.039 A 
ATOM     24  C   UNL     1      -9.422   1.930  70.605  0.00  0.00    +0.140 A 
ATOM     25  C   UNL     1      -9.624   3.292  70.473  0.00  0.00    +0.058 A 
ATOM     26  N   UNL     1      -7.564   4.025  67.775  0.00  0.00    -0.238 NA
ATOM     27  F   UNL     1      -5.921   5.612  68.384  0.00  0.00    -0.198 F 
ATOM     28  F   UNL     1      -6.310   7.332  68.057  0.00  0.00    -0.198 F 
ATOM     29  C   UNL     1      -5.311   5.553  61.239  0.00  0.00    +0.047 C 
ATOM     30  O   UNL     1      -9.400   7.084  60.621  0.00  0.00    -0.225 OA
ATOM     31  O   UNL     1      -7.300  10.407  64.772  0.00  0.00    -0.273 OA
ATOM     32  C   UNL     1      -8.951   7.501  65.703  0.00  0.00    +0.137 C 
ATOM     33  C   UNL     1      -8.603   8.103  67.215  0.00  0.00    +0.189 C 
ENDROOT
BRANCH   5  34
ATOM     34  C   UNL     1      -7.365   9.890  62.292  0.00  0.00    +0.027 C 
ATOM     35  C   UNL     1      -7.559   9.666  60.909  0.00  0.00    +0.002 C 
ATOM     36  C   UNL     1      -6.143  10.641  62.635  0.00  0.00    +0.002 C 
ATOM     37  C   UNL     1      -8.661  10.604  62.598  0.00  0.00    +0.002 C 
ENDBRANCH   5  34
BRANCH   2  38
ATOM     38  C   UNL     1      -9.539  10.898  66.350  0.00  0.00    +0.260 C 
ATOM     39  N   UNL     1     -10.710  11.687  66.568  0.00  0.00    -0.198 NA
ATOM     40  O   UNL     1      -8.547  11.170  66.805  0.00  0.00    -0.272 OA
BRANCH  39  41
ATOM     41  C   UNL     1     -10.625  13.114  66.424  0.00  0.00    +0.155 C 
ATOM     42  C   UNL     1     -10.488  13.631  64.879  0.00  0.00    +0.096 C 
ATOM     43  C   UNL     1     -11.995  13.418  65.556  0.00  0.00    +0.037 C 
BRANCH  42  44
ATOM     44  C   UNL     1     -10.475  15.268  65.095  0.00  0.00    +0.321 C 
ATOM     45  F   UNL     1     -11.341  15.807  64.231  0.00  0.00    -0.198 F 
ATOM     46  F   UNL     1      -9.456  15.839  65.448  0.00  0.00    -0.198 F 
ENDBRANCH  42  44
BRANCH  41  47
ATOM     47  C   UNL     1     -10.377  13.829  67.553  0.00  0.00    +0.280 C 
ATOM     48  N   UNL     1     -11.459  14.084  68.464  0.00  0.00    -0.062 NA
ATOM     49  O   UNL     1      -9.298  13.611  68.187  0.00  0.00    -0.270 OA
BRANCH  48  50
ATOM     50  S   UNL     1     -11.240  15.319  69.671  0.00  0.00    +0.072 S 
ATOM     51  O   UNL     1      -9.799  15.637  69.900  0.00  0.00    -0.153 OA
ATOM     52  O   UNL     1     -11.897  16.569  69.143  0.00  0.00    -0.153 OA
BRANCH  50  53
ATOM     53  C   UNL     1     -12.075  14.732  71.111  0.00  0.00    +0.131 C 
ATOM     54  C   UNL     1     -12.490  13.269  71.057  0.00  0.00    +0.026 C 
ATOM     55  C   UNL     1     -13.548  14.388  70.963  0.00  0.00    +0.026 C 
ATOM     56  C   UNL     1     -11.731  15.315  72.450  0.00  0.00    +0.026 C 
ENDBRANCH  50  53
ENDBRANCH  48  50
ENDBRANCH  41  47
ENDBRANCH  39  41
ENDBRANCH   2  38
BRANCH  24  57
ATOM     57  O   UNL     1      -9.504   1.416  71.879  0.00  0.00    -0.471 OA
ATOM     58  C   UNL     1      -9.630   0.054  72.183  0.00  0.00    +0.252 C 
ENDBRANCH  24  57
BRANCH   1  60
ATOM     59  C   UNL     1     -10.816   9.667  69.421  0.00  0.00    +0.000 C 
ATOM     60  C   UNL     1      -9.959   9.812  68.356  0.00  0.00    +0.006 C 
ENDBRANCH   1  60
TORSDOF 9
ENDMDL
MODEL 8
REMARK VINA RESULT:      -6.6      1.595      2.208
REMARK  Name = 
REMARK  9 active torsions:
REMARK  status: ('A' for Active; 'I' for Inactive)
REMARK    1  A    between atoms: C_2  and  C_3
REMARK    2  A    between atoms: C_9  and  C_10
REMARK    3  A    between atoms: C_33  and  O_34
REMARK    4  A    between atoms: C_41  and  C_42
REMARK    5  A    between atoms: N_44  and  C_45
REMARK    6  A    between atoms: C_45  and  C_46
REMARK    7  A    between atoms: N_48  and  S_49
REMARK    8  A    between atoms: S_49  and  C_52
REMARK    9  A    between atoms: C_57  and  C_58
REMARK                            x       y       z     vdW  Elec       q    Type
REMARK                         _______ _______ _______ _____ _____    ______ ____
ROOT
ATOM      1  C   UNL     1     -10.910   8.914  69.274  0.00  0.00    +0.069 C 
ATOM      2  C   UNL     1     -10.632   9.312  67.644  0.00  0.00    +0.157 C 
ATOM      3  N   UNL     1      -9.151   8.795  67.660  0.00  0.00    -0.268 N 
ATOM      4  C   UNL     1      -8.179   9.120  66.816  0.00  0.00    +0.246 C 
ATOM      5  C   UNL     1      -7.285   8.071  66.001  0.00  0.00    +0.174 C 
ATOM      6  N   UNL     1      -8.437   7.177  65.412  0.00  0.00    -0.161 NA
ATOM      7  C   UNL     1      -7.911   6.103  64.627  0.00  0.00    +0.421 C 
ATOM      8  O   UNL     1      -6.579   5.814  64.530  0.00  0.00    -0.437 OA
ATOM      9  C   UNL     1      -5.721   6.242  65.754  0.00  0.00    +0.171 C 
ATOM     10  C   UNL     1      -5.915   4.697  66.458  0.00  0.00    +0.044 C 
ATOM     11  C   UNL     1      -5.021   5.162  67.753  0.00  0.00    +0.004 C 
ATOM     12  C   UNL     1      -5.477   4.335  68.898  0.00  0.00    +0.000 C 
ATOM     13  C   UNL     1      -6.427   5.172  69.641  0.00  0.00    +0.006 C 
ATOM     14  C   UNL     1      -6.036   6.595  69.982  0.00  0.00    +0.073 C 
ATOM     15  C   UNL     1      -7.254   7.283  70.673  0.00  0.00    +0.303 C 
ATOM     16  C   UNL     1      -8.242   6.260  70.931  0.00  0.00    +0.172 A 
ATOM     17  C   UNL     1      -9.640   6.480  70.917  0.00  0.00    +0.244 A 
ATOM     18  O   UNL     1      -9.878   7.750  70.732  0.00  0.00    -0.461 OA
ATOM     19  N   UNL     1     -10.443   5.918  71.867  0.00  0.00    -0.209 NA
ATOM     20  C   UNL     1      -9.918   5.083  72.800  0.00  0.00    +0.105 A 
ATOM     21  C   UNL     1      -8.827   4.361  72.326  0.00  0.00    +0.099 A 
ATOM     22  C   UNL     1      -8.551   3.175  72.939  0.00  0.00    +0.024 A 
ATOM     23  C   UNL     1      -9.431   2.709  73.919  0.00  0.00    +0.039 A 
ATOM     24  C   UNL     1     -10.124   3.679  74.649  0.00  0.00    +0.140 A 
ATOM     25  C   UNL     1     -10.434   4.892  74.060  0.00  0.00    +0.058 A 
ATOM     26  N   UNL     1      -7.956   5.121  71.638  0.00  0.00    -0.238 NA
ATOM     27  F   UNL     1      -6.642   7.059  71.967  0.00  0.00    -0.198 F 
ATOM     28  F   UNL     1      -7.131   8.521  71.051  0.00  0.00    -0.198 F 
ATOM     29  C   UNL     1      -4.592   5.004  65.409  0.00  0.00    +0.047 C 
ATOM     30  O   UNL     1      -8.606   5.610  63.685  0.00  0.00    -0.225 OA
ATOM     31  O   UNL     1      -7.744  10.297  66.843  0.00  0.00    -0.273 OA
ATOM     32  C   UNL     1      -9.242   7.566  68.372  0.00  0.00    +0.137 C 
ATOM     33  C   UNL     1      -9.272   8.633  69.650  0.00  0.00    +0.189 C 
ENDROOT
BRANCH   5  34
ATOM     34  C   UNL     1      -7.250   9.071  64.681  0.00  0.00    +0.027 C 
ATOM     35  C   UNL     1      -6.636  10.328  64.886  0.00  0.00    +0.002 C 
ATOM     36  C   UNL     1      -8.636   9.129  64.180  0.00  0.00    +0.002 C 
ATOM     37  C   UNL     1      -6.247   8.474  63.721  0.00  0.00    +0.002 C 
ENDBRANCH   5  34
BRANCH   2  38
ATOM     38  C   UNL     1     -10.294  10.864  67.800  0.00  0.00    +0.260 C 
ATOM     39  N   UNL     1     -11.460  11.492  67.265  0.00  0.00    -0.198 NA
ATOM     40  O   UNL     1      -9.563  11.422  68.448  0.00  0.00    -0.272 OA
BRANCH  39  41
ATOM     41  C   UNL     1     -11.331  12.778  66.637  0.00  0.00    +0.155 C 
ATOM     42  C   UNL     1     -10.792  12.727  65.094  0.00  0.00    +0.096 C 
ATOM     43  C   UNL     1     -12.426  12.632  65.410  0.00  0.00    +0.037 C 
BRANCH  42  44
ATOM     44  C   UNL     1     -10.825  14.329  64.696  0.00  0.00    +0.321 C 
ATOM     45  F   UNL     1     -11.832  14.523  63.838  0.00  0.00    -0.198 F 
ATOM     46  F   UNL     1      -9.794  14.981  64.658  0.00  0.00    -0.198 F 
ENDBRANCH  42  44
BRANCH  41  47
ATOM     47  C   UNL     1     -11.382  13.864  67.452  0.00  0.00    +0.280 C 
ATOM     48  N   UNL     1     -10.321  14.831  67.388  0.00  0.00    -0.062 NA
ATOM     49  O   UNL     1     -12.502  14.438  67.631  0.00  0.00    -0.270 OA
BRANCH  48  50
ATOM     50  S   UNL     1     -10.179  15.979  68.689  0.00  0.00    +0.072 S 
ATOM     51  O   UNL     1     -11.260  17.008  68.657  0.00  0.00    -0.153 OA
ATOM     52  O   UNL     1     -10.334  15.206  69.974  0.00  0.00    -0.153 OA
BRANCH  50  53
ATOM     53  C   UNL     1      -8.553  16.653  68.556  0.00  0.00    +0.131 C 
ATOM     54  C   UNL     1      -8.497  18.171  68.461  0.00  0.00    +0.026 C 
ATOM     55  C   UNL     1      -8.179  17.296  67.231  0.00  0.00    +0.026 C 
ATOM     56  C   UNL     1      -7.408  15.948  69.221  0.00  0.00    +0.026 C 
ENDBRANCH  50  53
ENDBRANCH  48  50
ENDBRANCH  41  47
ENDBRANCH  39  41
ENDBRANCH   2  38
BRANCH  24  57
ATOM     57  O   UNL     1     -10.410   3.555  75.990  0.00  0.00    -0.471 OA
ATOM     58  C   UNL     1      -9.871   4.363  77.000  0.00  0.00    +0.252 C 
ENDBRANCH  24  57
BRANCH   1  60
ATOM     59  C   UNL     1     -12.061  10.413  70.824  0.00  0.00    +0.000 C 
ATOM     60  C   UNL     1     -10.999  10.362  69.953  0.00  0.00    +0.006 C 
ENDBRANCH   1  60
TORSDOF 9
ENDMDL
MODEL 9
REMARK VINA RESULT:      -6.5      3.178      7.387
REMARK  Name = 
REMARK  9 active torsions:
REMARK  status: ('A' for Active; 'I' for Inactive)
REMARK    1  A    between atoms: C_2  and  C_3
REMARK    2  A    between atoms: C_9  and  C_10
REMARK    3  A    between atoms: C_33  and  O_34
REMARK    4  A    between atoms: C_41  and  C_42
REMARK    5  A    between atoms: N_44  and  C_45
REMARK    6  A    between atoms: C_45  and  C_46
REMARK    7  A    between atoms: N_48  and  S_49
REMARK    8  A    between atoms: S_49  and  C_52
REMARK    9  A    between atoms: C_57  and  C_58
REMARK                            x       y       z     vdW  Elec       q    Type
REMARK                         _______ _______ _______ _____ _____    ______ ____
ROOT
ATOM      1  C   UNL     1      -7.961   6.882  66.997  0.00  0.00    +0.069 C 
ATOM      2  C   UNL     1      -8.372   7.255  68.605  0.00  0.00    +0.157 C 
ATOM      3  N   UNL     1      -8.868   5.803  68.928  0.00  0.00    -0.268 N 
ATOM      4  C   UNL     1      -9.680   5.433  69.910  0.00  0.00    +0.246 C 
ATOM      5  C   UNL     1      -9.360   4.286  70.980  0.00  0.00    +0.174 C 
ATOM      6  N   UNL     1      -7.923   4.755  71.416  0.00  0.00    -0.161 NA
ATOM      7  C   UNL     1      -7.360   3.868  72.388  0.00  0.00    +0.421 C 
ATOM      8  O   UNL     1      -7.940   2.692  72.769  0.00  0.00    -0.437 OA
ATOM      9  C   UNL     1      -8.857   2.032  71.702  0.00  0.00    +0.171 C 
ATOM     10  C   UNL     1      -7.549   1.097  71.124  0.00  0.00    +0.044 C 
ATOM     11  C   UNL     1      -8.520   0.417  69.990  0.00  0.00    +0.004 C 
ATOM     12  C   UNL     1      -7.639   0.023  68.863  0.00  0.00    +0.000 C 
ATOM     13  C   UNL     1      -7.754   1.100  67.872  0.00  0.00    +0.006 C 
ATOM     14  C   UNL     1      -9.134   1.588  67.480  0.00  0.00    +0.073 C 
ATOM     15  C   UNL     1      -8.966   2.792  66.502  0.00  0.00    +0.303 C 
ATOM     16  C   UNL     1      -7.565   2.877  66.154  0.00  0.00    +0.172 A 
ATOM     17  C   UNL     1      -6.885   4.086  65.873  0.00  0.00    +0.244 A 
ATOM     18  O   UNL     1      -7.736   5.076  65.887  0.00  0.00    -0.461 OA
ATOM     19  N   UNL     1      -5.993   4.161  64.843  0.00  0.00    -0.209 NA
ATOM     20  C   UNL     1      -5.695   3.054  64.115  0.00  0.00    +0.105 A 
ATOM     21  C   UNL     1      -5.769   1.881  64.860  0.00  0.00    +0.099 A 
ATOM     22  C   UNL     1      -5.027   0.822  64.428  0.00  0.00    +0.024 A 
ATOM     23  C   UNL     1      -4.165   1.007  63.344  0.00  0.00    +0.039 A 
ATOM     24  C   UNL     1      -4.542   1.971  62.403  0.00  0.00    +0.140 A 
ATOM     25  C   UNL     1      -5.285   3.067  62.802  0.00  0.00    +0.058 A 
ATOM     26  N   UNL     1      -6.871   1.818  65.629  0.00  0.00    -0.238 NA
ATOM     27  F   UNL     1      -9.220   1.912  65.380  0.00  0.00    -0.198 F 
ATOM     28  F   UNL     1     -10.037   3.365  66.038  0.00  0.00    -0.198 F 
ATOM     29  C   UNL     1      -8.551   0.490  72.377  0.00  0.00    +0.047 C 
ATOM     30  O   UNL     1      -6.503   4.304  73.218  0.00  0.00    -0.225 OA
ATOM     31  O   UNL     1     -10.878   5.804  69.857  0.00  0.00    -0.273 OA
ATOM     32  C   UNL     1      -7.873   4.978  68.332  0.00  0.00    +0.137 C 
ATOM     33  C   UNL     1      -8.755   5.375  66.977  0.00  0.00    +0.189 C 
ENDROOT
BRANCH   5  34
ATOM     34  C   UNL     1     -10.112   5.144  72.180  0.00  0.00    +0.027 C 
ATOM     35  C   UNL     1     -11.463   5.484  71.931  0.00  0.00    +0.002 C 
ATOM     36  C   UNL     1      -9.228   6.287  72.478  0.00  0.00    +0.002 C 
ATOM     37  C   UNL     1     -10.322   4.182  73.327  0.00  0.00    +0.002 C 
ENDBRANCH   5  34
BRANCH   2  38
ATOM     38  C   UNL     1      -9.812   7.901  68.370  0.00  0.00    +0.260 C 
ATOM     39  N   UNL     1      -9.685   9.182  68.989  0.00  0.00    -0.198 NA
ATOM     40  O   UNL     1     -10.639   7.674  67.642  0.00  0.00    -0.272 OA
BRANCH  39  41
ATOM     41  C   UNL     1     -10.850   9.797  69.563  0.00  0.00    +0.155 C 
ATOM     42  C   UNL     1     -11.682   8.841  70.596  0.00  0.00    +0.096 C 
ATOM     43  C   UNL     1     -10.442   9.799  71.162  0.00  0.00    +0.037 C 
BRANCH  42  44
ATOM     44  C   UNL     1     -12.879   9.869  71.082  0.00  0.00    +0.321 C 
ATOM     45  F   UNL     1     -12.976   9.792  72.413  0.00  0.00    -0.198 F 
ATOM     46  F   UNL     1     -13.841  10.086  70.363  0.00  0.00    -0.198 F 
ENDBRANCH  42  44
BRANCH  41  47
ATOM     47  C   UNL     1     -11.281  10.948  68.983  0.00  0.00    +0.280 C 
ATOM     48  N   UNL     1     -10.352  12.032  68.815  0.00  0.00    -0.062 NA
ATOM     49  O   UNL     1     -12.066  10.871  67.986  0.00  0.00    -0.270 OA
BRANCH  48  50
ATOM     50  S   UNL     1     -10.991  13.612  68.459  0.00  0.00    +0.072 S 
ATOM     51  O   UNL     1     -12.303  13.855  69.128  0.00  0.00    -0.153 OA
ATOM     52  O   UNL     1     -10.011  14.615  69.014  0.00  0.00    -0.153 OA
BRANCH  50  53
ATOM     53  C   UNL     1     -11.061  13.712  66.698  0.00  0.00    +0.131 C 
ATOM     54  C   UNL     1      -9.965  12.948  65.971  0.00  0.00    +0.026 C 
ATOM     55  C   UNL     1      -9.954  14.490  66.006  0.00  0.00    +0.026 C 
ATOM     56  C   UNL     1     -12.394  13.842  66.022  0.00  0.00    +0.026 C 
ENDBRANCH  50  53
ENDBRANCH  48  50
ENDBRANCH  41  47
ENDBRANCH  39  41
ENDBRANCH   2  38
BRANCH  24  57
ATOM     57  O   UNL     1      -4.330   1.830  61.051  0.00  0.00    -0.471 OA
ATOM     58  C   UNL     1      -4.619   0.674  60.313  0.00  0.00    +0.252 C 
ENDBRANCH  24  57
BRANCH   1  60
ATOM     59  C   UNL     1      -8.507   8.379  65.144  0.00  0.00    +0.000 C 
ATOM     60  C   UNL     1      -9.082   7.681  66.180  0.00  0.00    +0.006 C 
ENDBRANCH   1  60
TORSDOF 9
ENDMDL
