MODEL 1
REMARK VINA RESULT:      -7.1      0.000      0.000
REMARK  Name = 
REMARK  5 active torsions:
REMARK  status: ('A' for Active; 'I' for Inactive)
REMARK    1  A    between atoms: C_6  and  C_7
REMARK    2  A    between atoms: C_7  and  N_8
REMARK    3  A    between atoms: N_11  and  C_12
REMARK    4  A    between atoms: C_12  and  C_13
REMARK    5  A    between atoms: C_12  and  C_19
REMARK                            x       y       z     vdW  Elec       q    Type
REMARK                         _______ _______ _______ _____ _____    ______ ____
ROOT
ATOM      1  N   UNL     1      -9.854  17.447  67.433  0.00  0.00    -0.267 NA
ATOM      2  C   UNL     1     -10.320  16.473  68.422  0.00  0.00    +0.090 C 
ATOM      3  C   UNL     1      -9.298  15.346  68.292  0.00  0.00    +0.090 C 
ATOM      4  N   UNL     1      -9.704  14.552  67.129  0.00  0.00    -0.264 NA
ATOM      5  C   UNL     1      -9.562  15.441  66.020  0.00  0.00    +0.090 C 
ATOM      6  C   UNL     1     -10.140  16.792  66.162  0.00  0.00    +0.090 C 
ENDROOT
BRANCH   1   7
ATOM      7  C   UNL     1      -8.412  17.549  67.657  0.00  0.00    +0.099 C 
BRANCH   7  11
ATOM      8  C   UNL     1      -6.328  20.482  64.464  0.00  0.00    +0.031 C 
ATOM      9  C   UNL     1      -6.681  20.217  65.688  0.00  0.00    -0.022 A 
ATOM     10  C   UNL     1      -7.562  19.200  66.010  0.00  0.00    -0.007 A 
ATOM     11  C   UNL     1      -7.914  18.917  67.320  0.00  0.00    -0.006 A 
ATOM     12  C   UNL     1      -7.402  19.682  68.345  0.00  0.00    -0.003 A 
ATOM     13  C   UNL     1      -6.542  20.731  68.049  0.00  0.00    -0.001 A 
ATOM     14  C   UNL     1      -6.211  21.000  66.728  0.00  0.00    -0.004 A 
ENDBRANCH   7  11
ENDBRANCH   1   7
BRANCH   4  15
ATOM     15  C   UNL     1     -11.258  14.333  67.356  0.00  0.00    +0.103 C 
BRANCH  15  16
ATOM     16  C   UNL     1     -11.087  13.330  68.620  0.00  0.00    -0.004 A 
ATOM     17  C   UNL     1     -10.833  12.028  68.423  0.00  0.00    -0.002 A 
ATOM     18  C   UNL     1     -11.009  11.145  69.481  0.00  0.00    +0.011 A 
ATOM     19  C   UNL     1     -12.111  11.377  70.297  0.00  0.00    +0.058 A 
ATOM     20 CL   UNL     1     -13.211  10.115  70.796  0.00  0.00    -0.082 Cl
ATOM     21  C   UNL     1     -12.269  12.709  70.661  0.00  0.00    +0.011 A 
ATOM     22  C   UNL     1     -11.976  13.624  69.652  0.00  0.00    -0.002 A 
ENDBRANCH  15  16
BRANCH  15  23
ATOM     23  C   UNL     1     -11.350  13.101  66.298  0.00  0.00    -0.004 A 
ATOM     24  C   UNL     1     -10.195  12.884  65.561  0.00  0.00    -0.003 A 
ATOM     25  C   UNL     1     -10.322  12.000  64.496  0.00  0.00    -0.000 A 
ATOM     26  C   UNL     1     -11.580  11.722  63.975  0.00  0.00    -0.000 A 
ATOM     27  C   UNL     1     -12.634  12.563  64.317  0.00  0.00    -0.000 A 
ATOM     28  C   UNL     1     -12.431  13.350  65.446  0.00  0.00    -0.003 A 
ENDBRANCH  15  23
ENDBRANCH   4  15
TORSDOF 5
ENDMDL
MODEL 2
REMARK VINA RESULT:      -7.1      2.037      3.990
REMARK  Name = 
REMARK  5 active torsions:
REMARK  status: ('A' for Active; 'I' for Inactive)
REMARK    1  A    between atoms: C_6  and  C_7
REMARK    2  A    between atoms: C_7  and  N_8
REMARK    3  A    between atoms: N_11  and  C_12
REMARK    4  A    between atoms: C_12  and  C_13
REMARK    5  A    between atoms: C_12  and  C_19
REMARK                            x       y       z     vdW  Elec       q    Type
REMARK                         _______ _______ _______ _____ _____    ______ ____
ROOT
ATOM      1  N   UNL     1      -8.211  17.516  67.519  0.00  0.00    -0.267 NA
ATOM      2  C   UNL     1      -8.405  16.132  67.079  0.00  0.00    +0.090 C 
ATOM      3  C   UNL     1      -9.766  16.185  66.389  0.00  0.00    +0.090 C 
ATOM      4  N   UNL     1     -10.771  16.123  67.453  0.00  0.00    -0.264 NA
ATOM      5  C   UNL     1     -10.579  17.326  68.199  0.00  0.00    +0.090 C 
ATOM      6  C   UNL     1      -9.195  17.666  68.584  0.00  0.00    +0.090 C 
ENDROOT
BRANCH   1   7
ATOM      7  C   UNL     1      -8.568  18.332  66.358  0.00  0.00    +0.099 C 
BRANCH   7  11
ATOM      8  C   UNL     1      -4.321  19.666  64.537  0.00  0.00    +0.031 C 
ATOM      9  C   UNL     1      -5.321  19.884  65.339  0.00  0.00    -0.022 A 
ATOM     10  C   UNL     1      -6.511  19.184  65.260  0.00  0.00    -0.007 A 
ATOM     11  C   UNL     1      -7.562  19.414  66.135  0.00  0.00    -0.006 A 
ATOM     12  C   UNL     1      -7.445  20.388  67.101  0.00  0.00    -0.003 A 
ATOM     13  C   UNL     1      -6.274  21.131  67.182  0.00  0.00    -0.001 A 
ATOM     14  C   UNL     1      -5.239  20.887  66.290  0.00  0.00    -0.004 A 
ENDBRANCH   7  11
ENDBRANCH   1   7
BRANCH   4  15
ATOM     15  C   UNL     1     -10.272  14.924  68.363  0.00  0.00    +0.103 C 
BRANCH  15  16
ATOM     16  C   UNL     1     -11.044  13.768  67.525  0.00  0.00    -0.004 A 
ATOM     17  C   UNL     1     -10.355  12.762  66.968  0.00  0.00    -0.002 A 
ATOM     18  C   UNL     1     -10.978  11.979  66.003  0.00  0.00    +0.011 A 
ATOM     19  C   UNL     1     -11.800  12.651  65.106  0.00  0.00    +0.058 A 
ATOM     20 CL   UNL     1     -11.744  12.386  63.380  0.00  0.00    -0.082 Cl
ATOM     21  C   UNL     1     -12.655  13.567  65.706  0.00  0.00    +0.011 A 
ATOM     22  C   UNL     1     -12.092  14.279  66.763  0.00  0.00    -0.002 A 
ENDBRANCH  15  16
BRANCH  15  23
ATOM     23  C   UNL     1     -11.496  15.075  69.423  0.00  0.00    -0.004 A 
ATOM     24  C   UNL     1     -11.225  15.898  70.507  0.00  0.00    -0.003 A 
ATOM     25  C   UNL     1     -12.157  15.859  71.536  0.00  0.00    -0.000 A 
ATOM     26  C   UNL     1     -13.023  14.777  71.644  0.00  0.00    -0.000 A 
ATOM     27  C   UNL     1     -12.729  13.626  70.919  0.00  0.00    -0.000 A 
ATOM     28  C   UNL     1     -11.842  13.794  69.861  0.00  0.00    -0.003 A 
ENDBRANCH  15  23
ENDBRANCH   4  15
TORSDOF 5
ENDMDL
MODEL 3
REMARK VINA RESULT:      -7.1      1.842      2.645
REMARK  Name = 
REMARK  5 active torsions:
REMARK  status: ('A' for Active; 'I' for Inactive)
REMARK    1  A    between atoms: C_6  and  C_7
REMARK    2  A    between atoms: C_7  and  N_8
REMARK    3  A    between atoms: N_11  and  C_12
REMARK    4  A    between atoms: C_12  and  C_13
REMARK    5  A    between atoms: C_12  and  C_19
REMARK                            x       y       z     vdW  Elec       q    Type
REMARK                         _______ _______ _______ _____ _____    ______ ____
ROOT
ATOM      1  N   UNL     1      -8.219  17.583  67.291  0.00  0.00    -0.267 NA
ATOM      2  C   UNL     1      -9.134  17.293  68.398  0.00  0.00    +0.090 C 
ATOM      3  C   UNL     1      -8.701  15.896  68.836  0.00  0.00    +0.090 C 
ATOM      4  N   UNL     1      -9.328  14.958  67.902  0.00  0.00    -0.264 NA
ATOM      5  C   UNL     1      -8.733  15.255  66.638  0.00  0.00    +0.090 C 
ATOM      6  C   UNL     1      -8.671  16.677  66.241  0.00  0.00    +0.090 C 
ENDROOT
BRANCH   1   7
ATOM      7  C   UNL     1      -6.898  17.195  67.785  0.00  0.00    +0.099 C 
BRANCH   7  11
ATOM      8  C   UNL     1      -5.309  19.715  71.561  0.00  0.00    +0.031 C 
ATOM      9  C   UNL     1      -5.589  19.642  70.293  0.00  0.00    -0.022 A 
ATOM     10  C   UNL     1      -5.833  18.443  69.648  0.00  0.00    -0.007 A 
ATOM     11  C   UNL     1      -6.150  18.383  68.300  0.00  0.00    -0.006 A 
ATOM     12  C   UNL     1      -6.200  19.542  67.557  0.00  0.00    -0.003 A 
ATOM     13  C   UNL     1      -5.925  20.756  68.171  0.00  0.00    -0.001 A 
ATOM     14  C   UNL     1      -5.603  20.790  69.521  0.00  0.00    -0.004 A 
ENDBRANCH   7  11
ENDBRANCH   1   7
BRANCH   4  15
ATOM     15  C   UNL     1     -10.834  15.451  67.837  0.00  0.00    +0.103 C 
BRANCH  15  16
ATOM     16  C   UNL     1     -11.215  14.971  69.340  0.00  0.00    -0.004 A 
ATOM     17  C   UNL     1     -11.692  13.737  69.556  0.00  0.00    -0.002 A 
ATOM     18  C   UNL     1     -12.305  13.460  70.773  0.00  0.00    +0.011 A 
ATOM     19  C   UNL     1     -13.112  14.465  71.294  0.00  0.00    +0.058 A 
ATOM     20 CL   UNL     1     -14.712  14.169  71.931  0.00  0.00    -0.082 Cl
ATOM     21  C   UNL     1     -12.538  15.730  71.243  0.00  0.00    +0.011 A 
ATOM     22  C   UNL     1     -11.808  15.988  70.085  0.00  0.00    -0.002 A 
ENDBRANCH  15  16
BRANCH  15  23
ATOM     23  C   UNL     1     -11.375  14.067  67.178  0.00  0.00    -0.004 A 
ATOM     24  C   UNL     1     -10.385  13.141  66.881  0.00  0.00    -0.003 A 
ATOM     25  C   UNL     1     -10.790  12.058  66.112  0.00  0.00    -0.000 A 
ATOM     26  C   UNL     1     -11.955  12.142  65.359  0.00  0.00    -0.000 A 
ATOM     27  C   UNL     1     -12.512  13.399  65.148  0.00  0.00    -0.000 A 
ATOM     28  C   UNL     1     -12.095  14.394  66.026  0.00  0.00    -0.003 A 
ENDBRANCH  15  23
ENDBRANCH   4  15
TORSDOF 5
ENDMDL
MODEL 4
REMARK VINA RESULT:      -7.1      1.512      2.100
REMARK  Name = 
REMARK  5 active torsions:
REMARK  status: ('A' for Active; 'I' for Inactive)
REMARK    1  A    between atoms: C_6  and  C_7
REMARK    2  A    between atoms: C_7  and  N_8
REMARK    3  A    between atoms: N_11  and  C_12
REMARK    4  A    between atoms: C_12  and  C_13
REMARK    5  A    between atoms: C_12  and  C_19
REMARK                            x       y       z     vdW  Elec       q    Type
REMARK                         _______ _______ _______ _____ _____    ______ ____
ROOT
ATOM      1  N   UNL     1     -11.386  16.667  68.429  0.00  0.00    -0.267 NA
ATOM      2  C   UNL     1     -11.906  15.696  69.395  0.00  0.00    +0.090 C 
ATOM      3  C   UNL     1     -10.647  14.949  69.832  0.00  0.00    +0.090 C 
ATOM      4  N   UNL     1     -10.373  13.957  68.789  0.00  0.00    -0.264 NA
ATOM      5  C   UNL     1     -10.076  14.731  67.626  0.00  0.00    +0.090 C 
ATOM      6  C   UNL     1     -11.002  15.833  67.295  0.00  0.00    +0.090 C 
ENDROOT
BRANCH   1   7
ATOM      7  C   UNL     1     -10.209  17.247  69.075  0.00  0.00    +0.099 C 
BRANCH   7  11
ATOM      8  C   UNL     1      -6.174  19.507  67.754  0.00  0.00    +0.031 C 
ATOM      9  C   UNL     1      -7.473  19.431  67.759  0.00  0.00    -0.022 A 
ATOM     10  C   UNL     1      -8.155  18.295  68.158  0.00  0.00    -0.007 A 
ATOM     11  C   UNL     1      -9.539  18.236  68.177  0.00  0.00    -0.006 A 
ATOM     12  C   UNL     1     -10.275  19.323  67.760  0.00  0.00    -0.003 A 
ATOM     13  C   UNL     1      -9.617  20.464  67.321  0.00  0.00    -0.001 A 
ATOM     14  C   UNL     1      -8.230  20.496  67.304  0.00  0.00    -0.004 A 
ENDBRANCH   7  11
ENDBRANCH   1   7
BRANCH   4  15
ATOM     15  C   UNL     1     -11.784  13.274  68.548  0.00  0.00    +0.103 C 
BRANCH  15  16
ATOM     16  C   UNL     1     -11.696  12.288  69.834  0.00  0.00    -0.004 A 
ATOM     17  C   UNL     1     -11.381  10.995  69.676  0.00  0.00    -0.002 A 
ATOM     18  C   UNL     1     -11.624  10.115  70.723  0.00  0.00    +0.011 A 
ATOM     19  C   UNL     1     -12.804  10.315  71.430  0.00  0.00    +0.058 A 
ATOM     20 CL   UNL     1     -13.902   9.018  71.840  0.00  0.00    -0.082 Cl
ATOM     21  C   UNL     1     -13.042  11.643  71.763  0.00  0.00    +0.011 A 
ATOM     22  C   UNL     1     -12.687  12.559  70.775  0.00  0.00    -0.002 A 
ENDBRANCH  15  16
BRANCH  15  23
ATOM     23  C   UNL     1     -11.188  12.141  67.546  0.00  0.00    -0.004 A 
ATOM     24  C   UNL     1      -9.804  12.128  67.446  0.00  0.00    -0.003 A 
ATOM     25  C   UNL     1      -9.285  11.334  66.430  0.00  0.00    -0.000 A 
ATOM     26  C   UNL     1     -10.095  10.958  65.364  0.00  0.00    -0.000 A 
ATOM     27  C   UNL     1     -11.296  11.637  65.181  0.00  0.00    -0.000 A 
ATOM     28  C   UNL     1     -11.764  12.337  66.288  0.00  0.00    -0.003 A 
ENDBRANCH  15  23
ENDBRANCH   4  15
TORSDOF 5
ENDMDL
MODEL 5
REMARK VINA RESULT:      -6.7      2.480      6.819
REMARK  Name = 
REMARK  5 active torsions:
REMARK  status: ('A' for Active; 'I' for Inactive)
REMARK    1  A    between atoms: C_6  and  C_7
REMARK    2  A    between atoms: C_7  and  N_8
REMARK    3  A    between atoms: N_11  and  C_12
REMARK    4  A    between atoms: C_12  and  C_13
REMARK    5  A    between atoms: C_12  and  C_19
REMARK                            x       y       z     vdW  Elec       q    Type
REMARK                         _______ _______ _______ _____ _____    ______ ____
ROOT
ATOM      1  N   UNL     1      -9.698  12.867  66.405  0.00  0.00    -0.267 NA
ATOM      2  C   UNL     1      -9.842  13.159  67.833  0.00  0.00    +0.090 C 
ATOM      3  C   UNL     1     -11.309  13.567  67.947  0.00  0.00    +0.090 C 
ATOM      4  N   UNL     1     -11.382  14.967  67.522  0.00  0.00    -0.264 NA
ATOM      5  C   UNL     1     -11.011  14.945  66.144  0.00  0.00    +0.090 C 
ATOM      6  C   UNL     1      -9.797  14.183  65.786  0.00  0.00    +0.090 C 
ENDROOT
BRANCH   1   7
ATOM      7  C   UNL     1     -10.861  12.043  66.071  0.00  0.00    +0.099 C 
BRANCH   7  11
ATOM      8  C   UNL     1      -8.297   8.156  64.867  0.00  0.00    +0.031 C 
ATOM      9  C   UNL     1      -9.013   9.185  64.520  0.00  0.00    -0.022 A 
ATOM     10  C   UNL     1      -9.768   9.911  65.424  0.00  0.00    -0.007 A 
ATOM     11  C   UNL     1     -10.511  11.017  65.043  0.00  0.00    -0.006 A 
ATOM     12  C   UNL     1     -10.533  11.403  63.720  0.00  0.00    -0.003 A 
ATOM     13  C   UNL     1      -9.812  10.672  62.785  0.00  0.00    -0.001 A 
ATOM     14  C   UNL     1      -9.082   9.563  63.191  0.00  0.00    -0.004 A 
ENDBRANCH   7  11
ENDBRANCH   1   7
BRANCH   4  15
ATOM     15  C   UNL     1     -10.194  15.657  68.315  0.00  0.00    +0.103 C 
BRANCH  15  16
ATOM     16  C   UNL     1     -11.021  15.837  69.700  0.00  0.00    -0.004 A 
ATOM     17  C   UNL     1     -10.563  15.297  70.838  0.00  0.00    -0.002 A 
ATOM     18  C   UNL     1     -11.426  15.185  71.921  0.00  0.00    +0.011 A 
ATOM     19  C   UNL     1     -12.736  14.825  71.625  0.00  0.00    +0.058 A 
ATOM     20 CL   UNL     1     -13.605  13.588  72.501  0.00  0.00    -0.082 Cl
ATOM     21  C   UNL     1     -13.283  15.524  70.556  0.00  0.00    +0.011 A 
ATOM     22  C   UNL     1     -12.399  15.761  69.506  0.00  0.00    -0.002 A 
ENDBRANCH  15  16
BRANCH  15  23
ATOM     23  C   UNL     1     -10.576  17.153  67.806  0.00  0.00    -0.004 A 
ATOM     24  C   UNL     1     -10.170  17.446  66.512  0.00  0.00    -0.003 A 
ATOM     25  C   UNL     1     -10.275  18.780  66.139  0.00  0.00    -0.000 A 
ATOM     26  C   UNL     1     -10.358  19.766  67.116  0.00  0.00    -0.000 A 
ATOM     27  C   UNL     1     -10.020  19.427  68.422  0.00  0.00    -0.000 A 
ATOM     28  C   UNL     1     -10.021  18.065  68.708  0.00  0.00    -0.003 A 
ENDBRANCH  15  23
ENDBRANCH   4  15
TORSDOF 5
ENDMDL
MODEL 6
REMARK VINA RESULT:      -6.7      3.170      7.634
REMARK  Name = 
REMARK  5 active torsions:
REMARK  status: ('A' for Active; 'I' for Inactive)
REMARK    1  A    between atoms: C_6  and  C_7
REMARK    2  A    between atoms: C_7  and  N_8
REMARK    3  A    between atoms: N_11  and  C_12
REMARK    4  A    between atoms: C_12  and  C_13
REMARK    5  A    between atoms: C_12  and  C_19
REMARK                            x       y       z     vdW  Elec       q    Type
REMARK                         _______ _______ _______ _____ _____    ______ ____
ROOT
ATOM      1  N   UNL     1     -11.679  11.515  67.087  0.00  0.00    -0.267 NA
ATOM      2  C   UNL     1     -11.501  12.957  66.903  0.00  0.00    +0.090 C 
ATOM      3  C   UNL     1     -10.206  13.237  67.662  0.00  0.00    +0.090 C 
ATOM      4  N   UNL     1     -10.571  13.333  69.078  0.00  0.00    -0.264 NA
ATOM      5  C   UNL     1     -11.038  12.027  69.418  0.00  0.00    +0.090 C 
ATOM      6  C   UNL     1     -12.012  11.400  68.502  0.00  0.00    +0.090 C 
ENDROOT
BRANCH   1   7
ATOM      7  C   UNL     1     -10.364  10.936  66.810  0.00  0.00    +0.099 C 
BRANCH   7  11
ATOM      8  C   UNL     1      -8.073   8.281  63.518  0.00  0.00    +0.031 C 
ATOM      9  C   UNL     1      -8.911   9.230  63.815  0.00  0.00    -0.022 A 
ATOM     10  C   UNL     1      -9.403   9.422  65.094  0.00  0.00    -0.007 A 
ATOM     11  C   UNL     1     -10.281  10.450  65.399  0.00  0.00    -0.006 A 
ATOM     12  C   UNL     1     -10.710  11.300  64.403  0.00  0.00    -0.003 A 
ATOM     13  C   UNL     1     -10.260  11.110  63.104  0.00  0.00    -0.001 A 
ATOM     14  C   UNL     1      -9.387  10.068  62.822  0.00  0.00    -0.004 A 
ENDBRANCH   7  11
ENDBRANCH   1   7
BRANCH   4  15
ATOM     15  C   UNL     1     -11.832  14.293  69.071  0.00  0.00    +0.103 C 
BRANCH  15  16
ATOM     16  C   UNL     1     -10.973  15.670  69.047  0.00  0.00    -0.004 A 
ATOM     17  C   UNL     1     -11.222  16.608  68.122  0.00  0.00    -0.002 A 
ATOM     18  C   UNL     1     -10.283  17.612  67.918  0.00  0.00    +0.011 A 
ATOM     19  C   UNL     1      -8.950  17.223  67.968  0.00  0.00    +0.058 A 
ATOM     20 CL   UNL     1      -7.770  17.708  66.774  0.00  0.00    -0.082 Cl
ATOM     21  C   UNL     1      -8.645  16.397  69.043  0.00  0.00    +0.011 A 
ATOM     22  C   UNL     1      -9.629  15.460  69.350  0.00  0.00    -0.002 A 
ENDBRANCH  15  16
BRANCH  15  23
ATOM     23  C   UNL     1     -11.962  14.316  70.692  0.00  0.00    -0.004 A 
ATOM     24  C   UNL     1     -13.106  13.708  71.189  0.00  0.00    -0.003 A 
ATOM     25  C   UNL     1     -13.355  13.917  72.540  0.00  0.00    -0.000 A 
ATOM     26  C   UNL     1     -12.755  14.985  73.197  0.00  0.00    -0.000 A 
ATOM     27  C   UNL     1     -12.179  15.990  72.426  0.00  0.00    -0.000 A 
ATOM     28  C   UNL     1     -11.899  15.649  71.107  0.00  0.00    -0.003 A 
ENDBRANCH  15  23
ENDBRANCH   4  15
TORSDOF 5
ENDMDL
MODEL 7
REMARK VINA RESULT:      -6.6      1.705      2.557
REMARK  Name = 
REMARK  5 active torsions:
REMARK  status: ('A' for Active; 'I' for Inactive)
REMARK    1  A    between atoms: C_6  and  C_7
REMARK    2  A    between atoms: C_7  and  N_8
REMARK    3  A    between atoms: N_11  and  C_12
REMARK    4  A    between atoms: C_12  and  C_13
REMARK    5  A    between atoms: C_12  and  C_19
REMARK                            x       y       z     vdW  Elec       q    Type
REMARK                         _______ _______ _______ _____ _____    ______ ____
ROOT
ATOM      1  N   UNL     1     -11.239  16.061  67.994  0.00  0.00    -0.267 NA
ATOM      2  C   UNL     1     -11.517  14.843  68.760  0.00  0.00    +0.090 C 
ATOM      3  C   UNL     1     -10.139  14.195  68.874  0.00  0.00    +0.090 C 
ATOM      4  N   UNL     1      -9.904  13.499  67.606  0.00  0.00    -0.264 NA
ATOM      5  C   UNL     1      -9.851  14.539  66.629  0.00  0.00    +0.090 C 
ATOM      6  C   UNL     1     -10.925  15.552  66.664  0.00  0.00    +0.090 C 
ENDROOT
BRANCH   1   7
ATOM      7  C   UNL     1     -10.054  16.640  68.627  0.00  0.00    +0.099 C 
BRANCH   7  11
ATOM      8  C   UNL     1      -6.598  19.891  67.837  0.00  0.00    +0.031 C 
ATOM      9  C   UNL     1      -7.843  19.525  67.744  0.00  0.00    -0.022 A 
ATOM     10  C   UNL     1      -8.260  18.226  67.971  0.00  0.00    -0.007 A 
ATOM     11  C   UNL     1      -9.593  17.854  67.888  0.00  0.00    -0.006 A 
ATOM     12  C   UNL     1     -10.542  18.790  67.540  0.00  0.00    -0.003 A 
ATOM     13  C   UNL     1     -10.148  20.094  67.271  0.00  0.00    -0.001 A 
ATOM     14  C   UNL     1      -8.806  20.439  67.354  0.00  0.00    -0.004 A 
ENDBRANCH   7  11
ENDBRANCH   1   7
BRANCH   4  15
ATOM     15  C   UNL     1     -11.253  12.701  67.367  0.00  0.00    +0.103 C 
BRANCH  15  16
ATOM     16  C   UNL     1     -10.658  11.259  67.813  0.00  0.00    -0.004 A 
ATOM     17  C   UNL     1     -11.446  10.356  68.413  0.00  0.00    -0.002 A 
ATOM     18  C   UNL     1     -10.856   9.281  69.067  0.00  0.00    +0.011 A 
ATOM     19  C   UNL     1      -9.693   9.559  69.776  0.00  0.00    +0.058 A 
ATOM     20 CL   UNL     1      -9.412   8.994  71.405  0.00  0.00    -0.082 Cl
ATOM     21  C   UNL     1      -8.784  10.345  69.078  0.00  0.00    +0.011 A 
ATOM     22  C   UNL     1      -9.360  11.355  68.312  0.00  0.00    -0.002 A 
ENDBRANCH  15  16
BRANCH  15  23
ATOM     23  C   UNL     1     -10.941  12.427  65.795  0.00  0.00    -0.004 A 
ATOM     24  C   UNL     1     -12.050  12.498  64.964  0.00  0.00    -0.003 A 
ATOM     25  C   UNL     1     -11.855  12.042  63.666  0.00  0.00    -0.000 A 
ATOM     26  C   UNL     1     -10.787  11.198  63.383  0.00  0.00    -0.000 A 
ATOM     27  C   UNL     1     -10.135  10.585  64.447  0.00  0.00    -0.000 A 
ATOM     28  C   UNL     1     -10.338  11.170  65.693  0.00  0.00    -0.003 A 
ENDBRANCH  15  23
ENDBRANCH   4  15
TORSDOF 5
ENDMDL
MODEL 8
REMARK VINA RESULT:      -6.6      1.913      4.065
REMARK  Name = 
REMARK  5 active torsions:
REMARK  status: ('A' for Active; 'I' for Inactive)
REMARK    1  A    between atoms: C_6  and  C_7
REMARK    2  A    between atoms: C_7  and  N_8
REMARK    3  A    between atoms: N_11  and  C_12
REMARK    4  A    between atoms: C_12  and  C_13
REMARK    5  A    between atoms: C_12  and  C_19
REMARK                            x       y       z     vdW  Elec       q    Type
REMARK                         _______ _______ _______ _____ _____    ______ ____
ROOT
ATOM      1  N   UNL     1      -7.559  16.408  68.271  0.00  0.00    -0.267 NA
ATOM      2  C   UNL     1      -8.270  15.872  67.107  0.00  0.00    +0.090 C 
ATOM      3  C   UNL     1      -9.720  16.257  67.390  0.00  0.00    +0.090 C 
ATOM      4  N   UNL     1     -10.237  15.258  68.328  0.00  0.00    -0.264 NA
ATOM      5  C   UNL     1      -9.465  15.445  69.514  0.00  0.00    +0.090 C 
ATOM      6  C   UNL     1      -8.000  15.541  69.357  0.00  0.00    +0.090 C 
ENDROOT
BRANCH   1   7
ATOM      7  C   UNL     1      -8.084  17.764  68.438  0.00  0.00    +0.099 C 
BRANCH   7  11
ATOM      8  C   UNL     1      -3.990  20.141  69.292  0.00  0.00    +0.031 C 
ATOM      9  C   UNL     1      -5.118  20.033  68.652  0.00  0.00    -0.022 A 
ATOM     10  C   UNL     1      -5.876  18.876  68.660  0.00  0.00    -0.007 A 
ATOM     11  C   UNL     1      -7.085  18.782  67.990  0.00  0.00    -0.006 A 
ATOM     12  C   UNL     1      -7.549  19.857  67.264  0.00  0.00    -0.003 A 
ATOM     13  C   UNL     1      -6.793  21.020  67.210  0.00  0.00    -0.001 A 
ATOM     14  C   UNL     1      -5.581  21.087  67.883  0.00  0.00    -0.004 A 
ENDBRANCH   7  11
ENDBRANCH   1   7
BRANCH   4  15
ATOM     15  C   UNL     1      -9.783  13.880  67.688  0.00  0.00    +0.103 C 
BRANCH  15  16
ATOM     16  C   UNL     1     -10.673  14.039  66.339  0.00  0.00    -0.004 A 
ATOM     17  C   UNL     1     -12.007  13.915  66.389  0.00  0.00    -0.002 A 
ATOM     18  C   UNL     1     -12.707  13.734  65.202  0.00  0.00    +0.011 A 
ATOM     19  C   UNL     1     -12.108  12.908  64.258  0.00  0.00    +0.058 A 
ATOM     20 CL   UNL     1     -12.971  11.647  63.411  0.00  0.00    -0.082 Cl
ATOM     21  C   UNL     1     -10.756  13.162  64.066  0.00  0.00    +0.011 A 
ATOM     22  C   UNL     1     -10.053  13.472  65.228  0.00  0.00    -0.002 A 
ENDBRANCH  15  16
BRANCH  15  23
ATOM     23  C   UNL     1     -10.943  13.023  68.439  0.00  0.00    -0.004 A 
ATOM     24  C   UNL     1     -11.413  13.592  69.614  0.00  0.00    -0.003 A 
ATOM     25  C   UNL     1     -12.227  12.776  70.390  0.00  0.00    -0.000 A 
ATOM     26  C   UNL     1     -12.195  11.397  70.212  0.00  0.00    -0.000 A 
ATOM     27  C   UNL     1     -11.136  10.852  69.494  0.00  0.00    -0.000 A 
ATOM     28  C   UNL     1     -10.436  11.744  68.688  0.00  0.00    -0.003 A 
ENDBRANCH  15  23
ENDBRANCH   4  15
TORSDOF 5
ENDMDL
MODEL 9
REMARK VINA RESULT:      -6.4      1.153      1.405
REMARK  Name = 
REMARK  5 active torsions:
REMARK  status: ('A' for Active; 'I' for Inactive)
REMARK    1  A    between atoms: C_6  and  C_7
REMARK    2  A    between atoms: C_7  and  N_8
REMARK    3  A    between atoms: N_11  and  C_12
REMARK    4  A    between atoms: C_12  and  C_13
REMARK    5  A    between atoms: C_12  and  C_19
REMARK                            x       y       z     vdW  Elec       q    Type
REMARK                         _______ _______ _______ _____ _____    ______ ____
ROOT
ATOM      1  N   UNL     1      -9.407  17.204  67.500  0.00  0.00    -0.267 NA
ATOM      2  C   UNL     1      -9.637  16.052  68.376  0.00  0.00    +0.090 C 
ATOM      3  C   UNL     1      -8.660  15.013  67.829  0.00  0.00    +0.090 C 
ATOM      4  N   UNL     1      -9.306  14.415  66.658  0.00  0.00    -0.264 NA
ATOM      5  C   UNL     1      -9.419  15.488  65.722  0.00  0.00    +0.090 C 
ATOM      6  C   UNL     1      -9.962  16.766  66.225  0.00  0.00    +0.090 C 
ENDROOT
BRANCH   1   7
ATOM      7  C   UNL     1      -7.952  17.332  67.423  0.00  0.00    +0.099 C 
BRANCH   7  11
ATOM      8  C   UNL     1      -5.570  21.412  66.517  0.00  0.00    +0.031 C 
ATOM      9  C   UNL     1      -6.112  20.588  67.366  0.00  0.00    -0.022 A 
ATOM     10  C   UNL     1      -6.955  19.562  66.980  0.00  0.00    -0.007 A 
ATOM     11  C   UNL     1      -7.508  18.680  67.894  0.00  0.00    -0.006 A 
ATOM     12  C   UNL     1      -7.244  18.832  69.237  0.00  0.00    -0.003 A 
ATOM     13  C   UNL     1      -6.428  19.875  69.657  0.00  0.00    -0.001 A 
ATOM     14  C   UNL     1      -5.892  20.750  68.722  0.00  0.00    -0.004 A 
ENDBRANCH   7  11
ENDBRANCH   1   7
BRANCH   4  15
ATOM     15  C   UNL     1     -10.771  14.088  67.171  0.00  0.00    +0.103 C 
BRANCH  15  16
ATOM     16  C   UNL     1     -10.310  12.931  68.213  0.00  0.00    -0.004 A 
ATOM     17  C   UNL     1      -9.381  12.032  67.860  0.00  0.00    -0.002 A 
ATOM     18  C   UNL     1      -9.239  10.881  68.626  0.00  0.00    +0.011 A 
ATOM     19  C   UNL     1     -10.415  10.307  69.092  0.00  0.00    +0.058 A 
ATOM     20 CL   UNL     1     -10.750   8.596  68.981  0.00  0.00    -0.082 Cl
ATOM     21  C   UNL     1     -11.310  11.221  69.635  0.00  0.00    +0.011 A 
ATOM     22  C   UNL     1     -11.379  12.436  68.958  0.00  0.00    -0.002 A 
ENDBRANCH  15  16
BRANCH  15  23
ATOM     23  C   UNL     1     -11.062  13.009  65.989  0.00  0.00    -0.004 A 
ATOM     24  C   UNL     1     -10.187  13.078  64.914  0.00  0.00    -0.003 A 
ATOM     25  C   UNL     1     -10.551  12.335  63.798  0.00  0.00    -0.000 A 
ATOM     26  C   UNL     1     -11.872  11.932  63.636  0.00  0.00    -0.000 A 
ATOM     27  C   UNL     1     -12.846  12.543  64.420  0.00  0.00    -0.000 A 
ATOM     28  C   UNL     1     -12.378  13.194  65.557  0.00  0.00    -0.003 A 
ENDBRANCH  15  23
ENDBRANCH   4  15
TORSDOF 5
ENDMDL
