MODEL 1
REMARK VINA RESULT:      -8.0      0.000      0.000
REMARK  Name = 
REMARK  6 active torsions:
REMARK  status: ('A' for Active; 'I' for Inactive)
REMARK    1  A    between atoms: O_2  and  C_3
REMARK    2  A    between atoms: C_6  and  N_7
REMARK    3  A    between atoms: C_8  and  C_10
REMARK    4  A    between atoms: C_13  and  C_14
REMARK    5  A    between atoms: C_21  and  C_22
REMARK    6  A    between atoms: N_24  and  C_25
REMARK                            x       y       z     vdW  Elec       q    Type
REMARK                         _______ _______ _______ _____ _____    ______ ____
ROOT
ATOM      1  C   UNL     1     -10.464  11.086  64.764  0.00  0.00    +0.139 A 
ATOM      2  C   UNL     1     -10.573  11.175  66.147  0.00  0.00    +0.043 A 
ATOM      3  C   UNL     1     -11.154  12.287  66.745  0.00  0.00    +0.074 A 
ATOM      4  C   UNL     1     -11.855  13.211  65.979  0.00  0.00    +0.078 A 
ATOM      5  C   UNL     1     -11.873  12.984  64.609  0.00  0.00    +0.020 A 
ATOM      6  C   UNL     1     -11.181  11.971  64.001  0.00  0.00    +0.038 A 
ENDROOT
BRANCH   4   7
ATOM      7  N   UNL     1     -11.879  14.531  66.533  0.00  0.00    -0.175 NA
ATOM      8  C   UNL     1     -10.805  15.439  66.413  0.00  0.00    +0.269 C 
ATOM      9  O   UNL     1     -10.106  15.347  65.363  0.00  0.00    -0.268 OA
BRANCH   8  10
ATOM     10  C   UNL     1     -10.352  16.303  67.511  0.00  0.00    +0.055 A 
ATOM     11  C   UNL     1      -9.179  15.952  68.161  0.00  0.00    +0.005 A 
ATOM     12  C   UNL     1      -8.362  16.899  68.764  0.00  0.00    +0.008 A 
ATOM     13  C   UNL     1      -8.478  18.222  68.356  0.00  0.00    +0.087 A 
ATOM     14  C   UNL     1      -9.722  18.616  67.895  0.00  0.00    +0.008 A 
ATOM     15  C   UNL     1     -10.567  17.662  67.342  0.00  0.00    +0.005 A 
BRANCH  13  16
ATOM     16  C   UNL     1      -7.321  19.100  68.343  0.00  0.00    +0.376 C 
ATOM     17  N   UNL     1      -6.324  18.863  67.347  0.00  0.00    -0.179 N 
ATOM     18  C   UNL     1      -6.786  18.392  66.044  0.00  0.00    +0.254 C 
ATOM     19  C   UNL     1      -4.995  18.418  67.756  0.00  0.00    +0.254 C 
ATOM     20  N   UNL     1      -6.911  19.687  69.425  0.00  0.00    +0.193 NA
ENDBRANCH  13  16
ENDBRANCH   8  10
ENDBRANCH   4   7
BRANCH   3  21
ATOM     21  C   UNL     1     -11.570  12.164  68.149  0.00  0.00    +0.272 C 
ATOM     22  N   UNL     1     -11.424  13.202  69.093  0.00  0.00    -0.157 NA
ATOM     23  O   UNL     1     -12.405  11.257  68.449  0.00  0.00    -0.268 OA
BRANCH  22  24
ATOM     24  C   UNL     1     -12.455  13.643  69.970  0.00  0.00    +0.155 A 
ATOM     25  N   UNL     1     -12.721  12.839  71.030  0.00  0.00    -0.226 NA
ATOM     26  C   UNL     1     -13.080  13.344  72.236  0.00  0.00    +0.112 A 
ATOM     27  C   UNL     1     -12.866  14.680  72.551  0.00  0.00    +0.077 A 
ATOM     28 CL   UNL     1     -12.218  15.170  74.113  0.00  0.00    -0.081 Cl
ATOM     29  C   UNL     1     -12.818  15.535  71.457  0.00  0.00    +0.016 A 
ATOM     30  C   UNL     1     -12.749  14.984  70.182  0.00  0.00    +0.037 A 
ENDBRANCH  22  24
ENDBRANCH   3  21
BRANCH   1  32
ATOM     31  C   UNL     1      -9.361   9.943  62.905  0.00  0.00    +0.252 C 
ATOM     32  O   UNL     1      -9.768  10.014  64.249  0.00  0.00    -0.471 OA
ENDBRANCH   1  32
TORSDOF 6
ENDMDL
MODEL 2
REMARK VINA RESULT:      -7.8      3.329      7.711
REMARK  Name = 
REMARK  6 active torsions:
REMARK  status: ('A' for Active; 'I' for Inactive)
REMARK    1  A    between atoms: O_2  and  C_3
REMARK    2  A    between atoms: C_6  and  N_7
REMARK    3  A    between atoms: C_8  and  C_10
REMARK    4  A    between atoms: C_13  and  C_14
REMARK    5  A    between atoms: C_21  and  C_22
REMARK    6  A    between atoms: N_24  and  C_25
REMARK                            x       y       z     vdW  Elec       q    Type
REMARK                         _______ _______ _______ _____ _____    ______ ____
ROOT
ATOM      1  C   UNL     1     -11.978  15.676  71.597  0.00  0.00    +0.139 A 
ATOM      2  C   UNL     1     -11.228  16.312  70.615  0.00  0.00    +0.043 A 
ATOM      3  C   UNL     1     -10.998  15.702  69.387  0.00  0.00    +0.074 A 
ATOM      4  C   UNL     1     -11.711  14.566  69.023  0.00  0.00    +0.078 A 
ATOM      5  C   UNL     1     -12.589  14.062  69.973  0.00  0.00    +0.020 A 
ATOM      6  C   UNL     1     -12.712  14.574  71.237  0.00  0.00    +0.038 A 
ENDROOT
BRANCH   4   7
ATOM      7  N   UNL     1     -11.024  13.718  68.096  0.00  0.00    -0.175 NA
ATOM      8  C   UNL     1     -11.581  13.306  66.866  0.00  0.00    +0.269 C 
ATOM      9  O   UNL     1     -12.377  14.117  66.311  0.00  0.00    -0.268 OA
BRANCH   8  10
ATOM     10  C   UNL     1     -11.449  11.943  66.335  0.00  0.00    +0.055 A 
ATOM     11  C   UNL     1     -10.877  11.798  65.080  0.00  0.00    +0.005 A 
ATOM     12  C   UNL     1     -10.188  10.649  64.716  0.00  0.00    +0.008 A 
ATOM     13  C   UNL     1      -9.695   9.831  65.725  0.00  0.00    +0.087 A 
ATOM     14  C   UNL     1     -10.399   9.833  66.916  0.00  0.00    +0.008 A 
ATOM     15  C   UNL     1     -11.137  10.959  67.259  0.00  0.00    +0.005 A 
BRANCH  13  16
ATOM     16  C   UNL     1      -8.458   9.091  65.545  0.00  0.00    +0.376 C 
ATOM     17  N   UNL     1      -7.235   9.830  65.584  0.00  0.00    -0.179 N 
ATOM     18  C   UNL     1      -7.176  10.965  66.501  0.00  0.00    +0.254 C 
ATOM     19  C   UNL     1      -6.424   9.937  64.375  0.00  0.00    +0.254 C 
ATOM     20  N   UNL     1      -8.430   7.986  64.864  0.00  0.00    +0.193 NA
ENDBRANCH  13  16
ENDBRANCH   8  10
ENDBRANCH   4   7
BRANCH   3  21
ATOM     21  C   UNL     1     -10.530  16.552  68.284  0.00  0.00    +0.272 C 
ATOM     22  N   UNL     1     -11.000  17.864  68.065  0.00  0.00    -0.157 NA
ATOM     23  O   UNL     1      -9.428  16.260  67.728  0.00  0.00    -0.268 OA
BRANCH  22  24
ATOM     24  C   UNL     1     -10.161  18.990  67.833  0.00  0.00    +0.155 A 
ATOM     25  N   UNL     1      -9.179  19.201  68.744  0.00  0.00    -0.226 NA
ATOM     26  C   UNL     1      -7.965  19.688  68.385  0.00  0.00    +0.112 A 
ATOM     27  C   UNL     1      -7.545  19.675  67.061  0.00  0.00    +0.077 A 
ATOM     28 CL   UNL     1      -5.916  19.184  66.611  0.00  0.00    -0.081 Cl
ATOM     29  C   UNL     1      -8.573  19.687  66.125  0.00  0.00    +0.016 A 
ATOM     30  C   UNL     1      -9.876  19.476  66.563  0.00  0.00    +0.037 A 
ENDBRANCH  22  24
ENDBRANCH   3  21
BRANCH   1  32
ATOM     31  C   UNL     1     -12.438  15.600  73.997  0.00  0.00    +0.252 C 
ATOM     32  O   UNL     1     -12.061  16.286  72.830  0.00  0.00    -0.471 OA
ENDBRANCH   1  32
TORSDOF 6
ENDMDL
MODEL 3
REMARK VINA RESULT:      -7.7      2.357      2.783
REMARK  Name = 
REMARK  6 active torsions:
REMARK  status: ('A' for Active; 'I' for Inactive)
REMARK    1  A    between atoms: O_2  and  C_3
REMARK    2  A    between atoms: C_6  and  N_7
REMARK    3  A    between atoms: C_8  and  C_10
REMARK    4  A    between atoms: C_13  and  C_14
REMARK    5  A    between atoms: C_21  and  C_22
REMARK    6  A    between atoms: N_24  and  C_25
REMARK                            x       y       z     vdW  Elec       q    Type
REMARK                         _______ _______ _______ _____ _____    ______ ____
ROOT
ATOM      1  C   UNL     1     -10.554  10.997  64.645  0.00  0.00    +0.139 A 
ATOM      2  C   UNL     1     -10.576  11.197  66.020  0.00  0.00    +0.043 A 
ATOM      3  C   UNL     1     -11.144  12.343  66.564  0.00  0.00    +0.074 A 
ATOM      4  C   UNL     1     -11.917  13.186  65.774  0.00  0.00    +0.078 A 
ATOM      5  C   UNL     1     -12.018  12.848  64.431  0.00  0.00    +0.020 A 
ATOM      6  C   UNL     1     -11.342  11.802  63.862  0.00  0.00    +0.038 A 
ENDROOT
BRANCH   4   7
ATOM      7  N   UNL     1     -11.939  14.547  66.220  0.00  0.00    -0.175 NA
ATOM      8  C   UNL     1     -10.832  15.416  66.104  0.00  0.00    +0.269 C 
ATOM      9  O   UNL     1     -10.069  15.223  65.114  0.00  0.00    -0.268 OA
BRANCH   8  10
ATOM     10  C   UNL     1     -10.428  16.354  67.158  0.00  0.00    +0.055 A 
ATOM     11  C   UNL     1      -9.359  15.992  67.963  0.00  0.00    +0.005 A 
ATOM     12  C   UNL     1      -8.536  16.937  68.561  0.00  0.00    +0.008 A 
ATOM     13  C   UNL     1      -8.506  18.217  68.021  0.00  0.00    +0.087 A 
ATOM     14  C   UNL     1      -9.661  18.645  67.391  0.00  0.00    +0.008 A 
ATOM     15  C   UNL     1     -10.517  17.701  66.840  0.00  0.00    +0.005 A 
BRANCH  13  16
ATOM     16  C   UNL     1      -7.288  19.008  68.052  0.00  0.00    +0.376 C 
ATOM     17  N   UNL     1      -6.229  18.625  67.173  0.00  0.00    -0.179 N 
ATOM     18  C   UNL     1      -6.611  18.087  65.870  0.00  0.00    +0.254 C 
ATOM     19  C   UNL     1      -4.978  18.121  67.734  0.00  0.00    +0.254 C 
ATOM     20  N   UNL     1      -6.930  19.647  69.124  0.00  0.00    +0.193 NA
ENDBRANCH  13  16
ENDBRANCH   8  10
ENDBRANCH   4   7
BRANCH   3  21
ATOM     21  C   UNL     1     -11.466  12.327  67.998  0.00  0.00    +0.272 C 
ATOM     22  N   UNL     1     -12.181  11.282  68.619  0.00  0.00    -0.157 NA
ATOM     23  O   UNL     1     -10.788  13.070  68.772  0.00  0.00    -0.268 OA
BRANCH  22  24
ATOM     24  C   UNL     1     -11.778  10.636  69.822  0.00  0.00    +0.155 A 
ATOM     25  N   UNL     1     -12.687  10.629  70.828  0.00  0.00    -0.226 NA
ATOM     26  C   UNL     1     -12.807   9.576  71.675  0.00  0.00    +0.112 A 
ATOM     27  C   UNL     1     -12.266   8.335  71.364  0.00  0.00    +0.077 A 
ATOM     28 CL   UNL     1     -13.162   6.842  71.625  0.00  0.00    -0.081 Cl
ATOM     29  C   UNL     1     -11.180   8.376  70.497  0.00  0.00    +0.016 A 
ATOM     30  C   UNL     1     -10.887   9.571  69.850  0.00  0.00    +0.037 A 
ENDBRANCH  22  24
ENDBRANCH   3  21
BRANCH   1  32
ATOM     31  C   UNL     1      -9.095   9.931  62.998  0.00  0.00    +0.252 C 
ATOM     32  O   UNL     1      -9.866   9.900  64.172  0.00  0.00    -0.471 OA
ENDBRANCH   1  32
TORSDOF 6
ENDMDL
MODEL 4
REMARK VINA RESULT:      -7.6      3.290      7.573
REMARK  Name = 
REMARK  6 active torsions:
REMARK  status: ('A' for Active; 'I' for Inactive)
REMARK    1  A    between atoms: O_2  and  C_3
REMARK    2  A    between atoms: C_6  and  N_7
REMARK    3  A    between atoms: C_8  and  C_10
REMARK    4  A    between atoms: C_13  and  C_14
REMARK    5  A    between atoms: C_21  and  C_22
REMARK    6  A    between atoms: N_24  and  C_25
REMARK                            x       y       z     vdW  Elec       q    Type
REMARK                         _______ _______ _______ _____ _____    ______ ____
ROOT
ATOM      1  C   UNL     1     -12.536  14.663  72.983  0.00  0.00    +0.139 A 
ATOM      2  C   UNL     1     -11.753  15.431  72.128  0.00  0.00    +0.043 A 
ATOM      3  C   UNL     1     -11.440  14.978  70.852  0.00  0.00    +0.074 A 
ATOM      4  C   UNL     1     -12.098  13.879  70.314  0.00  0.00    +0.078 A 
ATOM      5  C   UNL     1     -13.011  13.244  71.146  0.00  0.00    +0.020 A 
ATOM      6  C   UNL     1     -13.217  13.597  72.452  0.00  0.00    +0.038 A 
ENDROOT
BRANCH   4   7
ATOM      7  N   UNL     1     -11.337  13.165  69.333  0.00  0.00    -0.175 NA
ATOM      8  C   UNL     1     -11.775  12.974  68.005  0.00  0.00    +0.269 C 
ATOM      9  O   UNL     1     -12.495  13.891  67.514  0.00  0.00    -0.268 OA
BRANCH   8  10
ATOM     10  C   UNL     1     -11.617  11.709  67.276  0.00  0.00    +0.055 A 
ATOM     11  C   UNL     1     -11.078  11.769  65.999  0.00  0.00    +0.005 A 
ATOM     12  C   UNL     1     -10.364  10.711  65.453  0.00  0.00    +0.008 A 
ATOM     13  C   UNL     1      -9.818   9.771  66.319  0.00  0.00    +0.087 A 
ATOM     14  C   UNL     1     -10.486   9.574  67.514  0.00  0.00    +0.008 A 
ATOM     15  C   UNL     1     -11.248  10.611  68.037  0.00  0.00    +0.005 A 
BRANCH  13  16
ATOM     16  C   UNL     1      -8.564   9.109  66.001  0.00  0.00    +0.376 C 
ATOM     17  N   UNL     1      -7.372   9.896  66.045  0.00  0.00    -0.179 N 
ATOM     18  C   UNL     1      -7.305  10.941  67.062  0.00  0.00    +0.254 C 
ATOM     19  C   UNL     1      -6.638  10.153  64.810  0.00  0.00    +0.254 C 
ATOM     20  N   UNL     1      -8.531   8.075  65.217  0.00  0.00    +0.193 NA
ENDBRANCH  13  16
ENDBRANCH   8  10
ENDBRANCH   4   7
BRANCH   3  21
ATOM     21  C   UNL     1     -10.938  15.966  69.886  0.00  0.00    +0.272 C 
ATOM     22  N   UNL     1      -9.595  16.014  69.455  0.00  0.00    -0.157 NA
ATOM     23  O   UNL     1     -11.778  16.558  69.143  0.00  0.00    -0.268 OA
BRANCH  22  24
ATOM     24  C   UNL     1      -9.190  16.102  68.094  0.00  0.00    +0.155 A 
ATOM     25  N   UNL     1      -9.025  14.924  67.442  0.00  0.00    -0.226 NA
ATOM     26  C   UNL     1      -9.334  14.785  66.130  0.00  0.00    +0.112 A 
ATOM     27  C   UNL     1     -10.140  15.709  65.476  0.00  0.00    +0.077 A 
ATOM     28 CL   UNL     1     -11.428  15.207  64.386  0.00  0.00    -0.081 Cl
ATOM     29  C   UNL     1     -10.125  16.985  66.028  0.00  0.00    +0.016 A 
ATOM     30  C   UNL     1      -9.527  17.168  67.269  0.00  0.00    +0.037 A 
ENDBRANCH  22  24
ENDBRANCH   3  21
BRANCH   1  32
ATOM     31  C   UNL     1     -12.374  16.425  74.669  0.00  0.00    +0.252 C 
ATOM     32  O   UNL     1     -12.703  15.117  74.273  0.00  0.00    -0.471 OA
ENDBRANCH   1  32
TORSDOF 6
ENDMDL
MODEL 5
REMARK VINA RESULT:      -7.6      4.152      8.642
REMARK  Name = 
REMARK  6 active torsions:
REMARK  status: ('A' for Active; 'I' for Inactive)
REMARK    1  A    between atoms: O_2  and  C_3
REMARK    2  A    between atoms: C_6  and  N_7
REMARK    3  A    between atoms: C_8  and  C_10
REMARK    4  A    between atoms: C_13  and  C_14
REMARK    5  A    between atoms: C_21  and  C_22
REMARK    6  A    between atoms: N_24  and  C_25
REMARK                            x       y       z     vdW  Elec       q    Type
REMARK                         _______ _______ _______ _____ _____    ______ ____
ROOT
ATOM      1  C   UNL     1     -10.455  16.944  66.278  0.00  0.00    +0.139 A 
ATOM      2  C   UNL     1     -10.513  15.895  65.366  0.00  0.00    +0.043 A 
ATOM      3  C   UNL     1     -10.584  14.577  65.802  0.00  0.00    +0.074 A 
ATOM      4  C   UNL     1     -10.848  14.291  67.136  0.00  0.00    +0.078 A 
ATOM      5  C   UNL     1     -10.961  15.383  67.987  0.00  0.00    +0.020 A 
ATOM      6  C   UNL     1     -10.748  16.676  67.591  0.00  0.00    +0.038 A 
ENDROOT
BRANCH   4   7
ATOM      7  N   UNL     1     -10.326  13.033  67.578  0.00  0.00    -0.175 NA
ATOM      8  C   UNL     1     -11.125  12.029  68.167  0.00  0.00    +0.269 C 
ATOM      9  O   UNL     1     -12.326  11.966  67.777  0.00  0.00    -0.268 OA
BRANCH   8  10
ATOM     10  C   UNL     1     -10.696  11.231  69.323  0.00  0.00    +0.055 A 
ATOM     11  C   UNL     1     -11.661  10.888  70.258  0.00  0.00    +0.005 A 
ATOM     12  C   UNL     1     -11.562   9.736  71.027  0.00  0.00    +0.008 A 
ATOM     13  C   UNL     1     -10.742   8.711  70.572  0.00  0.00    +0.087 A 
ATOM     14  C   UNL     1      -9.657   9.089  69.800  0.00  0.00    +0.008 A 
ATOM     15  C   UNL     1      -9.728  10.271  69.073  0.00  0.00    +0.005 A 
BRANCH  13  16
ATOM     16  C   UNL     1     -11.074   7.321  70.832  0.00  0.00    +0.376 C 
ATOM     17  N   UNL     1     -10.420   6.681  71.929  0.00  0.00    -0.179 N 
ATOM     18  C   UNL     1     -10.136   7.502  73.102  0.00  0.00    +0.254 C 
ATOM     19  C   UNL     1      -9.489   5.587  71.669  0.00  0.00    +0.254 C 
ATOM     20  N   UNL     1     -11.478   6.538  69.879  0.00  0.00    +0.193 NA
ENDBRANCH  13  16
ENDBRANCH   8  10
ENDBRANCH   4   7
BRANCH   3  21
ATOM     21  C   UNL     1     -11.010  13.562  64.828  0.00  0.00    +0.272 C 
ATOM     22  N   UNL     1     -10.106  12.747  64.115  0.00  0.00    -0.157 NA
ATOM     23  O   UNL     1     -12.207  13.145  64.882  0.00  0.00    -0.268 OA
BRANCH  22  24
ATOM     24  C   UNL     1     -10.224  11.334  63.990  0.00  0.00    +0.155 A 
ATOM     25  N   UNL     1      -9.780  10.799  62.825  0.00  0.00    -0.226 NA
ATOM     26  C   UNL     1      -9.178   9.585  62.780  0.00  0.00    +0.112 A 
ATOM     27  C   UNL     1      -8.678   8.985  63.930  0.00  0.00    +0.077 A 
ATOM     28 CL   UNL     1      -7.102   8.203  63.955  0.00  0.00    -0.081 Cl
ATOM     29  C   UNL     1      -9.301   9.380  65.108  0.00  0.00    +0.016 A 
ATOM     30  C   UNL     1     -10.165  10.468  65.074  0.00  0.00    +0.037 A 
ENDBRANCH  22  24
ENDBRANCH   3  21
BRANCH   1  32
ATOM     31  C   UNL     1     -10.560  19.375  66.506  0.00  0.00    +0.252 C 
ATOM     32  O   UNL     1     -10.261  18.212  65.775  0.00  0.00    -0.471 OA
ENDBRANCH   1  32
TORSDOF 6
ENDMDL
MODEL 6
REMARK VINA RESULT:      -7.6      3.079      4.709
REMARK  Name = 
REMARK  6 active torsions:
REMARK  status: ('A' for Active; 'I' for Inactive)
REMARK    1  A    between atoms: O_2  and  C_3
REMARK    2  A    between atoms: C_6  and  N_7
REMARK    3  A    between atoms: C_8  and  C_10
REMARK    4  A    between atoms: C_13  and  C_14
REMARK    5  A    between atoms: C_21  and  C_22
REMARK    6  A    between atoms: N_24  and  C_25
REMARK                            x       y       z     vdW  Elec       q    Type
REMARK                         _______ _______ _______ _____ _____    ______ ____
ROOT
ATOM      1  C   UNL     1     -10.492   7.423  70.977  0.00  0.00    +0.139 A 
ATOM      2  C   UNL     1     -11.368   8.439  71.341  0.00  0.00    +0.043 A 
ATOM      3  C   UNL     1     -11.417   9.628  70.622  0.00  0.00    +0.074 A 
ATOM      4  C   UNL     1     -10.781   9.732  69.391  0.00  0.00    +0.078 A 
ATOM      5  C   UNL     1     -10.059   8.620  68.979  0.00  0.00    +0.020 A 
ATOM      6  C   UNL     1      -9.887   7.501  69.748  0.00  0.00    +0.038 A 
ENDROOT
BRANCH   4   7
ATOM      7  N   UNL     1     -10.390  11.066  69.047  0.00  0.00    -0.175 NA
ATOM      8  C   UNL     1     -10.736  11.681  67.825  0.00  0.00    +0.269 C 
ATOM      9  O   UNL     1     -11.839  11.333  67.314  0.00  0.00    -0.268 OA
BRANCH   8  10
ATOM     10  C   UNL     1      -9.807  12.511  67.047  0.00  0.00    +0.055 A 
ATOM     11  C   UNL     1     -10.352  13.377  66.111  0.00  0.00    +0.005 A 
ATOM     12  C   UNL     1      -9.721  14.559  65.748  0.00  0.00    +0.008 A 
ATOM     13  C   UNL     1      -8.777  15.092  66.616  0.00  0.00    +0.087 A 
ATOM     14  C   UNL     1      -8.090  14.189  67.408  0.00  0.00    +0.008 A 
ATOM     15  C   UNL     1      -8.694  12.980  67.728  0.00  0.00    +0.005 A 
BRANCH  13  16
ATOM     16  C   UNL     1      -8.600  16.530  66.731  0.00  0.00    +0.376 C 
ATOM     17  N   UNL     1      -9.629  17.270  67.391  0.00  0.00    -0.179 N 
ATOM     18  C   UNL     1     -10.303  16.616  68.509  0.00  0.00    +0.254 C 
ATOM     19  C   UNL     1     -10.428  18.224  66.628  0.00  0.00    +0.254 C 
ATOM     20  N   UNL     1      -7.895  17.191  65.865  0.00  0.00    +0.193 NA
ENDBRANCH  13  16
ENDBRANCH   8  10
ENDBRANCH   4   7
BRANCH   3  21
ATOM     21  C   UNL     1     -12.591  10.491  70.818  0.00  0.00    +0.272 C 
ATOM     22  N   UNL     1     -12.634  11.535  71.767  0.00  0.00    -0.157 NA
ATOM     23  O   UNL     1     -13.450  10.555  69.886  0.00  0.00    -0.268 OA
BRANCH  22  24
ATOM     24  C   UNL     1     -13.075  12.858  71.486  0.00  0.00    +0.155 A 
ATOM     25  N   UNL     1     -13.937  13.403  72.382  0.00  0.00    -0.226 NA
ATOM     26  C   UNL     1     -13.908  14.723  72.689  0.00  0.00    +0.112 A 
ATOM     27  C   UNL     1     -12.807  15.512  72.378  0.00  0.00    +0.077 A 
ATOM     28 CL   UNL     1     -12.144  16.669  73.528  0.00  0.00    -0.081 Cl
ATOM     29  C   UNL     1     -12.052  15.058  71.303  0.00  0.00    +0.016 A 
ATOM     30  C   UNL     1     -12.303  13.787  70.800  0.00  0.00    +0.037 A 
ENDBRANCH  22  24
ENDBRANCH   3  21
BRANCH   1  32
ATOM     31  C   UNL     1      -9.196   5.860  72.338  0.00  0.00    +0.252 C 
ATOM     32  O   UNL     1     -10.410   6.326  71.807  0.00  0.00    -0.471 OA
ENDBRANCH   1  32
TORSDOF 6
ENDMDL
MODEL 7
REMARK VINA RESULT:      -7.5      1.926      2.760
REMARK  Name = 
REMARK  6 active torsions:
REMARK  status: ('A' for Active; 'I' for Inactive)
REMARK    1  A    between atoms: O_2  and  C_3
REMARK    2  A    between atoms: C_6  and  N_7
REMARK    3  A    between atoms: C_8  and  C_10
REMARK    4  A    between atoms: C_13  and  C_14
REMARK    5  A    between atoms: C_21  and  C_22
REMARK    6  A    between atoms: N_24  and  C_25
REMARK                            x       y       z     vdW  Elec       q    Type
REMARK                         _______ _______ _______ _____ _____    ______ ____
ROOT
ATOM      1  C   UNL     1     -12.086  13.907  64.612  0.00  0.00    +0.139 A 
ATOM      2  C   UNL     1     -11.909  13.383  65.888  0.00  0.00    +0.043 A 
ATOM      3  C   UNL     1     -11.199  14.087  66.854  0.00  0.00    +0.074 A 
ATOM      4  C   UNL     1     -10.868  15.421  66.650  0.00  0.00    +0.078 A 
ATOM      5  C   UNL     1     -11.225  15.961  65.422  0.00  0.00    +0.020 A 
ATOM      6  C   UNL     1     -11.795  15.232  64.412  0.00  0.00    +0.038 A 
ENDROOT
BRANCH   4   7
ATOM      7  N   UNL     1      -9.698  15.847  67.357  0.00  0.00    -0.175 NA
ATOM      8  C   UNL     1      -9.567  17.129  67.932  0.00  0.00    +0.269 C 
ATOM      9  O   UNL     1     -10.632  17.669  68.351  0.00  0.00    -0.268 OA
BRANCH   8  10
ATOM     10  C   UNL     1      -8.331  17.920  67.870  0.00  0.00    +0.055 A 
ATOM     11  C   UNL     1      -8.278  19.086  68.618  0.00  0.00    +0.005 A 
ATOM     12  C   UNL     1      -7.080  19.592  69.105  0.00  0.00    +0.008 A 
ATOM     13  C   UNL     1      -6.000  18.726  69.220  0.00  0.00    +0.087 A 
ATOM     14  C   UNL     1      -5.959  17.671  68.325  0.00  0.00    +0.008 A 
ATOM     15  C   UNL     1      -7.151  17.197  67.791  0.00  0.00    +0.005 A 
BRANCH  13  16
ATOM     16  C   UNL     1      -5.025  18.891  70.285  0.00  0.00    +0.376 C 
ATOM     17  N   UNL     1      -3.777  19.501  69.949  0.00  0.00    -0.179 N 
ATOM     18  C   UNL     1      -3.805  20.554  68.938  0.00  0.00    +0.254 C 
ATOM     19  C   UNL     1      -2.551  18.712  70.022  0.00  0.00    +0.254 C 
ATOM     20  N   UNL     1      -5.006  18.091  71.307  0.00  0.00    +0.193 NA
ENDBRANCH  13  16
ENDBRANCH   8  10
ENDBRANCH   4   7
BRANCH   3  21
ATOM     21  C   UNL     1     -11.359  13.668  68.254  0.00  0.00    +0.272 C 
ATOM     22  N   UNL     1     -11.572  14.575  69.313  0.00  0.00    -0.157 NA
ATOM     23  O   UNL     1     -11.678  12.462  68.486  0.00  0.00    -0.268 OA
BRANCH  22  24
ATOM     24  C   UNL     1     -12.586  14.433  70.302  0.00  0.00    +0.155 A 
ATOM     25  N   UNL     1     -12.407  13.432  71.200  0.00  0.00    -0.226 NA
ATOM     26  C   UNL     1     -12.789  13.559  72.495  0.00  0.00    +0.112 A 
ATOM     27  C   UNL     1     -13.060  14.804  73.049  0.00  0.00    +0.077 A 
ATOM     28 CL   UNL     1     -12.471  15.255  74.645  0.00  0.00    -0.081 Cl
ATOM     29  C   UNL     1     -13.464  15.771  72.135  0.00  0.00    +0.016 A 
ATOM     30  C   UNL     1     -13.338  15.500  70.778  0.00  0.00    +0.037 A 
ENDBRANCH  22  24
ENDBRANCH   3  21
BRANCH   1  32
ATOM     31  C   UNL     1     -12.238  11.806  63.371  0.00  0.00    +0.252 C 
ATOM     32  O   UNL     1     -12.693  13.101  63.673  0.00  0.00    -0.471 OA
ENDBRANCH   1  32
TORSDOF 6
ENDMDL
MODEL 8
REMARK VINA RESULT:      -7.3      4.821      9.118
REMARK  Name = 
REMARK  6 active torsions:
REMARK  status: ('A' for Active; 'I' for Inactive)
REMARK    1  A    between atoms: O_2  and  C_3
REMARK    2  A    between atoms: C_6  and  N_7
REMARK    3  A    between atoms: C_8  and  C_10
REMARK    4  A    between atoms: C_13  and  C_14
REMARK    5  A    between atoms: C_21  and  C_22
REMARK    6  A    between atoms: N_24  and  C_25
REMARK                            x       y       z     vdW  Elec       q    Type
REMARK                         _______ _______ _______ _____ _____    ______ ____
ROOT
ATOM      1  C   UNL     1     -11.437  15.823  68.483  0.00  0.00    +0.139 A 
ATOM      2  C   UNL     1     -11.149  14.924  67.463  0.00  0.00    +0.043 A 
ATOM      3  C   UNL     1     -11.146  13.554  67.702  0.00  0.00    +0.074 A 
ATOM      4  C   UNL     1     -11.668  13.046  68.885  0.00  0.00    +0.078 A 
ATOM      5  C   UNL     1     -12.113  13.981  69.810  0.00  0.00    +0.020 A 
ATOM      6  C   UNL     1     -11.985  15.333  69.641  0.00  0.00    +0.038 A 
ENDROOT
BRANCH   4   7
ATOM      7  N   UNL     1     -11.102  11.792  69.282  0.00  0.00    -0.175 NA
ATOM      8  C   UNL     1     -11.857  10.757  69.875  0.00  0.00    +0.269 C 
ATOM      9  O   UNL     1     -13.069  10.673  69.523  0.00  0.00    -0.268 OA
BRANCH   8  10
ATOM     10  C   UNL     1     -11.371   9.945  70.999  0.00  0.00    +0.055 A 
ATOM     11  C   UNL     1     -12.295   9.157  71.666  0.00  0.00    +0.005 A 
ATOM     12  C   UNL     1     -11.932   7.979  72.304  0.00  0.00    +0.008 A 
ATOM     13  C   UNL     1     -10.748   7.362  71.920  0.00  0.00    +0.087 A 
ATOM     14  C   UNL     1      -9.750   8.193  71.440  0.00  0.00    +0.008 A 
ATOM     15  C   UNL     1     -10.105   9.400  70.851  0.00  0.00    +0.005 A 
BRANCH  13  16
ATOM     16  C   UNL     1     -10.620   5.916  71.948  0.00  0.00    +0.376 C 
ATOM     17  N   UNL     1      -9.975   5.332  73.082  0.00  0.00    -0.179 N 
ATOM     18  C   UNL     1     -10.188   5.981  74.372  0.00  0.00    +0.254 C 
ATOM     19  C   UNL     1      -8.695   4.652  72.908  0.00  0.00    +0.254 C 
ATOM     20  N   UNL     1     -10.567   5.225  70.850  0.00  0.00    +0.193 NA
ENDBRANCH  13  16
ENDBRANCH   8  10
ENDBRANCH   4   7
BRANCH   3  21
ATOM     21  C   UNL     1     -11.203  12.662  66.535  0.00  0.00    +0.272 C 
ATOM     22  N   UNL     1     -10.110  11.879  66.106  0.00  0.00    -0.157 NA
ATOM     23  O   UNL     1     -12.343  12.298  66.114  0.00  0.00    -0.268 OA
BRANCH  22  24
ATOM     24  C   UNL     1     -10.187  10.493  65.794  0.00  0.00    +0.155 A 
ATOM     25  N   UNL     1      -9.455  10.079  64.730  0.00  0.00    -0.226 NA
ATOM     26  C   UNL     1      -8.858   8.862  64.705  0.00  0.00    +0.112 A 
ATOM     27  C   UNL     1      -8.673   8.124  65.868  0.00  0.00    +0.077 A 
ATOM     28 CL   UNL     1      -7.155   7.301  66.211  0.00  0.00    -0.081 Cl
ATOM     29  C   UNL     1      -9.581   8.402  66.882  0.00  0.00    +0.016 A 
ATOM     30  C   UNL     1     -10.410   9.510  66.751  0.00  0.00    +0.037 A 
ENDBRANCH  22  24
ENDBRANCH   3  21
BRANCH   1  32
ATOM     31  C   UNL     1     -10.107  17.726  67.716  0.00  0.00    +0.252 C 
ATOM     32  O   UNL     1     -11.300  17.166  68.204  0.00  0.00    -0.471 OA
ENDBRANCH   1  32
TORSDOF 6
ENDMDL
MODEL 9
REMARK VINA RESULT:      -7.3      4.483      7.915
REMARK  Name = 
REMARK  6 active torsions:
REMARK  status: ('A' for Active; 'I' for Inactive)
REMARK    1  A    between atoms: O_2  and  C_3
REMARK    2  A    between atoms: C_6  and  N_7
REMARK    3  A    between atoms: C_8  and  C_10
REMARK    4  A    between atoms: C_13  and  C_14
REMARK    5  A    between atoms: C_21  and  C_22
REMARK    6  A    between atoms: N_24  and  C_25
REMARK                            x       y       z     vdW  Elec       q    Type
REMARK                         _______ _______ _______ _____ _____    ______ ____
ROOT
ATOM      1  C   UNL     1      -9.960  10.326  64.352  0.00  0.00    +0.139 A 
ATOM      2  C   UNL     1     -10.350  11.473  65.034  0.00  0.00    +0.043 A 
ATOM      3  C   UNL     1     -10.607  11.436  66.399  0.00  0.00    +0.074 A 
ATOM      4  C   UNL     1     -10.244  10.326  67.153  0.00  0.00    +0.078 A 
ATOM      5  C   UNL     1      -9.687   9.264  66.452  0.00  0.00    +0.020 A 
ATOM      6  C   UNL     1      -9.565   9.238  65.089  0.00  0.00    +0.038 A 
ENDROOT
BRANCH   4   7
ATOM      7  N   UNL     1     -11.041  10.130  68.326  0.00  0.00    -0.175 NA
ATOM      8  C   UNL     1     -10.516   9.659  69.548  0.00  0.00    +0.269 C 
ATOM      9  O   UNL     1      -9.317   9.974  69.802  0.00  0.00    -0.268 OA
BRANCH   8  10
ATOM     10  C   UNL     1     -11.203   8.679  70.399  0.00  0.00    +0.055 A 
ATOM     11  C   UNL     1     -11.090   7.341  70.055  0.00  0.00    +0.005 A 
ATOM     12  C   UNL     1     -11.165   6.330  71.004  0.00  0.00    +0.008 A 
ATOM     13  C   UNL     1     -10.923   6.656  72.332  0.00  0.00    +0.087 A 
ATOM     14  C   UNL     1     -11.234   7.949  72.714  0.00  0.00    +0.008 A 
ATOM     15  C   UNL     1     -11.215   8.956  71.757  0.00  0.00    +0.005 A 
BRANCH  13  16
ATOM     16  C   UNL     1     -10.296   5.701  73.230  0.00  0.00    +0.376 C 
ATOM     17  N   UNL     1      -8.900   5.449  73.055  0.00  0.00    -0.179 N 
ATOM     18  C   UNL     1      -8.071   6.576  72.636  0.00  0.00    +0.254 C 
ATOM     19  C   UNL     1      -8.460   4.129  72.615  0.00  0.00    +0.254 C 
ATOM     20  N   UNL     1     -10.980   4.741  73.773  0.00  0.00    +0.193 NA
ENDBRANCH  13  16
ENDBRANCH   8  10
ENDBRANCH   4   7
BRANCH   3  21
ATOM     21  C   UNL     1     -10.651  12.718  67.117  0.00  0.00    +0.272 C 
ATOM     22  N   UNL     1     -11.765  13.146  67.869  0.00  0.00    -0.157 NA
ATOM     23  O   UNL     1      -9.552  13.296  67.378  0.00  0.00    -0.268 OA
BRANCH  22  24
ATOM     24  C   UNL     1     -11.691  13.659  69.195  0.00  0.00    +0.155 A 
ATOM     25  N   UNL     1     -11.890  14.994  69.330  0.00  0.00    -0.226 NA
ATOM     26  C   UNL     1     -12.526  15.515  70.408  0.00  0.00    +0.112 A 
ATOM     27  C   UNL     1     -13.296  14.719  71.246  0.00  0.00    +0.077 A 
ATOM     28 CL   UNL     1     -14.875  15.240  71.824  0.00  0.00    -0.081 Cl
ATOM     29  C   UNL     1     -12.933  13.377  71.268  0.00  0.00    +0.016 A 
ATOM     30  C   UNL     1     -12.031  12.914  70.317  0.00  0.00    +0.037 A 
ENDBRANCH  22  24
ENDBRANCH   3  21
BRANCH   1  32
ATOM     31  C   UNL     1      -9.034   9.539  62.230  0.00  0.00    +0.252 C 
ATOM     32  O   UNL     1      -9.843  10.410  62.981  0.00  0.00    -0.471 OA
ENDBRANCH   1  32
TORSDOF 6
ENDMDL
