MODEL 1
REMARK VINA RESULT:      -7.2      0.000      0.000
REMARK  Name = 
REMARK  3 active torsions:
REMARK  status: ('A' for Active; 'I' for Inactive)
REMARK    1  A    between atoms: N_2  and  C_3
REMARK    2  A    between atoms: C_3  and  C_4
REMARK    3  A    between atoms: C_4  and  C_5
REMARK                            x       y       z     vdW  Elec       q    Type
REMARK                         _______ _______ _______ _____ _____    ______ ____
ROOT
ATOM      1  C   UNL     1     -12.036  10.920  70.847  0.00  0.00    -0.025 C 
ATOM      2  C   UNL     1     -12.024  12.018  70.111  0.00  0.00    -0.005 C 
ATOM      3  C   UNL     1     -11.444  11.918  68.771  0.00  0.00    -0.004 A 
ATOM      4  C   UNL     1     -10.955  12.991  68.042  0.00  0.00    -0.022 A 
ATOM      5  C   UNL     1     -10.382  12.661  66.818  0.00  0.00    -0.004 A 
ATOM      6  C   UNL     1     -10.112  11.341  66.479  0.00  0.00    -0.000 A 
ATOM      7  C   UNL     1     -10.935  10.390  67.059  0.00  0.00    -0.000 A 
ATOM      8  C   UNL     1     -11.363  14.428  68.102  0.00  0.00    +0.031 C 
ATOM      9  C   UNL     1     -11.126  15.028  69.464  0.00  0.00    +0.031 C 
ATOM     10  C   UNL     1     -12.112  14.529  70.473  0.00  0.00    -0.022 A 
ATOM     11  C   UNL     1     -12.857  15.560  71.033  0.00  0.00    -0.004 A 
ATOM     12  C   UNL     1     -14.004  15.261  71.724  0.00  0.00    -0.000 A 
ATOM     13  C   UNL     1     -14.085  14.008  72.313  0.00  0.00    -0.000 A 
ATOM     14  C   UNL     1     -13.328  12.939  71.849  0.00  0.00    -0.000 A 
ATOM     15  C   UNL     1     -11.398  10.621  68.347  0.00  0.00    -0.000 A 
ATOM     16  C   UNL     1     -12.431  13.229  70.834  0.00  0.00    -0.004 A 
ENDROOT
BRANCH   1  17
ATOM     17  C   UNL     1     -13.144  10.541  71.745  0.00  0.00    +0.045 C 
BRANCH  17  18
ATOM     18  C   UNL     1     -13.116   9.074  72.114  0.00  0.00    +0.093 C 
BRANCH  18  20
ATOM     19  C   UNL     1     -14.839   7.483  71.763  0.00  0.00    +0.107 C 
ATOM     20  N   UNL     1     -14.450   8.674  72.504  0.00  0.00    -0.216 NA
ENDBRANCH  18  20
ENDBRANCH  17  18
ENDBRANCH   1  17
TORSDOF 3
ENDMDL
MODEL 2
REMARK VINA RESULT:      -6.8      0.801      4.309
REMARK  Name = 
REMARK  3 active torsions:
REMARK  status: ('A' for Active; 'I' for Inactive)
REMARK    1  A    between atoms: N_2  and  C_3
REMARK    2  A    between atoms: C_3  and  C_4
REMARK    3  A    between atoms: C_4  and  C_5
REMARK                            x       y       z     vdW  Elec       q    Type
REMARK                         _______ _______ _______ _____ _____    ______ ____
ROOT
ATOM      1  C   UNL     1     -12.894  10.868  71.137  0.00  0.00    -0.025 C 
ATOM      2  C   UNL     1     -12.334  11.871  70.485  0.00  0.00    -0.005 C 
ATOM      3  C   UNL     1     -12.601  13.222  70.980  0.00  0.00    -0.004 A 
ATOM      4  C   UNL     1     -12.483  14.378  70.223  0.00  0.00    -0.022 A 
ATOM      5  C   UNL     1     -12.855  15.550  70.872  0.00  0.00    -0.004 A 
ATOM      6  C   UNL     1     -13.516  15.521  72.094  0.00  0.00    -0.000 A 
ATOM      7  C   UNL     1     -13.255  14.421  72.894  0.00  0.00    -0.000 A 
ATOM      8  C   UNL     1     -11.593  14.642  69.051  0.00  0.00    +0.031 C 
ATOM      9  C   UNL     1     -11.882  13.714  67.899  0.00  0.00    +0.031 C 
ATOM     10  C   UNL     1     -11.399  12.324  68.168  0.00  0.00    -0.022 A 
ATOM     11  C   UNL     1     -10.466  11.901  67.229  0.00  0.00    -0.004 A 
ATOM     12  C   UNL     1      -9.693  10.799  67.498  0.00  0.00    -0.000 A 
ATOM     13  C   UNL     1     -10.216   9.852  68.365  0.00  0.00    -0.000 A 
ATOM     14  C   UNL     1     -11.195  10.181  69.294  0.00  0.00    -0.000 A 
ATOM     15  C   UNL     1     -13.033  13.198  72.275  0.00  0.00    -0.000 A 
ATOM     16  C   UNL     1     -11.675  11.479  69.233  0.00  0.00    -0.004 A 
ENDROOT
BRANCH   1  17
ATOM     17  C   UNL     1     -12.232   9.570  71.380  0.00  0.00    +0.045 C 
BRANCH  17  18
ATOM     18  C   UNL     1     -12.849   8.810  72.534  0.00  0.00    +0.093 C 
BRANCH  18  20
ATOM     19  C   UNL     1     -14.814   7.715  71.785  0.00  0.00    +0.107 C 
ATOM     20  N   UNL     1     -14.287   8.909  72.429  0.00  0.00    -0.216 NA
ENDBRANCH  18  20
ENDBRANCH  17  18
ENDBRANCH   1  17
TORSDOF 3
ENDMDL
MODEL 3
REMARK VINA RESULT:      -6.8      3.094      5.434
REMARK  Name = 
REMARK  3 active torsions:
REMARK  status: ('A' for Active; 'I' for Inactive)
REMARK    1  A    between atoms: N_2  and  C_3
REMARK    2  A    between atoms: C_3  and  C_4
REMARK    3  A    between atoms: C_4  and  C_5
REMARK                            x       y       z     vdW  Elec       q    Type
REMARK                         _______ _______ _______ _____ _____    ______ ____
ROOT
ATOM      1  C   UNL     1     -11.548  15.288  68.615  0.00  0.00    -0.025 C 
ATOM      2  C   UNL     1     -11.673  14.283  69.465  0.00  0.00    -0.005 C 
ATOM      3  C   UNL     1     -11.430  12.937  68.946  0.00  0.00    -0.004 A 
ATOM      4  C   UNL     1     -11.913  11.771  69.521  0.00  0.00    -0.022 A 
ATOM      5  C   UNL     1     -11.622  10.603  68.824  0.00  0.00    -0.004 A 
ATOM      6  C   UNL     1     -11.101  10.642  67.536  0.00  0.00    -0.000 A 
ATOM      7  C   UNL     1     -10.343  11.759  67.226  0.00  0.00    -0.000 A 
ATOM      8  C   UNL     1     -12.244  11.502  70.954  0.00  0.00    +0.031 C 
ATOM      9  C   UNL     1     -13.337  12.406  71.463  0.00  0.00    +0.031 C 
ATOM     10  C   UNL     1     -12.853  13.809  71.661  0.00  0.00    -0.022 A 
ATOM     11  C   UNL     1     -12.993  14.231  72.978  0.00  0.00    -0.004 A 
ATOM     12  C   UNL     1     -12.319  15.349  73.400  0.00  0.00    -0.000 A 
ATOM     13  C   UNL     1     -12.004  16.302  72.443  0.00  0.00    -0.000 A 
ATOM     14  C   UNL     1     -11.904  15.972  71.097  0.00  0.00    -0.000 A 
ATOM     15  C   UNL     1     -10.707  12.974  67.788  0.00  0.00    -0.000 A 
ATOM     16  C   UNL     1     -12.227  14.666  70.769  0.00  0.00    -0.004 A 
ENDROOT
BRANCH   1  17
ATOM     17  C   UNL     1     -10.969  16.600  68.969  0.00  0.00    +0.045 C 
BRANCH  17  18
ATOM     18  C   UNL     1     -10.325  17.288  67.785  0.00  0.00    +0.093 C 
BRANCH  18  20
ATOM     19  C   UNL     1     -10.481  19.215  66.412  0.00  0.00    +0.107 C 
ATOM     20  N   UNL     1     -10.858  18.628  67.690  0.00  0.00    -0.216 NA
ENDBRANCH  18  20
ENDBRANCH  17  18
ENDBRANCH   1  17
TORSDOF 3
ENDMDL
MODEL 4
REMARK VINA RESULT:      -6.7      2.763      5.377
REMARK  Name = 
REMARK  3 active torsions:
REMARK  status: ('A' for Active; 'I' for Inactive)
REMARK    1  A    between atoms: N_2  and  C_3
REMARK    2  A    between atoms: C_3  and  C_4
REMARK    3  A    between atoms: C_4  and  C_5
REMARK                            x       y       z     vdW  Elec       q    Type
REMARK                         _______ _______ _______ _____ _____    ______ ____
ROOT
ATOM      1  C   UNL     1     -11.791  15.950  70.014  0.00  0.00    -0.025 C 
ATOM      2  C   UNL     1     -11.288  15.581  68.849  0.00  0.00    -0.005 C 
ATOM      3  C   UNL     1     -10.615  16.610  68.055  0.00  0.00    -0.004 A 
ATOM      4  C   UNL     1     -10.419  16.547  66.684  0.00  0.00    -0.022 A 
ATOM      5  C   UNL     1      -9.819  17.668  66.121  0.00  0.00    -0.004 A 
ATOM      6  C   UNL     1      -9.657  18.842  66.846  0.00  0.00    -0.000 A 
ATOM      7  C   UNL     1      -9.533  18.691  68.217  0.00  0.00    -0.000 A 
ATOM      8  C   UNL     1     -10.284  15.339  65.813  0.00  0.00    +0.031 C 
ATOM      9  C   UNL     1     -11.518  14.475  65.847  0.00  0.00    +0.031 C 
ATOM     10  C   UNL     1     -11.647  13.736  67.142  0.00  0.00    -0.022 A 
ATOM     11  C   UNL     1     -11.663  12.359  66.961  0.00  0.00    -0.004 A 
ATOM     12  C   UNL     1     -11.454  11.536  68.039  0.00  0.00    -0.000 A 
ATOM     13  C   UNL     1     -11.791  12.030  69.291  0.00  0.00    -0.000 A 
ATOM     14  C   UNL     1     -11.854  13.396  69.538  0.00  0.00    -0.000 A 
ATOM     15  C   UNL     1     -10.248  17.672  68.832  0.00  0.00    -0.000 A 
ATOM     16  C   UNL     1     -11.654  14.219  68.442  0.00  0.00    -0.004 A 
ENDROOT
BRANCH   1  17
ATOM     17  C   UNL     1     -11.762  15.109  71.228  0.00  0.00    +0.045 C 
BRANCH  17  18
ATOM     18  C   UNL     1     -12.503  15.738  72.387  0.00  0.00    +0.093 C 
BRANCH  18  20
ATOM     19  C   UNL     1     -14.385  14.335  72.049  0.00  0.00    +0.107 C 
ATOM     20  N   UNL     1     -13.918  15.714  72.093  0.00  0.00    -0.216 NA
ENDBRANCH  18  20
ENDBRANCH  17  18
ENDBRANCH   1  17
TORSDOF 3
ENDMDL
MODEL 5
REMARK VINA RESULT:      -6.7      1.796      4.868
REMARK  Name = 
REMARK  3 active torsions:
REMARK  status: ('A' for Active; 'I' for Inactive)
REMARK    1  A    between atoms: N_2  and  C_3
REMARK    2  A    between atoms: C_3  and  C_4
REMARK    3  A    between atoms: C_4  and  C_5
REMARK                            x       y       z     vdW  Elec       q    Type
REMARK                         _______ _______ _______ _____ _____    ______ ____
ROOT
ATOM      1  C   UNL     1     -12.503  13.395  71.182  0.00  0.00    -0.025 C 
ATOM      2  C   UNL     1     -12.084  12.515  70.288  0.00  0.00    -0.005 C 
ATOM      3  C   UNL     1     -12.170  11.101  70.652  0.00  0.00    -0.004 A 
ATOM      4  C   UNL     1     -11.415  10.091  70.076  0.00  0.00    -0.022 A 
ATOM      5  C   UNL     1     -11.606   8.826  70.621  0.00  0.00    -0.004 A 
ATOM      6  C   UNL     1     -12.313   8.648  71.804  0.00  0.00    -0.000 A 
ATOM      7  C   UNL     1     -13.288   9.595  72.071  0.00  0.00    -0.000 A 
ATOM      8  C   UNL     1     -10.832  10.028  68.700  0.00  0.00    +0.031 C 
ATOM      9  C   UNL     1      -9.844  11.138  68.452  0.00  0.00    +0.031 C 
ATOM     10  C   UNL     1     -10.523  12.462  68.287  0.00  0.00    -0.022 A 
ATOM     11  C   UNL     1     -10.260  13.036  67.050  0.00  0.00    -0.004 A 
ATOM     12  C   UNL     1     -11.042  14.074  66.611  0.00  0.00    -0.000 A 
ATOM     13  C   UNL     1     -11.655  14.862  67.574  0.00  0.00    -0.000 A 
ATOM     14  C   UNL     1     -11.899  14.381  68.855  0.00  0.00    -0.000 A 
ATOM     15  C   UNL     1     -13.055  10.905  71.674  0.00  0.00    -0.000 A 
ATOM     16  C   UNL     1     -11.413  13.113  69.128  0.00  0.00    -0.004 A 
ENDROOT
BRANCH   1  17
ATOM     17  C   UNL     1     -13.237  14.630  70.841  0.00  0.00    +0.045 C 
BRANCH  17  18
ATOM     18  C   UNL     1     -13.825  15.311  72.058  0.00  0.00    +0.093 C 
BRANCH  18  20
ATOM     19  C   UNL     1     -12.552  15.679  74.024  0.00  0.00    +0.107 C 
ATOM     20  N   UNL     1     -13.275  14.688  73.241  0.00  0.00    -0.216 NA
ENDBRANCH  18  20
ENDBRANCH  17  18
ENDBRANCH   1  17
TORSDOF 3
ENDMDL
MODEL 6
REMARK VINA RESULT:      -6.6      3.194      6.947
REMARK  Name = 
REMARK  3 active torsions:
REMARK  status: ('A' for Active; 'I' for Inactive)
REMARK    1  A    between atoms: N_2  and  C_3
REMARK    2  A    between atoms: C_3  and  C_4
REMARK    3  A    between atoms: C_4  and  C_5
REMARK                            x       y       z     vdW  Elec       q    Type
REMARK                         _______ _______ _______ _____ _____    ______ ____
ROOT
ATOM      1  C   UNL     1     -10.838  15.874  69.110  0.00  0.00    -0.025 C 
ATOM      2  C   UNL     1     -11.461  14.723  69.292  0.00  0.00    -0.005 C 
ATOM      3  C   UNL     1     -12.190  14.549  70.548  0.00  0.00    -0.004 A 
ATOM      4  C   UNL     1     -12.523  13.323  71.104  0.00  0.00    -0.022 A 
ATOM      5  C   UNL     1     -13.156  13.387  72.341  0.00  0.00    -0.004 A 
ATOM      6  C   UNL     1     -13.223  14.575  73.057  0.00  0.00    -0.000 A 
ATOM      7  C   UNL     1     -13.213  15.736  72.301  0.00  0.00    -0.000 A 
ATOM      8  C   UNL     1     -12.766  12.018  70.415  0.00  0.00    +0.031 C 
ATOM      9  C   UNL     1     -11.551  11.539  69.664  0.00  0.00    +0.031 C 
ATOM     10  C   UNL     1     -11.308  12.342  68.425  0.00  0.00    -0.022 A 
ATOM     11  C   UNL     1     -11.334  11.558  67.278  0.00  0.00    -0.004 A 
ATOM     12  C   UNL     1     -11.450  12.164  66.052  0.00  0.00    -0.000 A 
ATOM     13  C   UNL     1     -10.981  13.464  65.939  0.00  0.00    -0.000 A 
ATOM     14  C   UNL     1     -10.869  14.294  67.048  0.00  0.00    -0.000 A 
ATOM     15  C   UNL     1     -12.460  15.752  71.135  0.00  0.00    -0.000 A 
ATOM     16  C   UNL     1     -11.162  13.712  68.270  0.00  0.00    -0.004 A 
ENDROOT
BRANCH   1  17
ATOM     17  C   UNL     1     -10.761  16.574  67.812  0.00  0.00    +0.045 C 
BRANCH  17  18
ATOM     18  C   UNL     1     -10.065  17.914  67.916  0.00  0.00    +0.093 C 
BRANCH  18  20
ATOM     19  C   UNL     1     -10.444  19.560  66.252  0.00  0.00    +0.107 C 
ATOM     20  N   UNL     1     -10.975  18.939  67.457  0.00  0.00    -0.216 NA
ENDBRANCH  18  20
ENDBRANCH  17  18
ENDBRANCH   1  17
TORSDOF 3
ENDMDL
MODEL 7
REMARK VINA RESULT:      -6.4      2.860      6.543
REMARK  Name = 
REMARK  3 active torsions:
REMARK  status: ('A' for Active; 'I' for Inactive)
REMARK    1  A    between atoms: N_2  and  C_3
REMARK    2  A    between atoms: C_3  and  C_4
REMARK    3  A    between atoms: C_4  and  C_5
REMARK                            x       y       z     vdW  Elec       q    Type
REMARK                         _______ _______ _______ _____ _____    ______ ____
ROOT
ATOM      1  C   UNL     1     -10.840  14.653  68.706  0.00  0.00    -0.025 C 
ATOM      2  C   UNL     1     -11.436  13.563  69.159  0.00  0.00    -0.005 C 
ATOM      3  C   UNL     1     -12.323  13.718  70.313  0.00  0.00    -0.004 A 
ATOM      4  C   UNL     1     -12.680  12.694  71.176  0.00  0.00    -0.022 A 
ATOM      5  C   UNL     1     -13.479  13.076  72.249  0.00  0.00    -0.004 A 
ATOM      6  C   UNL     1     -13.690  14.416  72.550  0.00  0.00    -0.000 A 
ATOM      7  C   UNL     1     -13.622  15.292  71.480  0.00  0.00    -0.000 A 
ATOM      8  C   UNL     1     -12.776  11.227  70.900  0.00  0.00    +0.031 C 
ATOM      9  C   UNL     1     -11.451  10.642  70.483  0.00  0.00    +0.031 C 
ATOM     10  C   UNL     1     -11.072  11.052  69.094  0.00  0.00    -0.022 A 
ATOM     11  C   UNL     1     -10.911   9.960  68.251  0.00  0.00    -0.004 A 
ATOM     12  C   UNL     1     -10.882  10.158  66.893  0.00  0.00    -0.000 A 
ATOM     13  C   UNL     1     -10.454  11.397  66.439  0.00  0.00    -0.000 A 
ATOM     14  C   UNL     1     -10.526  12.527  67.244  0.00  0.00    -0.000 A 
ATOM     15  C   UNL     1     -12.718  15.017  70.464  0.00  0.00    -0.000 A 
ATOM     16  C   UNL     1     -10.961  12.319  68.542  0.00  0.00    -0.004 A 
ENDROOT
BRANCH   1  17
ATOM     17  C   UNL     1     -10.614  14.934  67.274  0.00  0.00    +0.045 C 
BRANCH  17  18
ATOM     18  C   UNL     1     -10.359  16.400  67.003  0.00  0.00    +0.093 C 
BRANCH  18  20
ATOM     19  C   UNL     1     -10.939  15.533  64.875  0.00  0.00    +0.107 C 
ATOM     20  N   UNL     1     -10.218  16.585  65.577  0.00  0.00    -0.216 NA
ENDBRANCH  18  20
ENDBRANCH  17  18
ENDBRANCH   1  17
TORSDOF 3
ENDMDL
MODEL 8
REMARK VINA RESULT:      -6.3      2.472      5.303
REMARK  Name = 
REMARK  3 active torsions:
REMARK  status: ('A' for Active; 'I' for Inactive)
REMARK    1  A    between atoms: N_2  and  C_3
REMARK    2  A    between atoms: C_3  and  C_4
REMARK    3  A    between atoms: C_4  and  C_5
REMARK                            x       y       z     vdW  Elec       q    Type
REMARK                         _______ _______ _______ _____ _____    ______ ____
ROOT
ATOM      1  C   UNL     1     -11.682  12.397  67.399  0.00  0.00    -0.025 C 
ATOM      2  C   UNL     1     -11.604  13.131  68.496  0.00  0.00    -0.005 C 
ATOM      3  C   UNL     1     -12.060  12.517  69.743  0.00  0.00    -0.004 A 
ATOM      4  C   UNL     1     -12.460  13.221  70.869  0.00  0.00    -0.022 A 
ATOM      5  C   UNL     1     -12.923  12.439  71.921  0.00  0.00    -0.004 A 
ATOM      6  C   UNL     1     -13.186  11.085  71.754  0.00  0.00    -0.000 A 
ATOM      7  C   UNL     1     -12.438  10.442  70.782  0.00  0.00    -0.000 A 
ATOM      8  C   UNL     1     -12.031  14.579  71.324  0.00  0.00    +0.031 C 
ATOM      9  C   UNL     1     -12.382  15.649  70.323  0.00  0.00    +0.031 C 
ATOM     10  C   UNL     1     -11.503  15.591  69.113  0.00  0.00    -0.022 A 
ATOM     11  C   UNL     1     -10.794  16.771  68.922  0.00  0.00    -0.004 A 
ATOM     12  C   UNL     1      -9.720  16.779  68.067  0.00  0.00    -0.000 A 
ATOM     13  C   UNL     1      -9.718  15.847  67.040  0.00  0.00    -0.000 A 
ATOM     14  C   UNL     1     -10.449  14.669  67.128  0.00  0.00    -0.000 A 
ATOM     15  C   UNL     1     -12.092  11.155  69.642  0.00  0.00    -0.000 A 
ATOM     16  C   UNL     1     -11.243  14.533  68.255  0.00  0.00    -0.004 A 
ENDROOT
BRANCH   1  17
ATOM     17  C   UNL     1     -10.668  12.410  66.325  0.00  0.00    +0.045 C 
BRANCH  17  18
ATOM     18  C   UNL     1     -11.250  12.061  64.973  0.00  0.00    +0.093 C 
BRANCH  18  20
ATOM     19  C   UNL     1     -12.298  14.012  64.128  0.00  0.00    +0.107 C 
ATOM     20  N   UNL     1     -12.511  12.752  64.825  0.00  0.00    -0.216 NA
ENDBRANCH  18  20
ENDBRANCH  17  18
ENDBRANCH   1  17
TORSDOF 3
ENDMDL
MODEL 9
REMARK VINA RESULT:      -6.3      3.089      5.316
REMARK  Name = 
REMARK  3 active torsions:
REMARK  status: ('A' for Active; 'I' for Inactive)
REMARK    1  A    between atoms: N_2  and  C_3
REMARK    2  A    between atoms: C_3  and  C_4
REMARK    3  A    between atoms: C_4  and  C_5
REMARK                            x       y       z     vdW  Elec       q    Type
REMARK                         _______ _______ _______ _____ _____    ______ ____
ROOT
ATOM      1  C   UNL     1     -11.673  13.329  66.610  0.00  0.00    -0.025 C 
ATOM      2  C   UNL     1     -11.463  12.692  67.748  0.00  0.00    -0.005 C 
ATOM      3  C   UNL     1     -11.006  11.305  67.663  0.00  0.00    -0.004 A 
ATOM      4  C   UNL     1     -11.144  10.365  68.673  0.00  0.00    -0.022 A 
ATOM      5  C   UNL     1     -10.702   9.086  68.354  0.00  0.00    -0.004 A 
ATOM      6  C   UNL     1     -10.377   8.738  67.049  0.00  0.00    -0.000 A 
ATOM      7  C   UNL     1      -9.927   9.772  66.244  0.00  0.00    -0.000 A 
ATOM      8  C   UNL     1     -11.215  10.583  70.151  0.00  0.00    +0.031 C 
ATOM      9  C   UNL     1     -12.401  11.427  70.542  0.00  0.00    +0.031 C 
ATOM     10  C   UNL     1     -12.211  12.863  70.168  0.00  0.00    -0.022 A 
ATOM     11  C   UNL     1     -12.264  13.705  71.273  0.00  0.00    -0.004 A 
ATOM     12  C   UNL     1     -11.798  14.991  71.161  0.00  0.00    -0.000 A 
ATOM     13  C   UNL     1     -11.827  15.571  69.902  0.00  0.00    -0.000 A 
ATOM     14  C   UNL     1     -11.836  14.798  68.748  0.00  0.00    -0.000 A 
ATOM     15  C   UNL     1     -10.468  11.035  66.437  0.00  0.00    -0.000 A 
ATOM     16  C   UNL     1     -11.909  13.428  68.938  0.00  0.00    -0.004 A 
ENDROOT
BRANCH   1  17
ATOM     17  C   UNL     1     -11.350  14.753  66.390  0.00  0.00    +0.045 C 
BRANCH  17  18
ATOM     18  C   UNL     1     -11.105  15.074  64.931  0.00  0.00    +0.093 C 
BRANCH  18  20
ATOM     19  C   UNL     1     -10.243  16.943  66.109  0.00  0.00    +0.107 C 
ATOM     20  N   UNL     1     -10.739  16.468  64.825  0.00  0.00    -0.216 NA
ENDBRANCH  18  20
ENDBRANCH  17  18
ENDBRANCH   1  17
TORSDOF 3
ENDMDL
