MODEL 1
REMARK VINA RESULT:      -5.5      0.000      0.000
REMARK  Name = 
REMARK  0 active torsions:
REMARK  status: ('A' for Active; 'I' for Inactive)
REMARK                            x       y       z     vdW  Elec       q    Type
REMARK                         _______ _______ _______ _____ _____    ______ ____
ROOT
ATOM      1  C   UNL     1     -10.294  17.538  67.376  0.00  0.00    +0.137 C 
ATOM      2  N   UNL     1     -10.685  16.142  67.227  0.00  0.00    -0.263 N 
ATOM      3  C   UNL     1     -10.786  15.598  65.990  0.00  0.00    +0.335 A 
ATOM      4  O   UNL     1     -10.599  16.343  64.986  0.00  0.00    -0.246 OA
ATOM      5  N   UNL     1     -11.490  14.452  65.824  0.00  0.00    -0.245 N 
ATOM      6  C   UNL     1     -12.186  14.134  64.585  0.00  0.00    +0.138 C 
ATOM      7  C   UNL     1     -11.528  13.638  66.907  0.00  0.00    +0.285 A 
ATOM      8  O   UNL     1     -12.141  12.543  66.733  0.00  0.00    -0.265 OA
ATOM      9  C   UNL     1     -11.643  14.211  68.167  0.00  0.00    +0.174 A 
ATOM     10  N   UNL     1     -12.109  13.811  69.367  0.00  0.00    -0.213 NA
ATOM     11  C   UNL     1     -12.349  14.927  70.096  0.00  0.00    +0.200 A 
ATOM     12 BR   UNL     1     -13.691  15.193  71.433  0.00  0.00    -0.006 Br
ATOM     13  N   UNL     1     -11.531  15.861  69.556  0.00  0.00    -0.202 NA
ATOM     14  C   UNL     1     -11.170  15.505  68.306  0.00  0.00    +0.172 A 
ENDROOT
TORSDOF 0
ENDMDL
MODEL 2
REMARK VINA RESULT:      -5.4      3.301      5.438
REMARK  Name = 
REMARK  0 active torsions:
REMARK  status: ('A' for Active; 'I' for Inactive)
REMARK                            x       y       z     vdW  Elec       q    Type
REMARK                         _______ _______ _______ _____ _____    ______ ____
ROOT
ATOM      1  C   UNL     1     -12.489  10.824  70.814  0.00  0.00    +0.137 C 
ATOM      2  N   UNL     1     -12.329  12.251  70.561  0.00  0.00    -0.263 N 
ATOM      3  C   UNL     1     -12.855  13.152  71.424  0.00  0.00    +0.335 A 
ATOM      4  O   UNL     1     -13.534  12.727  72.402  0.00  0.00    -0.246 OA
ATOM      5  N   UNL     1     -13.036  14.433  71.018  0.00  0.00    -0.245 N 
ATOM      6  C   UNL     1     -14.099  15.278  71.545  0.00  0.00    +0.138 C 
ATOM      7  C   UNL     1     -12.177  14.860  70.061  0.00  0.00    +0.285 A 
ATOM      8  O   UNL     1     -12.313  16.073  69.722  0.00  0.00    -0.265 OA
ATOM      9  C   UNL     1     -11.813  13.978  69.051  0.00  0.00    +0.174 A 
ATOM     10  N   UNL     1     -11.372  14.098  67.784  0.00  0.00    -0.213 NA
ATOM     11  C   UNL     1     -11.593  12.910  67.170  0.00  0.00    +0.200 A 
ATOM     12 BR   UNL     1     -11.997  12.596  65.326  0.00  0.00    -0.006 Br
ATOM     13  N   UNL     1     -11.621  12.011  68.181  0.00  0.00    -0.202 NA
ATOM     14  C   UNL     1     -11.877  12.629  69.353  0.00  0.00    +0.172 A 
ENDROOT
TORSDOF 0
ENDMDL
MODEL 3
REMARK VINA RESULT:      -5.3      2.140      3.533
REMARK  Name = 
REMARK  0 active torsions:
REMARK  status: ('A' for Active; 'I' for Inactive)
REMARK                            x       y       z     vdW  Elec       q    Type
REMARK                         _______ _______ _______ _____ _____    ______ ____
ROOT
ATOM      1  C   UNL     1     -11.711  11.737  69.513  0.00  0.00    +0.137 C 
ATOM      2  N   UNL     1     -11.708  13.161  69.201  0.00  0.00    -0.263 N 
ATOM      3  C   UNL     1     -10.981  13.620  68.155  0.00  0.00    +0.335 A 
ATOM      4  O   UNL     1     -10.265  12.801  67.511  0.00  0.00    -0.246 OA
ATOM      5  N   UNL     1     -10.676  14.940  68.086  0.00  0.00    -0.245 N 
ATOM      6  C   UNL     1      -9.462  15.430  67.448  0.00  0.00    +0.138 C 
ATOM      7  C   UNL     1     -11.567  15.767  68.684  0.00  0.00    +0.285 A 
ATOM      8  O   UNL     1     -11.309  17.003  68.572  0.00  0.00    -0.265 OA
ATOM      9  C   UNL     1     -12.148  15.368  69.881  0.00  0.00    +0.174 A 
ATOM     10  N   UNL     1     -12.699  15.996  70.938  0.00  0.00    -0.213 NA
ATOM     11  C   UNL     1     -12.701  15.117  71.969  0.00  0.00    +0.200 A 
ATOM     12 BR   UNL     1     -12.537  15.494  73.838  0.00  0.00    -0.006 Br
ATOM     13  N   UNL     1     -12.686  13.902  71.373  0.00  0.00    -0.202 NA
ATOM     14  C   UNL     1     -12.230  14.005  70.107  0.00  0.00    +0.172 A 
ENDROOT
TORSDOF 0
ENDMDL
MODEL 4
REMARK VINA RESULT:      -5.3      3.463      4.935
REMARK  Name = 
REMARK  0 active torsions:
REMARK  status: ('A' for Active; 'I' for Inactive)
REMARK                            x       y       z     vdW  Elec       q    Type
REMARK                         _______ _______ _______ _____ _____    ______ ____
ROOT
ATOM      1  C   UNL     1     -11.045  14.271  68.188  0.00  0.00    +0.137 C 
ATOM      2  N   UNL     1     -11.849  14.145  69.397  0.00  0.00    -0.263 N 
ATOM      3  C   UNL     1     -12.125  15.243  70.141  0.00  0.00    +0.335 A 
ATOM      4  O   UNL     1     -11.617  16.349  69.797  0.00  0.00    -0.246 OA
ATOM      5  N   UNL     1     -12.537  15.091  71.424  0.00  0.00    -0.245 N 
ATOM      6  C   UNL     1     -12.258  16.078  72.458  0.00  0.00    +0.138 C 
ATOM      7  C   UNL     1     -13.197  13.936  71.682  0.00  0.00    +0.285 A 
ATOM      8  O   UNL     1     -13.627  13.819  72.868  0.00  0.00    -0.265 OA
ATOM      9  C   UNL     1     -12.761  12.767  71.070  0.00  0.00    +0.174 A 
ATOM     10  N   UNL     1     -12.839  11.451  71.347  0.00  0.00    -0.213 NA
ATOM     11  C   UNL     1     -11.876  10.832  70.622  0.00  0.00    +0.200 A 
ATOM     12 BR   UNL     1     -10.888   9.258  71.077  0.00  0.00    -0.006 Br
ATOM     13  N   UNL     1     -11.657  11.665  69.577  0.00  0.00    -0.202 NA
ATOM     14  C   UNL     1     -12.087  12.910  69.869  0.00  0.00    +0.172 A 
ENDROOT
TORSDOF 0
ENDMDL
MODEL 5
REMARK VINA RESULT:      -5.2      2.941      4.178
REMARK  Name = 
REMARK  0 active torsions:
REMARK  status: ('A' for Active; 'I' for Inactive)
REMARK                            x       y       z     vdW  Elec       q    Type
REMARK                         _______ _______ _______ _____ _____    ______ ____
ROOT
ATOM      1  C   UNL     1     -10.415  13.708  68.383  0.00  0.00    +0.137 C 
ATOM      2  N   UNL     1     -10.816  14.481  67.215  0.00  0.00    -0.263 N 
ATOM      3  C   UNL     1     -11.692  13.954  66.326  0.00  0.00    +0.335 A 
ATOM      4  O   UNL     1     -12.091  12.768  66.502  0.00  0.00    -0.246 OA
ATOM      5  N   UNL     1     -11.780  14.489  65.083  0.00  0.00    -0.245 N 
ATOM      6  C   UNL     1     -12.148  13.700  63.916  0.00  0.00    +0.138 C 
ATOM      7  C   UNL     1     -11.467  15.806  65.000  0.00  0.00    +0.285 A 
ATOM      8  O   UNL     1     -11.602  16.316  63.849  0.00  0.00    -0.265 OA
ATOM      9  C   UNL     1     -10.415  16.290  65.767  0.00  0.00    +0.174 A 
ATOM     10  N   UNL     1      -9.563  17.331  65.682  0.00  0.00    -0.213 NA
ATOM     11  C   UNL     1      -8.503  17.046  66.476  0.00  0.00    +0.200 A 
ATOM     12 BR   UNL     1      -6.679  17.573  66.237  0.00  0.00    -0.006 Br
ATOM     13  N   UNL     1      -8.993  16.174  67.388  0.00  0.00    -0.202 NA
ATOM     14  C   UNL     1     -10.120  15.593  66.927  0.00  0.00    +0.172 A 
ENDROOT
TORSDOF 0
ENDMDL
MODEL 6
REMARK VINA RESULT:      -5.1      2.860      4.438
REMARK  Name = 
REMARK  0 active torsions:
REMARK  status: ('A' for Active; 'I' for Inactive)
REMARK                            x       y       z     vdW  Elec       q    Type
REMARK                         _______ _______ _______ _____ _____    ______ ____
ROOT
ATOM      1  C   UNL     1     -12.065  14.112  69.167  0.00  0.00    +0.137 C 
ATOM      2  N   UNL     1     -11.197  14.819  68.232  0.00  0.00    -0.263 N 
ATOM      3  C   UNL     1     -10.851  16.105  68.475  0.00  0.00    +0.335 A 
ATOM      4  O   UNL     1     -11.348  16.685  69.483  0.00  0.00    -0.246 OA
ATOM      5  N   UNL     1     -10.372  16.867  67.461  0.00  0.00    -0.245 N 
ATOM      6  C   UNL     1     -10.566  18.310  67.407  0.00  0.00    +0.138 C 
ATOM      7  C   UNL     1      -9.729  16.185  66.483  0.00  0.00    +0.285 A 
ATOM      8  O   UNL     1      -9.236  16.904  65.564  0.00  0.00    -0.265 OA
ATOM      9  C   UNL     1     -10.230  14.949  66.093  0.00  0.00    +0.174 A 
ATOM     10  N   UNL     1     -10.172  14.197  64.976  0.00  0.00    -0.213 NA
ATOM     11  C   UNL     1     -11.190  13.306  65.041  0.00  0.00    +0.200 A 
ATOM     12 BR   UNL     1     -12.192  12.557  63.593  0.00  0.00    -0.006 Br
ATOM     13  N   UNL     1     -11.445  13.184  66.364  0.00  0.00    -0.202 NA
ATOM     14  C   UNL     1     -10.966  14.252  67.036  0.00  0.00    +0.172 A 
ENDROOT
TORSDOF 0
ENDMDL
MODEL 7
REMARK VINA RESULT:      -5.1      2.679      2.753
REMARK  Name = 
REMARK  0 active torsions:
REMARK  status: ('A' for Active; 'I' for Inactive)
REMARK                            x       y       z     vdW  Elec       q    Type
REMARK                         _______ _______ _______ _____ _____    ______ ____
ROOT
ATOM      1  C   UNL     1      -8.533  14.489  67.226  0.00  0.00    +0.137 C 
ATOM      2  N   UNL     1      -9.670  13.879  66.550  0.00  0.00    -0.263 N 
ATOM      3  C   UNL     1     -10.221  14.488  65.473  0.00  0.00    +0.335 A 
ATOM      4  O   UNL     1      -9.770  15.615  65.120  0.00  0.00    -0.246 OA
ATOM      5  N   UNL     1     -11.470  14.138  65.078  0.00  0.00    -0.245 N 
ATOM      6  C   UNL     1     -12.373  15.073  64.420  0.00  0.00    +0.138 C 
ATOM      7  C   UNL     1     -11.831  12.865  65.372  0.00  0.00    +0.285 A 
ATOM      8  O   UNL     1     -12.978  12.525  64.956  0.00  0.00    -0.265 OA
ATOM      9  C   UNL     1     -11.435  12.325  66.589  0.00  0.00    +0.174 A 
ATOM     10  N   UNL     1     -11.889  11.350  67.401  0.00  0.00    -0.213 NA
ATOM     11  C   UNL     1     -11.349  11.565  68.625  0.00  0.00    +0.200 A 
ATOM     12 BR   UNL     1     -12.112  11.168  70.334  0.00  0.00    -0.006 Br
ATOM     13  N   UNL     1     -10.220  12.268  68.374  0.00  0.00    -0.202 NA
ATOM     14  C   UNL     1     -10.291  12.856  67.161  0.00  0.00    +0.172 A 
ENDROOT
TORSDOF 0
ENDMDL
MODEL 8
REMARK VINA RESULT:      -5.1      2.223      3.272
REMARK  Name = 
REMARK  0 active torsions:
REMARK  status: ('A' for Active; 'I' for Inactive)
REMARK                            x       y       z     vdW  Elec       q    Type
REMARK                         _______ _______ _______ _____ _____    ______ ____
ROOT
ATOM      1  C   UNL     1     -10.529  14.327  64.925  0.00  0.00    +0.137 C 
ATOM      2  N   UNL     1     -10.871  14.967  66.189  0.00  0.00    -0.263 N 
ATOM      3  C   UNL     1     -10.426  16.219  66.453  0.00  0.00    +0.335 A 
ATOM      4  O   UNL     1      -9.664  16.779  65.614  0.00  0.00    -0.246 OA
ATOM      5  N   UNL     1     -10.418  16.665  67.734  0.00  0.00    -0.245 N 
ATOM      6  C   UNL     1      -9.447  17.636  68.218  0.00  0.00    +0.138 C 
ATOM      7  C   UNL     1     -11.359  16.116  68.540  0.00  0.00    +0.285 A 
ATOM      8  O   UNL     1     -11.384  16.573  69.721  0.00  0.00    -0.265 OA
ATOM      9  C   UNL     1     -11.651  14.765  68.399  0.00  0.00    +0.174 A 
ATOM     10  N   UNL     1     -12.151  13.801  69.196  0.00  0.00    -0.213 NA
ATOM     11  C   UNL     1     -11.810  12.610  68.647  0.00  0.00    +0.200 A 
ATOM     12 BR   UNL     1     -11.442  10.962  69.545  0.00  0.00    -0.006 Br
ATOM     13  N   UNL     1     -11.635  12.886  67.334  0.00  0.00    -0.202 NA
ATOM     14  C   UNL     1     -11.411  14.205  67.155  0.00  0.00    +0.172 A 
ENDROOT
TORSDOF 0
ENDMDL
MODEL 9
REMARK VINA RESULT:      -5.1      2.674      4.088
REMARK  Name = 
REMARK  0 active torsions:
REMARK  status: ('A' for Active; 'I' for Inactive)
REMARK                            x       y       z     vdW  Elec       q    Type
REMARK                         _______ _______ _______ _____ _____    ______ ____
ROOT
ATOM      1  C   UNL     1     -12.063  14.437  64.284  0.00  0.00    +0.137 C 
ATOM      2  N   UNL     1     -11.302  14.468  65.526  0.00  0.00    -0.263 N 
ATOM      3  C   UNL     1     -11.472  13.488  66.446  0.00  0.00    +0.335 A 
ATOM      4  O   UNL     1     -12.343  12.599  66.227  0.00  0.00    -0.246 OA
ATOM      5  N   UNL     1     -11.068  13.698  67.723  0.00  0.00    -0.245 N 
ATOM      6  C   UNL     1     -11.720  13.069  68.863  0.00  0.00    +0.138 C 
ATOM      7  C   UNL     1     -10.034  14.563  67.864  0.00  0.00    +0.285 A 
ATOM      8  O   UNL     1      -9.623  14.717  69.053  0.00  0.00    -0.265 OA
ATOM      9  C   UNL     1      -9.991  15.688  67.050  0.00  0.00    +0.174 A 
ATOM     10  N   UNL     1      -9.439  16.915  67.134  0.00  0.00    -0.213 NA
ATOM     11  C   UNL     1     -10.085  17.705  66.244  0.00  0.00    +0.200 A 
ATOM     12 BR   UNL     1     -10.432  19.583  66.372  0.00  0.00    -0.006 Br
ATOM     13  N   UNL     1     -10.568  16.843  65.319  0.00  0.00    -0.202 NA
ATOM     14  C   UNL     1     -10.637  15.595  65.829  0.00  0.00    +0.172 A 
ENDROOT
TORSDOF 0
ENDMDL
