MODEL 1
REMARK VINA RESULT:      -7.4      0.000      0.000
REMARK  Name = 
REMARK  7 active torsions:
REMARK  status: ('A' for Active; 'I' for Inactive)
REMARK    1  A    between atoms: C_4  and  C_6
REMARK    2  A    between atoms: C_6  and  C_7
REMARK    3  A    between atoms: C_6  and  C_23
REMARK    4  A    between atoms: C_6  and  C_29
REMARK    5  A    between atoms: C_7  and  C_8
REMARK    6  A    between atoms: C_8  and  N_9
REMARK    7  A    between atoms: C_12  and  C_14
REMARK                            x       y       z     vdW  Elec       q    Type
REMARK                         _______ _______ _______ _____ _____    ______ ____
ROOT
ATOM      1  C   UNL     1     -10.281  13.361  67.159  0.00  0.00    +0.108 C 
ENDROOT
BRANCH   1   2
ATOM      2  C   UNL     1     -10.866  12.289  67.996  0.00  0.00    -0.011 A 
ATOM      3  C   UNL     1     -11.291  12.542  69.278  0.00  0.00    -0.004 A 
ATOM      4  C   UNL     1     -11.936  11.562  70.002  0.00  0.00    -0.000 A 
ATOM      5  C   UNL     1     -11.575  10.246  69.763  0.00  0.00    -0.000 A 
ATOM      6  C   UNL     1     -11.197   9.941  68.465  0.00  0.00    -0.000 A 
ATOM      7  C   UNL     1     -10.836  10.965  67.602  0.00  0.00    -0.004 A 
ENDBRANCH   1   2
BRANCH   1   8
ATOM      8  C   UNL     1     -10.884  13.307  65.789  0.00  0.00    -0.011 A 
ATOM      9  C   UNL     1     -12.221  12.933  65.722  0.00  0.00    -0.004 A 
ATOM     10  C   UNL     1     -12.796  12.621  64.497  0.00  0.00    -0.000 A 
ATOM     11  C   UNL     1     -11.972  11.942  63.609  0.00  0.00    -0.000 A 
ATOM     12  C   UNL     1     -10.597  12.112  63.704  0.00  0.00    -0.000 A 
ATOM     13  C   UNL     1     -10.125  12.986  64.670  0.00  0.00    -0.004 A 
ENDBRANCH   1   8
BRANCH   1  16
ATOM     14  C   UNL     1      -7.400  11.288  66.471  0.00  0.00    +0.115 C 
ATOM     15  N   UNL     1      -8.128  12.033  67.494  0.00  0.00    -0.276 N 
ATOM     16  C   UNL     1      -8.811  13.211  67.057  0.00  0.00    +0.232 C 
ATOM     17  O   UNL     1      -8.124  14.268  66.961  0.00  0.00    -0.274 OA
ATOM     18  C   UNL     1      -7.485  12.111  68.797  0.00  0.00    +0.115 C 
ENDBRANCH   1  16
BRANCH   1  19
ATOM     19  C   UNL     1     -10.609  14.725  67.720  0.00  0.00    +0.034 C 
BRANCH  19  20
ATOM     20  C   UNL     1     -10.866  15.752  66.655  0.00  0.00    +0.073 C 
BRANCH  20  21
ATOM     21  N   UNL     1     -10.353  17.057  66.971  0.00  0.00    -0.272 NA
ATOM     22  C   UNL     1      -9.920  17.192  68.343  0.00  0.00    +0.075 C 
ATOM     23  C   UNL     1      -9.785  18.649  68.644  0.00  0.00    +0.052 C 
ATOM     24  C   UNL     1      -9.041  19.447  67.630  0.00  0.00    +0.148 C 
ATOM     25  O   UNL     1      -9.678  20.697  67.555  0.00  0.00    -0.221 OA
ATOM     26  C   UNL     1      -9.035  18.888  66.246  0.00  0.00    +0.052 C 
ATOM     27  C   UNL     1      -9.182  17.400  66.165  0.00  0.00    +0.075 C 
BRANCH  24  28
ATOM     28  C   UNL     1      -7.635  19.734  68.010  0.00  0.00    +0.005 A 
ATOM     29  C   UNL     1      -7.123  18.988  69.064  0.00  0.00    -0.001 A 
ATOM     30  C   UNL     1      -5.971  19.360  69.714  0.00  0.00    +0.011 A 
ATOM     31  C   UNL     1      -5.474  20.623  69.429  0.00  0.00    +0.058 A 
ATOM     32 CL   UNL     1      -4.465  21.463  70.585  0.00  0.00    -0.082 Cl
ATOM     33  C   UNL     1      -5.766  21.159  68.182  0.00  0.00    +0.011 A 
ATOM     34  C   UNL     1      -6.875  20.731  67.462  0.00  0.00    -0.001 A 
ENDBRANCH  24  28
ENDBRANCH  20  21
ENDBRANCH  19  20
ENDBRANCH   1  19
TORSDOF 7
ENDMDL
MODEL 2
REMARK VINA RESULT:      -7.4      3.112      7.968
REMARK  Name = 
REMARK  7 active torsions:
REMARK  status: ('A' for Active; 'I' for Inactive)
REMARK    1  A    between atoms: C_4  and  C_6
REMARK    2  A    between atoms: C_6  and  C_7
REMARK    3  A    between atoms: C_6  and  C_23
REMARK    4  A    between atoms: C_6  and  C_29
REMARK    5  A    between atoms: C_7  and  C_8
REMARK    6  A    between atoms: C_8  and  N_9
REMARK    7  A    between atoms: C_12  and  C_14
REMARK                            x       y       z     vdW  Elec       q    Type
REMARK                         _______ _______ _______ _____ _____    ______ ____
ROOT
ATOM      1  C   UNL     1      -6.466  18.847  67.239  0.00  0.00    +0.108 C 
ENDROOT
BRANCH   1   2
ATOM      2  C   UNL     1      -7.871  19.279  67.422  0.00  0.00    -0.011 A 
ATOM      3  C   UNL     1      -8.547  19.017  68.590  0.00  0.00    -0.004 A 
ATOM      4  C   UNL     1      -9.814  19.524  68.786  0.00  0.00    -0.000 A 
ATOM      5  C   UNL     1     -10.624  19.678  67.672  0.00  0.00    -0.000 A 
ATOM      6  C   UNL     1      -9.980  20.000  66.488  0.00  0.00    -0.000 A 
ATOM      7  C   UNL     1      -8.614  19.786  66.374  0.00  0.00    -0.004 A 
ENDBRANCH   1   2
BRANCH   1   8
ATOM      8  C   UNL     1      -5.692  19.132  68.489  0.00  0.00    -0.011 A 
ATOM      9  C   UNL     1      -5.421  18.041  69.305  0.00  0.00    -0.004 A 
ATOM     10  C   UNL     1      -4.929  18.236  70.589  0.00  0.00    -0.000 A 
ATOM     11  C   UNL     1      -5.446  19.335  71.263  0.00  0.00    -0.000 A 
ATOM     12  C   UNL     1      -5.909  20.418  70.528  0.00  0.00    -0.000 A 
ATOM     13  C   UNL     1      -5.795  20.351  69.149  0.00  0.00    -0.004 A 
ENDBRANCH   1   8
BRANCH   1  16
ATOM     14  C   UNL     1      -5.301  18.820  63.816  0.00  0.00    +0.115 C 
ATOM     15  N   UNL     1      -4.908  18.916  65.219  0.00  0.00    -0.276 N 
ATOM     16  C   UNL     1      -5.839  19.553  66.098  0.00  0.00    +0.232 C 
ATOM     17  O   UNL     1      -5.813  20.816  66.140  0.00  0.00    -0.274 OA
ATOM     18  C   UNL     1      -3.501  19.195  65.463  0.00  0.00    +0.115 C 
ENDBRANCH   1  16
BRANCH   1  19
ATOM     19  C   UNL     1      -6.384  17.355  67.012  0.00  0.00    +0.034 C 
BRANCH  19  20
ATOM     20  C   UNL     1      -7.477  16.837  66.121  0.00  0.00    +0.073 C 
BRANCH  20  21
ATOM     21  N   UNL     1      -8.315  15.850  66.746  0.00  0.00    -0.272 NA
ATOM     22  C   UNL     1      -8.029  15.650  68.147  0.00  0.00    +0.075 C 
ATOM     23  C   UNL     1      -8.668  14.368  68.571  0.00  0.00    +0.052 C 
ATOM     24  C   UNL     1     -10.085  14.189  68.150  0.00  0.00    +0.148 C 
ATOM     25  O   UNL     1     -10.243  12.827  67.838  0.00  0.00    -0.221 OA
ATOM     26  C   UNL     1     -10.500  14.954  66.938  0.00  0.00    +0.052 C 
ATOM     27  C   UNL     1      -9.730  16.215  66.692  0.00  0.00    +0.075 C 
BRANCH  24  28
ATOM     28  C   UNL     1     -11.069  14.471  69.225  0.00  0.00    +0.005 A 
ATOM     29  C   UNL     1     -11.017  15.744  69.780  0.00  0.00    -0.001 A 
ATOM     30  C   UNL     1     -11.639  16.033  70.971  0.00  0.00    +0.011 A 
ATOM     31  C   UNL     1     -12.119  14.957  71.702  0.00  0.00    +0.058 A 
ATOM     32 CL   UNL     1     -12.324  15.080  73.435  0.00  0.00    -0.082 Cl
ATOM     33  C   UNL     1     -12.473  13.813  70.999  0.00  0.00    +0.011 A 
ATOM     34  C   UNL     1     -11.928  13.544  69.749  0.00  0.00    -0.001 A 
ENDBRANCH  24  28
ENDBRANCH  20  21
ENDBRANCH  19  20
ENDBRANCH   1  19
TORSDOF 7
ENDMDL
MODEL 3
REMARK VINA RESULT:      -7.4      3.404      8.342
REMARK  Name = 
REMARK  7 active torsions:
REMARK  status: ('A' for Active; 'I' for Inactive)
REMARK    1  A    between atoms: C_4  and  C_6
REMARK    2  A    between atoms: C_6  and  C_7
REMARK    3  A    between atoms: C_6  and  C_23
REMARK    4  A    between atoms: C_6  and  C_29
REMARK    5  A    between atoms: C_7  and  C_8
REMARK    6  A    between atoms: C_8  and  N_9
REMARK    7  A    between atoms: C_12  and  C_14
REMARK                            x       y       z     vdW  Elec       q    Type
REMARK                         _______ _______ _______ _____ _____    ______ ____
ROOT
ATOM      1  C   UNL     1      -6.439  18.414  67.296  0.00  0.00    +0.108 C 
ENDROOT
BRANCH   1   2
ATOM      2  C   UNL     1      -7.789  19.005  67.448  0.00  0.00    -0.011 A 
ATOM      3  C   UNL     1      -8.495  18.868  68.619  0.00  0.00    -0.004 A 
ATOM      4  C   UNL     1      -9.699  19.519  68.782  0.00  0.00    -0.000 A 
ATOM      5  C   UNL     1     -10.482  19.715  67.656  0.00  0.00    -0.000 A 
ATOM      6  C   UNL     1      -9.801  19.914  66.466  0.00  0.00    -0.000 A 
ATOM      7  C   UNL     1      -8.467  19.546  66.373  0.00  0.00    -0.004 A 
ENDBRANCH   1   2
BRANCH   1   8
ATOM      8  C   UNL     1      -5.488  19.103  68.225  0.00  0.00    -0.011 A 
ATOM      9  C   UNL     1      -4.798  18.287  69.113  0.00  0.00    -0.004 A 
ATOM     10  C   UNL     1      -4.084  18.849  70.164  0.00  0.00    -0.000 A 
ATOM     11  C   UNL     1      -4.672  19.961  70.754  0.00  0.00    -0.000 A 
ATOM     12  C   UNL     1      -5.524  20.752  69.996  0.00  0.00    -0.000 A 
ATOM     13  C   UNL     1      -5.713  20.401  68.669  0.00  0.00    -0.004 A 
ENDBRANCH   1   8
BRANCH   1  16
ATOM     14  C   UNL     1      -3.691  18.756  64.971  0.00  0.00    +0.115 C 
ATOM     15  N   UNL     1      -4.864  19.405  65.550  0.00  0.00    -0.276 N 
ATOM     16  C   UNL     1      -5.955  18.550  65.903  0.00  0.00    +0.232 C 
ATOM     17  O   UNL     1      -6.753  18.229  64.977  0.00  0.00    -0.274 OA
ATOM     18  C   UNL     1      -5.219  20.695  64.978  0.00  0.00    +0.115 C 
ENDBRANCH   1  16
BRANCH   1  19
ATOM     19  C   UNL     1      -6.441  16.954  67.687  0.00  0.00    +0.034 C 
BRANCH  19  20
ATOM     20  C   UNL     1      -7.364  16.123  66.843  0.00  0.00    +0.073 C 
BRANCH  20  21
ATOM     21  N   UNL     1      -8.664  15.927  67.426  0.00  0.00    -0.272 NA
ATOM     22  C   UNL     1      -9.571  15.184  66.583  0.00  0.00    +0.075 C 
ATOM     23  C   UNL     1     -10.956  15.383  67.106  0.00  0.00    +0.052 C 
ATOM     24  C   UNL     1     -11.118  15.204  68.575  0.00  0.00    +0.148 C 
ATOM     25  O   UNL     1     -12.059  16.159  68.995  0.00  0.00    -0.221 OA
ATOM     26  C   UNL     1      -9.890  15.430  69.392  0.00  0.00    +0.052 C 
ATOM     27  C   UNL     1      -8.599  15.173  68.677  0.00  0.00    +0.075 C 
BRANCH  24  28
ATOM     28  C   UNL     1     -11.683  13.887  68.959  0.00  0.00    +0.005 A 
ATOM     29  C   UNL     1     -12.199  13.796  70.246  0.00  0.00    -0.001 A 
ATOM     30  C   UNL     1     -12.459  12.581  70.832  0.00  0.00    +0.011 A 
ATOM     31  C   UNL     1     -11.972  11.458  70.181  0.00  0.00    +0.058 A 
ATOM     32 CL   UNL     1     -11.650   9.985  71.068  0.00  0.00    -0.082 Cl
ATOM     33  C   UNL     1     -11.805  11.539  68.804  0.00  0.00    +0.011 A 
ATOM     34  C   UNL     1     -11.634  12.767  68.176  0.00  0.00    -0.001 A 
ENDBRANCH  24  28
ENDBRANCH  20  21
ENDBRANCH  19  20
ENDBRANCH   1  19
TORSDOF 7
ENDMDL
MODEL 4
REMARK VINA RESULT:      -7.3      3.432      8.203
REMARK  Name = 
REMARK  7 active torsions:
REMARK  status: ('A' for Active; 'I' for Inactive)
REMARK    1  A    between atoms: C_4  and  C_6
REMARK    2  A    between atoms: C_6  and  C_7
REMARK    3  A    between atoms: C_6  and  C_23
REMARK    4  A    between atoms: C_6  and  C_29
REMARK    5  A    between atoms: C_7  and  C_8
REMARK    6  A    between atoms: C_8  and  N_9
REMARK    7  A    between atoms: C_12  and  C_14
REMARK                            x       y       z     vdW  Elec       q    Type
REMARK                         _______ _______ _______ _____ _____    ______ ____
ROOT
ATOM      1  C   UNL     1      -6.443  19.040  67.441  0.00  0.00    +0.108 C 
ENDROOT
BRANCH   1   2
ATOM      2  C   UNL     1      -5.900  18.885  66.072  0.00  0.00    -0.011 A 
ATOM      3  C   UNL     1      -4.766  18.145  65.839  0.00  0.00    -0.004 A 
ATOM      4  C   UNL     1      -4.340  17.919  64.547  0.00  0.00    -0.000 A 
ATOM      5  C   UNL     1      -4.590  18.903  63.606  0.00  0.00    -0.000 A 
ATOM      6  C   UNL     1      -5.757  19.631  63.777  0.00  0.00    -0.000 A 
ATOM      7  C   UNL     1      -6.391  19.622  65.012  0.00  0.00    -0.004 A 
ENDBRANCH   1   2
BRANCH   1   8
ATOM      8  C   UNL     1      -7.836  19.584  67.364  0.00  0.00    -0.011 A 
ATOM      9  C   UNL     1      -8.599  19.487  68.522  0.00  0.00    -0.004 A 
ATOM     10  C   UNL     1      -9.964  19.738  68.480  0.00  0.00    -0.000 A 
ATOM     11  C   UNL     1     -10.614  19.299  67.333  0.00  0.00    -0.000 A 
ATOM     12  C   UNL     1      -9.894  19.193  66.151  0.00  0.00    -0.000 A 
ATOM     13  C   UNL     1      -8.561  19.569  66.178  0.00  0.00    -0.004 A 
ENDBRANCH   1   8
BRANCH   1  16
ATOM     14  C   UNL     1      -3.622  19.547  69.645  0.00  0.00    +0.115 C 
ATOM     15  N   UNL     1      -5.077  19.588  69.525  0.00  0.00    -0.276 N 
ATOM     16  C   UNL     1      -5.600  19.954  68.246  0.00  0.00    +0.232 C 
ATOM     17  O   UNL     1      -5.676  21.190  67.991  0.00  0.00    -0.274 OA
ATOM     18  C   UNL     1      -5.791  20.105  70.683  0.00  0.00    +0.115 C 
ENDBRANCH   1  16
BRANCH   1  19
ATOM     19  C   UNL     1      -6.542  17.703  68.138  0.00  0.00    +0.034 C 
BRANCH  19  20
ATOM     20  C   UNL     1      -7.196  16.648  67.293  0.00  0.00    +0.073 C 
BRANCH  20  21
ATOM     21  N   UNL     1      -8.544  16.342  67.689  0.00  0.00    -0.272 NA
ATOM     22  C   UNL     1      -9.268  15.554  66.719  0.00  0.00    +0.075 C 
ATOM     23  C   UNL     1     -10.723  15.637  67.049  0.00  0.00    +0.052 C 
ATOM     24  C   UNL     1     -11.068  15.411  68.480  0.00  0.00    +0.148 C 
ATOM     25  O   UNL     1     -12.129  16.283  68.781  0.00  0.00    -0.221 OA
ATOM     26  C   UNL     1      -9.984  15.707  69.461  0.00  0.00    +0.052 C 
ATOM     27  C   UNL     1      -8.592  15.564  68.927  0.00  0.00    +0.075 C 
BRANCH  24  28
ATOM     28  C   UNL     1     -11.578  14.046  68.764  0.00  0.00    +0.005 A 
ATOM     29  C   UNL     1     -12.027  13.820  70.059  0.00  0.00    -0.001 A 
ATOM     30  C   UNL     1     -12.223  12.548  70.539  0.00  0.00    +0.011 A 
ATOM     31  C   UNL     1     -11.739  11.506  69.763  0.00  0.00    +0.058 A 
ATOM     32 CL   UNL     1     -11.333   9.968  70.492  0.00  0.00    -0.082 Cl
ATOM     33  C   UNL     1     -11.643  11.720  68.394  0.00  0.00    +0.011 A 
ATOM     34  C   UNL     1     -11.537  13.006  67.877  0.00  0.00    -0.001 A 
ENDBRANCH  24  28
ENDBRANCH  20  21
ENDBRANCH  19  20
ENDBRANCH   1  19
TORSDOF 7
ENDMDL
MODEL 5
REMARK VINA RESULT:      -7.3      1.618      2.459
REMARK  Name = 
REMARK  7 active torsions:
REMARK  status: ('A' for Active; 'I' for Inactive)
REMARK    1  A    between atoms: C_4  and  C_6
REMARK    2  A    between atoms: C_6  and  C_7
REMARK    3  A    between atoms: C_6  and  C_23
REMARK    4  A    between atoms: C_6  and  C_29
REMARK    5  A    between atoms: C_7  and  C_8
REMARK    6  A    between atoms: C_8  and  N_9
REMARK    7  A    between atoms: C_12  and  C_14
REMARK                            x       y       z     vdW  Elec       q    Type
REMARK                         _______ _______ _______ _____ _____    ______ ____
ROOT
ATOM      1  C   UNL     1      -9.800  13.370  67.378  0.00  0.00    +0.108 C 
ENDROOT
BRANCH   1   2
ATOM      2  C   UNL     1     -10.573  14.105  68.407  0.00  0.00    -0.011 A 
ATOM      3  C   UNL     1     -10.023  15.167  69.083  0.00  0.00    -0.004 A 
ATOM      4  C   UNL     1     -10.793  15.908  69.954  0.00  0.00    -0.000 A 
ATOM      5  C   UNL     1     -11.804  15.250  70.636  0.00  0.00    -0.000 A 
ATOM      6  C   UNL     1     -12.421  14.209  69.961  0.00  0.00    -0.000 A 
ATOM      7  C   UNL     1     -11.792  13.642  68.862  0.00  0.00    -0.004 A 
ENDBRANCH   1   2
BRANCH   1   8
ATOM      8  C   UNL     1     -10.746  12.661  66.459  0.00  0.00    -0.011 A 
ATOM      9  C   UNL     1     -10.176  12.031  65.359  0.00  0.00    -0.004 A 
ATOM     10  C   UNL     1     -10.983  11.560  64.331  0.00  0.00    -0.000 A 
ATOM     11  C   UNL     1     -12.081  12.355  64.025  0.00  0.00    -0.000 A 
ATOM     12  C   UNL     1     -12.624  13.162  65.016  0.00  0.00    -0.000 A 
ATOM     13  C   UNL     1     -12.052  13.099  66.277  0.00  0.00    -0.004 A 
ENDBRANCH   1   8
BRANCH   1  16
ATOM     14  C   UNL     1      -6.625  12.614  68.934  0.00  0.00    +0.115 C 
ATOM     15  N   UNL     1      -7.476  12.392  67.769  0.00  0.00    -0.276 N 
ATOM     16  C   UNL     1      -8.887  12.386  68.003  0.00  0.00    +0.232 C 
ATOM     17  O   UNL     1      -9.394  11.304  68.416  0.00  0.00    -0.274 OA
ATOM     18  C   UNL     1      -6.983  11.422  66.802  0.00  0.00    +0.115 C 
ENDBRANCH   1  16
BRANCH   1  19
ATOM     19  C   UNL     1      -9.000  14.324  66.521  0.00  0.00    +0.034 C 
BRANCH  19  20
ATOM     20  C   UNL     1      -9.832  15.434  65.945  0.00  0.00    +0.073 C 
BRANCH  20  21
ATOM     21  N   UNL     1      -9.165  16.706  65.921  0.00  0.00    -0.272 NA
ATOM     22  C   UNL     1      -9.843  17.731  66.681  0.00  0.00    +0.075 C 
ATOM     23  C   UNL     1      -9.289  19.056  66.269  0.00  0.00    +0.052 C 
ATOM     24  C   UNL     1      -7.803  19.141  66.217  0.00  0.00    +0.148 C 
ATOM     25  O   UNL     1      -7.484  19.960  65.120  0.00  0.00    -0.221 OA
ATOM     26  C   UNL     1      -7.090  17.848  66.004  0.00  0.00    +0.052 C 
ATOM     27  C   UNL     1      -7.820  16.634  66.492  0.00  0.00    +0.075 C 
BRANCH  24  28
ATOM     28  C   UNL     1      -7.201  19.803  67.401  0.00  0.00    +0.005 A 
ATOM     29  C   UNL     1      -6.207  20.737  67.138  0.00  0.00    -0.001 A 
ATOM     30  C   UNL     1      -5.361  21.183  68.124  0.00  0.00    +0.011 A 
ATOM     31  C   UNL     1      -5.390  20.497  69.328  0.00  0.00    +0.058 A 
ATOM     32 CL   UNL     1      -3.999  20.503  70.390  0.00  0.00    -0.082 Cl
ATOM     33  C   UNL     1      -6.575  19.858  69.672  0.00  0.00    +0.011 A 
ATOM     34  C   UNL     1      -7.491  19.480  68.698  0.00  0.00    -0.001 A 
ENDBRANCH  24  28
ENDBRANCH  20  21
ENDBRANCH  19  20
ENDBRANCH   1  19
TORSDOF 7
ENDMDL
MODEL 6
REMARK VINA RESULT:      -7.3      1.730      2.345
REMARK  Name = 
REMARK  7 active torsions:
REMARK  status: ('A' for Active; 'I' for Inactive)
REMARK    1  A    between atoms: C_4  and  C_6
REMARK    2  A    between atoms: C_6  and  C_7
REMARK    3  A    between atoms: C_6  and  C_23
REMARK    4  A    between atoms: C_6  and  C_29
REMARK    5  A    between atoms: C_7  and  C_8
REMARK    6  A    between atoms: C_8  and  N_9
REMARK    7  A    between atoms: C_12  and  C_14
REMARK                            x       y       z     vdW  Elec       q    Type
REMARK                         _______ _______ _______ _____ _____    ______ ____
ROOT
ATOM      1  C   UNL     1     -10.883  13.549  67.300  0.00  0.00    +0.108 C 
ENDROOT
BRANCH   1   2
ATOM      2  C   UNL     1     -11.332  13.010  68.605  0.00  0.00    -0.011 A 
ATOM      3  C   UNL     1     -11.530  11.663  68.786  0.00  0.00    -0.004 A 
ATOM      4  C   UNL     1     -11.838  11.169  70.036  0.00  0.00    -0.000 A 
ATOM      5  C   UNL     1     -12.575  11.980  70.883  0.00  0.00    -0.000 A 
ATOM      6  C   UNL     1     -12.358  13.343  70.768  0.00  0.00    -0.000 A 
ATOM      7  C   UNL     1     -11.749  13.843  69.626  0.00  0.00    -0.004 A 
ENDBRANCH   1   2
BRANCH   1   8
ATOM      8  C   UNL     1     -11.371  12.656  66.201  0.00  0.00    -0.011 A 
ATOM      9  C   UNL     1     -10.432  11.792  65.650  0.00  0.00    -0.004 A 
ATOM     10  C   UNL     1     -10.720  11.107  64.476  0.00  0.00    -0.000 A 
ATOM     11  C   UNL     1     -11.457  11.819  63.538  0.00  0.00    -0.000 A 
ATOM     12  C   UNL     1     -12.302  12.830  63.974  0.00  0.00    -0.000 A 
ATOM     13  C   UNL     1     -12.388  13.049  65.339  0.00  0.00    -0.004 A 
ENDBRANCH   1   8
BRANCH   1  16
ATOM     14  C   UNL     1      -7.643  12.205  68.176  0.00  0.00    +0.115 C 
ATOM     15  N   UNL     1      -8.574  13.314  68.361  0.00  0.00    -0.276 N 
ATOM     16  C   UNL     1      -9.406  13.640  67.244  0.00  0.00    +0.232 C 
ATOM     17  O   UNL     1      -8.903  14.382  66.353  0.00  0.00    -0.274 OA
ATOM     18  C   UNL     1      -8.072  14.439  69.135  0.00  0.00    +0.115 C 
ENDBRANCH   1  16
BRANCH   1  19
ATOM     19  C   UNL     1     -11.481  14.913  67.044  0.00  0.00    +0.034 C 
BRANCH  19  20
ATOM     20  C   UNL     1     -11.390  15.825  68.234  0.00  0.00    +0.073 C 
BRANCH  20  21
ATOM     21  N   UNL     1     -10.764  17.088  67.950  0.00  0.00    -0.272 NA
ATOM     22  C   UNL     1      -9.621  17.370  68.787  0.00  0.00    +0.075 C 
ATOM     23  C   UNL     1      -9.312  18.827  68.672  0.00  0.00    +0.052 C 
ATOM     24  C   UNL     1      -9.269  19.365  67.284  0.00  0.00    +0.148 C 
ATOM     25  O   UNL     1      -9.811  20.661  67.338  0.00  0.00    -0.221 OA
ATOM     26  C   UNL     1     -10.067  18.611  66.274  0.00  0.00    +0.052 C 
ATOM     27  C   UNL     1     -10.261  17.158  66.578  0.00  0.00    +0.075 C 
BRANCH  24  28
ATOM     28  C   UNL     1      -7.894  19.527  66.748  0.00  0.00    +0.005 A 
ATOM     29  C   UNL     1      -7.238  20.701  67.098  0.00  0.00    -0.001 A 
ATOM     30  C   UNL     1      -6.112  21.119  66.431  0.00  0.00    +0.011 A 
ATOM     31  C   UNL     1      -5.796  20.450  65.258  0.00  0.00    +0.058 A 
ATOM     32 CL   UNL     1      -4.846  21.234  64.015  0.00  0.00    -0.082 Cl
ATOM     33  C   UNL     1      -6.218  19.132  65.141  0.00  0.00    +0.011 A 
ATOM     34  C   UNL     1      -7.297  18.659  65.876  0.00  0.00    -0.001 A 
ENDBRANCH  24  28
ENDBRANCH  20  21
ENDBRANCH  19  20
ENDBRANCH   1  19
TORSDOF 7
ENDMDL
MODEL 7
REMARK VINA RESULT:      -7.2      1.872      3.806
REMARK  Name = 
REMARK  7 active torsions:
REMARK  status: ('A' for Active; 'I' for Inactive)
REMARK    1  A    between atoms: C_4  and  C_6
REMARK    2  A    between atoms: C_6  and  C_7
REMARK    3  A    between atoms: C_6  and  C_23
REMARK    4  A    between atoms: C_6  and  C_29
REMARK    5  A    between atoms: C_7  and  C_8
REMARK    6  A    between atoms: C_8  and  N_9
REMARK    7  A    between atoms: C_12  and  C_14
REMARK                            x       y       z     vdW  Elec       q    Type
REMARK                         _______ _______ _______ _____ _____    ______ ____
ROOT
ATOM      1  C   UNL     1     -10.855  13.945  67.557  0.00  0.00    +0.108 C 
ENDROOT
BRANCH   1   2
ATOM      2  C   UNL     1      -9.496  13.758  68.117  0.00  0.00    -0.011 A 
ATOM      3  C   UNL     1      -8.900  14.737  68.875  0.00  0.00    -0.004 A 
ATOM      4  C   UNL     1      -7.685  14.501  69.481  0.00  0.00    -0.000 A 
ATOM      5  C   UNL     1      -6.801  13.651  68.837  0.00  0.00    -0.000 A 
ATOM      6  C   UNL     1      -7.367  12.616  68.110  0.00  0.00    -0.000 A 
ATOM      7  C   UNL     1      -8.705  12.687  67.750  0.00  0.00    -0.004 A 
ENDBRANCH   1   2
BRANCH   1   8
ATOM      8  C   UNL     1     -11.832  14.131  68.676  0.00  0.00    -0.011 A 
ATOM      9  C   UNL     1     -12.007  15.433  69.130  0.00  0.00    -0.004 A 
ATOM     10  C   UNL     1     -12.698  15.673  70.311  0.00  0.00    -0.000 A 
ATOM     11  C   UNL     1     -12.490  14.742  71.321  0.00  0.00    -0.000 A 
ATOM     12  C   UNL     1     -12.138  13.444  70.977  0.00  0.00    -0.000 A 
ATOM     13  C   UNL     1     -12.048  13.141  69.628  0.00  0.00    -0.004 A 
ENDBRANCH   1   8
BRANCH   1  16
ATOM     14  C   UNL     1     -10.511  11.991  64.535  0.00  0.00    +0.115 C 
ATOM     15  N   UNL     1     -11.396  12.849  65.317  0.00  0.00    -0.276 N 
ATOM     16  C   UNL     1     -11.257  12.778  66.739  0.00  0.00    +0.232 C 
ATOM     17  O   UNL     1     -11.864  11.838  67.327  0.00  0.00    -0.274 OA
ATOM     18  C   UNL     1     -12.754  12.984  64.812  0.00  0.00    +0.115 C 
ENDBRANCH   1  16
BRANCH   1  19
ATOM     19  C   UNL     1     -10.924  15.197  66.714  0.00  0.00    +0.034 C 
BRANCH  19  20
ATOM     20  C   UNL     1      -9.757  15.339  65.779  0.00  0.00    +0.073 C 
BRANCH  20  21
ATOM     21  N   UNL     1      -9.141  16.638  65.814  0.00  0.00    -0.272 NA
ATOM     22  C   UNL     1      -9.853  17.596  66.628  0.00  0.00    +0.075 C 
ATOM     23  C   UNL     1      -9.356  18.960  66.278  0.00  0.00    +0.052 C 
ATOM     24  C   UNL     1      -7.875  19.107  66.221  0.00  0.00    +0.148 C 
ATOM     25  O   UNL     1      -7.599  19.992  65.164  0.00  0.00    -0.221 OA
ATOM     26  C   UNL     1      -7.112  17.856  65.939  0.00  0.00    +0.052 C 
ATOM     27  C   UNL     1      -7.789  16.592  66.371  0.00  0.00    +0.075 C 
BRANCH  24  28
ATOM     28  C   UNL     1      -7.289  19.734  67.432  0.00  0.00    +0.005 A 
ATOM     29  C   UNL     1      -6.346  20.729  67.208  0.00  0.00    -0.001 A 
ATOM     30  C   UNL     1      -5.509  21.163  68.208  0.00  0.00    +0.011 A 
ATOM     31  C   UNL     1      -5.488  20.412  69.374  0.00  0.00    +0.058 A 
ATOM     32 CL   UNL     1      -4.085  20.431  70.418  0.00  0.00    -0.082 Cl
ATOM     33  C   UNL     1      -6.636  19.699  69.695  0.00  0.00    +0.011 A 
ATOM     34  C   UNL     1      -7.546  19.329  68.713  0.00  0.00    -0.001 A 
ENDBRANCH  24  28
ENDBRANCH  20  21
ENDBRANCH  19  20
ENDBRANCH   1  19
TORSDOF 7
ENDMDL
MODEL 8
REMARK VINA RESULT:      -7.2      3.832      8.552
REMARK  Name = 
REMARK  7 active torsions:
REMARK  status: ('A' for Active; 'I' for Inactive)
REMARK    1  A    between atoms: C_4  and  C_6
REMARK    2  A    between atoms: C_6  and  C_7
REMARK    3  A    between atoms: C_6  and  C_23
REMARK    4  A    between atoms: C_6  and  C_29
REMARK    5  A    between atoms: C_7  and  C_8
REMARK    6  A    between atoms: C_8  and  N_9
REMARK    7  A    between atoms: C_12  and  C_14
REMARK                            x       y       z     vdW  Elec       q    Type
REMARK                         _______ _______ _______ _____ _____    ______ ____
ROOT
ATOM      1  C   UNL     1     -10.368  14.021  67.259  0.00  0.00    +0.108 C 
ENDROOT
BRANCH   1   2
ATOM      2  C   UNL     1     -10.901  13.397  66.025  0.00  0.00    -0.011 A 
ATOM      3  C   UNL     1     -10.144  13.330  64.880  0.00  0.00    -0.004 A 
ATOM      4  C   UNL     1     -10.614  12.647  63.779  0.00  0.00    -0.000 A 
ATOM      5  C   UNL     1     -11.983  12.632  63.568  0.00  0.00    -0.000 A 
ATOM      6  C   UNL     1     -12.777  12.640  64.703  0.00  0.00    -0.000 A 
ATOM      7  C   UNL     1     -12.229  13.034  65.916  0.00  0.00    -0.004 A 
ENDBRANCH   1   2
BRANCH   1   8
ATOM      8  C   UNL     1     -11.447  14.073  68.295  0.00  0.00    -0.011 A 
ATOM      9  C   UNL     1     -11.573  15.270  68.990  0.00  0.00    -0.004 A 
ATOM     10  C   UNL     1     -12.373  15.337  70.124  0.00  0.00    -0.000 A 
ATOM     11  C   UNL     1     -12.349  14.209  70.935  0.00  0.00    -0.000 A 
ATOM     12  C   UNL     1     -12.058  12.977  70.365  0.00  0.00    -0.000 A 
ATOM     13  C   UNL     1     -11.841  12.940  68.997  0.00  0.00    -0.004 A 
ENDBRANCH   1   8
BRANCH   1  16
ATOM     14  C   UNL     1      -7.628  16.253  66.498  0.00  0.00    +0.115 C 
ATOM     15  N   UNL     1      -8.624  15.869  67.493  0.00  0.00    -0.276 N 
ATOM     16  C   UNL     1      -9.875  15.391  66.990  0.00  0.00    +0.232 C 
ATOM     17  O   UNL     1     -10.729  16.262  66.661  0.00  0.00    -0.274 OA
ATOM     18  C   UNL     1      -8.690  16.711  68.679  0.00  0.00    +0.115 C 
ENDBRANCH   1  16
BRANCH   1  19
ATOM     19  C   UNL     1      -9.249  13.190  67.844  0.00  0.00    +0.034 C 
BRANCH  19  20
ATOM     20  C   UNL     1      -8.976  11.939  67.059  0.00  0.00    +0.073 C 
BRANCH  20  21
ATOM     21  N   UNL     1      -9.154  10.730  67.816  0.00  0.00    -0.272 NA
ATOM     22  C   UNL     1      -8.899  10.888  69.229  0.00  0.00    +0.075 C 
ATOM     23  C   UNL     1      -8.733   9.527  69.824  0.00  0.00    +0.052 C 
ATOM     24  C   UNL     1      -9.773   8.531  69.444  0.00  0.00    +0.148 C 
ATOM     25  O   UNL     1      -9.117   7.295  69.314  0.00  0.00    -0.221 OA
ATOM     26  C   UNL     1     -10.464   8.783  68.146  0.00  0.00    +0.052 C 
ATOM     27  C   UNL     1     -10.522  10.221  67.729  0.00  0.00    +0.075 C 
BRANCH  24  28
ATOM     28  C   UNL     1     -10.814   8.327  70.481  0.00  0.00    +0.005 A 
ATOM     29  C   UNL     1     -11.338   7.044  70.576  0.00  0.00    -0.001 A 
ATOM     30  C   UNL     1     -12.505   6.793  71.257  0.00  0.00    +0.011 A 
ATOM     31  C   UNL     1     -13.250   7.896  71.644  0.00  0.00    +0.058 A 
ATOM     32 CL   UNL     1     -14.974   7.755  71.910  0.00  0.00    -0.082 Cl
ATOM     33  C   UNL     1     -12.568   9.086  71.860  0.00  0.00    +0.011 A 
ATOM     34  C   UNL     1     -11.340   9.325  71.255  0.00  0.00    -0.001 A 
ENDBRANCH  24  28
ENDBRANCH  20  21
ENDBRANCH  19  20
ENDBRANCH   1  19
TORSDOF 7
ENDMDL
MODEL 9
REMARK VINA RESULT:      -7.2      1.171      3.376
REMARK  Name = 
REMARK  7 active torsions:
REMARK  status: ('A' for Active; 'I' for Inactive)
REMARK    1  A    between atoms: C_4  and  C_6
REMARK    2  A    between atoms: C_6  and  C_7
REMARK    3  A    between atoms: C_6  and  C_23
REMARK    4  A    between atoms: C_6  and  C_29
REMARK    5  A    between atoms: C_7  and  C_8
REMARK    6  A    between atoms: C_8  and  N_9
REMARK    7  A    between atoms: C_12  and  C_14
REMARK                            x       y       z     vdW  Elec       q    Type
REMARK                         _______ _______ _______ _____ _____    ______ ____
ROOT
ATOM      1  C   UNL     1     -10.043  13.149  67.624  0.00  0.00    +0.108 C 
ENDROOT
BRANCH   1   2
ATOM      2  C   UNL     1      -8.578  13.036  67.809  0.00  0.00    -0.011 A 
ATOM      3  C   UNL     1      -7.879  13.975  68.530  0.00  0.00    -0.004 A 
ATOM      4  C   UNL     1      -6.537  13.794  68.786  0.00  0.00    -0.000 A 
ATOM      5  C   UNL     1      -5.787  13.119  67.837  0.00  0.00    -0.000 A 
ATOM      6  C   UNL     1      -6.444  12.125  67.131  0.00  0.00    -0.000 A 
ATOM      7  C   UNL     1      -7.832  12.102  67.117  0.00  0.00    -0.004 A 
ENDBRANCH   1   2
BRANCH   1   8
ATOM      8  C   UNL     1     -10.718  11.990  68.289  0.00  0.00    -0.011 A 
ATOM      9  C   UNL     1     -11.676  12.303  69.246  0.00  0.00    -0.004 A 
ATOM     10  C   UNL     1     -12.177  11.313  70.082  0.00  0.00    -0.000 A 
ATOM     11  C   UNL     1     -11.254  10.360  70.493  0.00  0.00    -0.000 A 
ATOM     12  C   UNL     1     -10.157  10.094  69.686  0.00  0.00    -0.000 A 
ATOM     13  C   UNL     1     -10.065  10.778  68.485  0.00  0.00    -0.004 A 
ENDBRANCH   1   8
BRANCH   1  16
ATOM     14  C   UNL     1     -12.504  12.699  65.013  0.00  0.00    +0.115 C 
ATOM     15  N   UNL     1     -11.264  12.195  65.597  0.00  0.00    -0.276 N 
ATOM     16  C   UNL     1     -10.396  13.167  66.187  0.00  0.00    +0.232 C 
ATOM     17  O   UNL     1      -9.622  13.791  65.406  0.00  0.00    -0.274 OA
ATOM     18  C   UNL     1     -10.615  11.116  64.867  0.00  0.00    +0.115 C 
ENDBRANCH   1  16
BRANCH   1  19
ATOM     19  C   UNL     1     -10.577  14.397  68.289  0.00  0.00    +0.034 C 
BRANCH  19  20
ATOM     20  C   UNL     1     -11.177  15.369  67.314  0.00  0.00    +0.073 C 
BRANCH  20  21
ATOM     21  N   UNL     1     -10.655  16.703  67.430  0.00  0.00    -0.272 NA
ATOM     22  C   UNL     1     -10.137  17.011  68.743  0.00  0.00    +0.075 C 
ATOM     23  C   UNL     1      -9.994  18.495  68.847  0.00  0.00    +0.052 C 
ATOM     24  C   UNL     1      -9.321  19.156  67.696  0.00  0.00    +0.148 C 
ATOM     25  O   UNL     1      -9.970  20.388  67.502  0.00  0.00    -0.221 OA
ATOM     26  C   UNL     1      -9.398  18.426  66.396  0.00  0.00    +0.052 C 
ATOM     27  C   UNL     1      -9.539  16.940  66.514  0.00  0.00    +0.075 C 
BRANCH  24  28
ATOM     28  C   UNL     1      -7.896  19.488  67.946  0.00  0.00    +0.005 A 
ATOM     29  C   UNL     1      -7.253  18.726  68.913  0.00  0.00    -0.001 A 
ATOM     30  C   UNL     1      -6.057  19.122  69.461  0.00  0.00    +0.011 A 
ATOM     31  C   UNL     1      -5.639  20.414  69.180  0.00  0.00    +0.058 A 
ATOM     32 CL   UNL     1      -4.552  21.253  70.264  0.00  0.00    -0.082 Cl
ATOM     33  C   UNL     1      -6.075  20.982  67.990  0.00  0.00    +0.011 A 
ATOM     34  C   UNL     1      -7.233  20.535  67.366  0.00  0.00    -0.001 A 
ENDBRANCH  24  28
ENDBRANCH  20  21
ENDBRANCH  19  20
ENDBRANCH   1  19
TORSDOF 7
ENDMDL
