MODEL 1
REMARK VINA RESULT:      -4.6      0.000      0.000
REMARK  Name = 
REMARK  1 active torsions:
REMARK  status: ('A' for Active; 'I' for Inactive)
REMARK    1  A    between atoms: C_5  and  C_6
REMARK                            x       y       z     vdW  Elec       q    Type
REMARK                         _______ _______ _______ _____ _____    ______ ____
ROOT
ATOM      1  C   UNL     1     -12.377  12.189  64.172  0.00  0.00    +0.031 C 
ATOM      2  C   UNL     1     -12.309  13.455  64.968  0.00  0.00    -0.019 A 
ATOM      3  C   UNL     1     -12.165  14.669  64.306  0.00  0.00    +0.037 A 
ATOM      4  C   UNL     1     -11.299  15.641  64.794  0.00  0.00    +0.191 A 
ATOM      5  O   UNL     1     -11.297  16.906  64.240  0.00  0.00    -0.287 OA
ATOM      6  C   UNL     1     -10.736  15.514  66.050  0.00  0.00    +0.016 A 
ATOM      7  C   UNL     1     -11.026  14.389  66.804  0.00  0.00    -0.001 A 
ATOM      8  C   UNL     1     -11.929  13.455  66.307  0.00  0.00    -0.004 A 
ENDROOT
BRANCH   6   9
ATOM      9  C   UNL     1      -9.486  16.225  66.374  0.00  0.00    +0.025 C 
ATOM     10  C   UNL     1      -8.362  15.296  66.746  0.00  0.00    +0.005 C 
ATOM     11  C   UNL     1      -9.666  17.354  67.341  0.00  0.00    +0.005 C 
ENDBRANCH   6   9
TORSDOF 1
ENDMDL
MODEL 2
REMARK VINA RESULT:      -4.5      5.067      6.132
REMARK  Name = 
REMARK  1 active torsions:
REMARK  status: ('A' for Active; 'I' for Inactive)
REMARK    1  A    between atoms: C_5  and  C_6
REMARK                            x       y       z     vdW  Elec       q    Type
REMARK                         _______ _______ _______ _____ _____    ______ ____
ROOT
ATOM      1  C   UNL     1     -11.537  14.266  67.282  0.00  0.00    +0.031 C 
ATOM      2  C   UNL     1     -11.303  14.080  68.749  0.00  0.00    -0.019 A 
ATOM      3  C   UNL     1     -11.818  12.955  69.383  0.00  0.00    +0.037 A 
ATOM      4  C   UNL     1     -12.412  13.062  70.636  0.00  0.00    +0.191 A 
ATOM      5  O   UNL     1     -12.754  11.922  71.337  0.00  0.00    -0.287 OA
ATOM      6  C   UNL     1     -12.309  14.230  71.366  0.00  0.00    +0.016 A 
ATOM      7  C   UNL     1     -11.628  15.305  70.818  0.00  0.00    -0.001 A 
ATOM      8  C   UNL     1     -11.008  15.154  69.582  0.00  0.00    -0.004 A 
ENDROOT
BRANCH   6   9
ATOM      9  C   UNL     1     -13.302  14.539  72.411  0.00  0.00    +0.025 C 
ATOM     10  C   UNL     1     -14.574  15.123  71.858  0.00  0.00    +0.005 C 
ATOM     11  C   UNL     1     -12.744  15.315  73.564  0.00  0.00    +0.005 C 
ENDBRANCH   6   9
TORSDOF 1
ENDMDL
MODEL 3
REMARK VINA RESULT:      -4.5      2.409      3.719
REMARK  Name = 
REMARK  1 active torsions:
REMARK  status: ('A' for Active; 'I' for Inactive)
REMARK    1  A    between atoms: C_5  and  C_6
REMARK                            x       y       z     vdW  Elec       q    Type
REMARK                         _______ _______ _______ _____ _____    ______ ____
ROOT
ATOM      1  C   UNL     1      -9.400  11.072  62.717  0.00  0.00    +0.031 C 
ATOM      2  C   UNL     1     -10.453  10.997  63.779  0.00  0.00    -0.019 A 
ATOM      3  C   UNL     1     -11.530  11.874  63.733  0.00  0.00    +0.037 A 
ATOM      4  C   UNL     1     -11.996  12.481  64.894  0.00  0.00    +0.191 A 
ATOM      5  O   UNL     1     -13.173  13.203  64.871  0.00  0.00    -0.287 OA
ATOM      6  C   UNL     1     -11.550  12.063  66.133  0.00  0.00    +0.016 A 
ATOM      7  C   UNL     1     -10.609  11.050  66.200  0.00  0.00    -0.001 A 
ATOM      8  C   UNL     1     -10.194  10.433  65.025  0.00  0.00    -0.004 A 
ENDROOT
BRANCH   6   9
ATOM      9  C   UNL     1     -11.627  12.972  67.291  0.00  0.00    +0.025 C 
ATOM     10  C   UNL     1     -10.604  14.075  67.242  0.00  0.00    +0.005 C 
ATOM     11  C   UNL     1     -11.676  12.267  68.611  0.00  0.00    +0.005 C 
ENDBRANCH   6   9
TORSDOF 1
ENDMDL
MODEL 4
REMARK VINA RESULT:      -4.4      5.791      7.262
REMARK  Name = 
REMARK  1 active torsions:
REMARK  status: ('A' for Active; 'I' for Inactive)
REMARK    1  A    between atoms: C_5  and  C_6
REMARK                            x       y       z     vdW  Elec       q    Type
REMARK                         _______ _______ _______ _____ _____    ______ ____
ROOT
ATOM      1  C   UNL     1     -12.452  15.943  74.927  0.00  0.00    +0.031 C 
ATOM      2  C   UNL     1     -12.751  16.174  73.478  0.00  0.00    -0.019 A 
ATOM      3  C   UNL     1     -13.927  15.667  72.937  0.00  0.00    +0.037 A 
ATOM      4  C   UNL     1     -13.925  15.068  71.682  0.00  0.00    +0.191 A 
ATOM      5  O   UNL     1     -15.119  14.733  71.075  0.00  0.00    -0.287 OA
ATOM      6  C   UNL     1     -12.817  15.159  70.862  0.00  0.00    +0.016 A 
ATOM      7  C   UNL     1     -11.697  15.832  71.320  0.00  0.00    -0.001 A 
ATOM      8  C   UNL     1     -11.744  16.458  72.562  0.00  0.00    -0.004 A 
ENDROOT
BRANCH   6   9
ATOM      9  C   UNL     1     -12.601  14.161  69.799  0.00  0.00    +0.025 C 
ATOM     10  C   UNL     1     -12.143  12.829  70.329  0.00  0.00    +0.005 C 
ATOM     11  C   UNL     1     -11.770  14.662  68.658  0.00  0.00    +0.005 C 
ENDBRANCH   6   9
TORSDOF 1
ENDMDL
MODEL 5
REMARK VINA RESULT:      -4.4      1.086      3.946
REMARK  Name = 
REMARK  1 active torsions:
REMARK  status: ('A' for Active; 'I' for Inactive)
REMARK    1  A    between atoms: C_5  and  C_6
REMARK                            x       y       z     vdW  Elec       q    Type
REMARK                         _______ _______ _______ _____ _____    ______ ____
ROOT
ATOM      1  C   UNL     1      -9.536  16.646  68.698  0.00  0.00    +0.031 C 
ATOM      2  C   UNL     1      -9.411  16.147  67.291  0.00  0.00    -0.019 A 
ATOM      3  C   UNL     1     -10.110  16.791  66.277  0.00  0.00    +0.037 A 
ATOM      4  C   UNL     1     -10.753  16.056  65.286  0.00  0.00    +0.191 A 
ATOM      5  O   UNL     1     -11.286  16.698  64.186  0.00  0.00    -0.287 OA
ATOM      6  C   UNL     1     -10.531  14.698  65.163  0.00  0.00    +0.016 A 
ATOM      7  C   UNL     1      -9.680  14.074  66.060  0.00  0.00    -0.001 A 
ATOM      8  C   UNL     1      -9.019  14.842  67.012  0.00  0.00    -0.004 A 
ENDROOT
BRANCH   6   9
ATOM      9  C   UNL     1     -11.528  13.844  64.493  0.00  0.00    +0.025 C 
ATOM     10  C   UNL     1     -12.740  13.578  65.345  0.00  0.00    +0.005 C 
ATOM     11  C   UNL     1     -10.951  12.606  63.881  0.00  0.00    +0.005 C 
ENDBRANCH   6   9
TORSDOF 1
ENDMDL
MODEL 6
REMARK VINA RESULT:      -4.4      3.581      4.915
REMARK  Name = 
REMARK  1 active torsions:
REMARK  status: ('A' for Active; 'I' for Inactive)
REMARK    1  A    between atoms: C_5  and  C_6
REMARK                            x       y       z     vdW  Elec       q    Type
REMARK                         _______ _______ _______ _____ _____    ______ ____
ROOT
ATOM      1  C   UNL     1     -14.283  14.571  71.852  0.00  0.00    +0.031 C 
ATOM      2  C   UNL     1     -12.944  14.579  71.182  0.00  0.00    -0.019 A 
ATOM      3  C   UNL     1     -12.477  15.756  70.608  0.00  0.00    +0.037 A 
ATOM      4  C   UNL     1     -11.842  15.734  69.372  0.00  0.00    +0.191 A 
ATOM      5  O   UNL     1     -11.222  16.872  68.894  0.00  0.00    -0.287 OA
ATOM      6  C   UNL     1     -11.469  14.536  68.794  0.00  0.00    +0.016 A 
ATOM      7  C   UNL     1     -11.762  13.354  69.453  0.00  0.00    -0.001 A 
ATOM      8  C   UNL     1     -12.359  13.409  70.708  0.00  0.00    -0.004 A 
ENDROOT
BRANCH   6   9
ATOM      9  C   UNL     1     -11.269  14.449  67.336  0.00  0.00    +0.025 C 
ATOM     10  C   UNL     1     -12.274  13.558  66.658  0.00  0.00    +0.005 C 
ATOM     11  C   UNL     1      -9.855  14.162  66.935  0.00  0.00    +0.005 C 
ENDBRANCH   6   9
TORSDOF 1
ENDMDL
MODEL 7
REMARK VINA RESULT:      -4.2      2.386      4.292
REMARK  Name = 
REMARK  1 active torsions:
REMARK  status: ('A' for Active; 'I' for Inactive)
REMARK    1  A    between atoms: C_5  and  C_6
REMARK                            x       y       z     vdW  Elec       q    Type
REMARK                         _______ _______ _______ _____ _____    ______ ____
ROOT
ATOM      1  C   UNL     1     -11.816  14.350  68.527  0.00  0.00    +0.031 C 
ATOM      2  C   UNL     1     -11.509  14.183  67.071  0.00  0.00    -0.019 A 
ATOM      3  C   UNL     1     -12.505  13.730  66.213  0.00  0.00    +0.037 A 
ATOM      4  C   UNL     1     -12.215  12.792  65.229  0.00  0.00    +0.191 A 
ATOM      5  O   UNL     1     -13.159  12.484  64.268  0.00  0.00    -0.287 OA
ATOM      6  C   UNL     1     -10.906  12.457  64.939  0.00  0.00    +0.016 A 
ATOM      7  C   UNL     1      -9.887  13.050  65.665  0.00  0.00    -0.001 A 
ATOM      8  C   UNL     1     -10.205  14.017  66.614  0.00  0.00    -0.004 A 
ENDROOT
BRANCH   6   9
ATOM      9  C   UNL     1     -10.598  11.166  64.298  0.00  0.00    +0.025 C 
ATOM     10  C   UNL     1     -10.078  10.139  65.267  0.00  0.00    +0.005 C 
ATOM     11  C   UNL     1      -9.764  11.290  63.061  0.00  0.00    +0.005 C 
ENDBRANCH   6   9
TORSDOF 1
ENDMDL
MODEL 8
REMARK VINA RESULT:      -4.2      1.812      2.515
REMARK  Name = 
REMARK  1 active torsions:
REMARK  status: ('A' for Active; 'I' for Inactive)
REMARK    1  A    between atoms: C_5  and  C_6
REMARK                            x       y       z     vdW  Elec       q    Type
REMARK                         _______ _______ _______ _____ _____    ______ ____
ROOT
ATOM      1  C   UNL     1     -10.152  13.207  67.213  0.00  0.00    +0.031 C 
ATOM      2  C   UNL     1     -10.792  14.553  67.068  0.00  0.00    -0.019 A 
ATOM      3  C   UNL     1     -11.025  15.061  65.795  0.00  0.00    +0.037 A 
ATOM      4  C   UNL     1     -10.771  16.399  65.512  0.00  0.00    +0.191 A 
ATOM      5  O   UNL     1     -11.174  16.938  64.307  0.00  0.00    -0.287 OA
ATOM      6  C   UNL     1     -10.495  17.292  66.529  0.00  0.00    +0.016 A 
ATOM      7  C   UNL     1     -10.447  16.829  67.834  0.00  0.00    -0.001 A 
ATOM      8  C   UNL     1     -10.748  15.496  68.090  0.00  0.00    -0.004 A 
ENDROOT
BRANCH   6   9
ATOM      9  C   UNL     1      -9.757  18.535  66.241  0.00  0.00    +0.025 C 
ATOM     10  C   UNL     1      -8.284  18.424  66.526  0.00  0.00    +0.005 C 
ATOM     11  C   UNL     1     -10.385  19.761  66.830  0.00  0.00    +0.005 C 
ENDBRANCH   6   9
TORSDOF 1
ENDMDL
MODEL 9
REMARK VINA RESULT:      -4.2      4.066      5.003
REMARK  Name = 
REMARK  1 active torsions:
REMARK  status: ('A' for Active; 'I' for Inactive)
REMARK    1  A    between atoms: C_5  and  C_6
REMARK                            x       y       z     vdW  Elec       q    Type
REMARK                         _______ _______ _______ _____ _____    ______ ____
ROOT
ATOM      1  C   UNL     1      -9.510  12.264  68.382  0.00  0.00    +0.031 C 
ATOM      2  C   UNL     1     -10.832  12.928  68.613  0.00  0.00    -0.019 A 
ATOM      3  C   UNL     1     -10.973  14.281  68.324  0.00  0.00    +0.037 A 
ATOM      4  C   UNL     1     -11.673  15.116  69.188  0.00  0.00    +0.191 A 
ATOM      5  O   UNL     1     -11.966  16.411  68.809  0.00  0.00    -0.287 OA
ATOM      6  C   UNL     1     -12.420  14.590  70.224  0.00  0.00    +0.016 A 
ATOM      7  C   UNL     1     -12.440  13.218  70.407  0.00  0.00    -0.001 A 
ATOM      8  C   UNL     1     -11.766  12.405  69.501  0.00  0.00    -0.004 A 
ENDROOT
BRANCH   6   9
ATOM      9  C   UNL     1     -12.739  15.419  71.401  0.00  0.00    +0.025 C 
ATOM     10  C   UNL     1     -11.694  15.333  72.480  0.00  0.00    +0.005 C 
ATOM     11  C   UNL     1     -14.135  15.234  71.910  0.00  0.00    +0.005 C 
ENDBRANCH   6   9
TORSDOF 1
ENDMDL
