MODEL 1
REMARK VINA RESULT:      -4.5      0.000      0.000
REMARK  Name = 
REMARK  2 active torsions:
REMARK  status: ('A' for Active; 'I' for Inactive)
REMARK    1  A    between atoms: C_2  and  C_4
REMARK    2  A    between atoms: C_4  and  C_5
REMARK                            x       y       z     vdW  Elec       q    Type
REMARK                         _______ _______ _______ _____ _____    ______ ____
ROOT
ATOM      1  C   UNL     1     -12.558  12.678  70.952  0.00  0.00    -0.021 A 
ATOM      2  C   UNL     1     -11.881  12.151  69.868  0.00  0.00    -0.004 A 
ATOM      3  C   UNL     1     -11.477  10.830  69.838  0.00  0.00    -0.000 A 
ATOM      4  C   UNL     1     -11.810  10.040  70.931  0.00  0.00    -0.000 A 
ATOM      5  C   UNL     1     -12.939  10.429  71.642  0.00  0.00    -0.000 A 
ATOM      6  C   UNL     1     -13.185  11.780  71.807  0.00  0.00    -0.004 A 
ENDROOT
BRANCH   1   7
ATOM      7  C   UNL     1     -12.540  14.114  71.305  0.00  0.00    +0.045 C 
BRANCH   7   9
ATOM      8  C   UNL     1     -12.643  15.095  73.485  0.00  0.00    +0.021 C 
ATOM      9  C   UNL     1     -13.695  14.256  72.501  0.00  0.00    +0.096 C 
ATOM     10  N   UNL     1     -14.250  15.613  71.860  0.00  0.00    -0.133 NA
ENDBRANCH   7   9
ENDBRANCH   1   7
TORSDOF 2
ENDMDL
MODEL 2
REMARK VINA RESULT:      -4.4      3.486      4.702
REMARK  Name = 
REMARK  2 active torsions:
REMARK  status: ('A' for Active; 'I' for Inactive)
REMARK    1  A    between atoms: C_2  and  C_4
REMARK    2  A    between atoms: C_4  and  C_5
REMARK                            x       y       z     vdW  Elec       q    Type
REMARK                         _______ _______ _______ _____ _____    ______ ____
ROOT
ATOM      1  C   UNL     1     -12.544  15.575  70.730  0.00  0.00    -0.021 A 
ATOM      2  C   UNL     1     -13.671  14.872  71.114  0.00  0.00    -0.004 A 
ATOM      3  C   UNL     1     -13.861  14.465  72.422  0.00  0.00    -0.000 A 
ATOM      4  C   UNL     1     -12.886  14.823  73.345  0.00  0.00    -0.000 A 
ATOM      5  C   UNL     1     -12.159  15.970  73.048  0.00  0.00    -0.000 A 
ATOM      6  C   UNL     1     -11.828  16.222  71.729  0.00  0.00    -0.004 A 
ENDROOT
BRANCH   1   7
ATOM      7  C   UNL     1     -12.010  15.567  69.352  0.00  0.00    +0.045 C 
BRANCH   7   9
ATOM      8  C   UNL     1      -9.823  15.293  68.418  0.00  0.00    +0.021 C 
ATOM      9  C   UNL     1     -10.547  16.361  69.475  0.00  0.00    +0.096 C 
ATOM     10  N   UNL     1     -10.936  17.351  68.282  0.00  0.00    -0.133 NA
ENDBRANCH   7   9
ENDBRANCH   1   7
TORSDOF 2
ENDMDL
MODEL 3
REMARK VINA RESULT:      -4.3      2.075      2.982
REMARK  Name = 
REMARK  2 active torsions:
REMARK  status: ('A' for Active; 'I' for Inactive)
REMARK    1  A    between atoms: C_2  and  C_4
REMARK    2  A    between atoms: C_4  and  C_5
REMARK                            x       y       z     vdW  Elec       q    Type
REMARK                         _______ _______ _______ _____ _____    ______ ____
ROOT
ATOM      1  C   UNL     1     -12.039  15.132  70.614  0.00  0.00    -0.021 A 
ATOM      2  C   UNL     1     -11.861  15.814  69.425  0.00  0.00    -0.004 A 
ATOM      3  C   UNL     1     -11.404  15.178  68.286  0.00  0.00    -0.000 A 
ATOM      4  C   UNL     1     -11.162  13.813  68.375  0.00  0.00    -0.000 A 
ATOM      5  C   UNL     1     -11.897  13.127  69.335  0.00  0.00    -0.000 A 
ATOM      6  C   UNL     1     -12.156  13.749  70.542  0.00  0.00    -0.004 A 
ENDROOT
BRANCH   1   7
ATOM      7  C   UNL     1     -11.986  15.781  71.941  0.00  0.00    +0.045 C 
BRANCH   7   9
ATOM      8  C   UNL     1     -12.516  15.645  74.271  0.00  0.00    +0.021 C 
ATOM      9  C   UNL     1     -13.023  14.873  72.883  0.00  0.00    +0.096 C 
ATOM     10  N   UNL     1     -14.205  15.929  72.672  0.00  0.00    -0.133 NA
ENDBRANCH   7   9
ENDBRANCH   1   7
TORSDOF 2
ENDMDL
MODEL 4
REMARK VINA RESULT:      -4.3      3.132      4.690
REMARK  Name = 
REMARK  2 active torsions:
REMARK  status: ('A' for Active; 'I' for Inactive)
REMARK    1  A    between atoms: C_2  and  C_4
REMARK    2  A    between atoms: C_4  and  C_5
REMARK                            x       y       z     vdW  Elec       q    Type
REMARK                         _______ _______ _______ _____ _____    ______ ____
ROOT
ATOM      1  C   UNL     1     -12.519  15.618  70.736  0.00  0.00    -0.021 A 
ATOM      2  C   UNL     1     -13.672  14.939  71.083  0.00  0.00    -0.004 A 
ATOM      3  C   UNL     1     -13.894  14.498  72.374  0.00  0.00    -0.000 A 
ATOM      4  C   UNL     1     -12.923  14.798  73.322  0.00  0.00    -0.000 A 
ATOM      5  C   UNL     1     -12.157  15.930  73.070  0.00  0.00    -0.000 A 
ATOM      6  C   UNL     1     -11.798  16.211  71.765  0.00  0.00    -0.004 A 
ENDROOT
BRANCH   1   7
ATOM      7  C   UNL     1     -11.964  15.635  69.366  0.00  0.00    +0.045 C 
BRANCH   7   9
ATOM      8  C   UNL     1     -11.942  14.218  67.437  0.00  0.00    +0.021 C 
ATOM      9  C   UNL     1     -11.586  14.039  69.057  0.00  0.00    +0.096 C 
ATOM     10  N   UNL     1     -10.050  14.408  68.808  0.00  0.00    -0.133 NA
ENDBRANCH   7   9
ENDBRANCH   1   7
TORSDOF 2
ENDMDL
MODEL 5
REMARK VINA RESULT:      -4.3      3.725      4.806
REMARK  Name = 
REMARK  2 active torsions:
REMARK  status: ('A' for Active; 'I' for Inactive)
REMARK    1  A    between atoms: C_2  and  C_4
REMARK    2  A    between atoms: C_4  and  C_5
REMARK                            x       y       z     vdW  Elec       q    Type
REMARK                         _______ _______ _______ _____ _____    ______ ____
ROOT
ATOM      1  C   UNL     1     -12.402  15.420  70.644  0.00  0.00    -0.021 A 
ATOM      2  C   UNL     1     -11.555  15.563  71.727  0.00  0.00    -0.004 A 
ATOM      3  C   UNL     1     -12.039  15.821  72.996  0.00  0.00    -0.000 A 
ATOM      4  C   UNL     1     -13.419  15.896  73.146  0.00  0.00    -0.000 A 
ATOM      5  C   UNL     1     -14.170  15.180  72.222  0.00  0.00    -0.000 A 
ATOM      6  C   UNL     1     -13.732  15.123  70.912  0.00  0.00    -0.004 A 
ENDROOT
BRANCH   1   7
ATOM      7  C   UNL     1     -11.991  15.687  69.249  0.00  0.00    +0.045 C 
BRANCH   7   9
ATOM      8  C   UNL     1      -9.807  15.413  68.309  0.00  0.00    +0.021 C 
ATOM      9  C   UNL     1     -10.519  16.459  69.395  0.00  0.00    +0.096 C 
ATOM     10  N   UNL     1     -10.895  17.488  68.230  0.00  0.00    -0.133 NA
ENDBRANCH   7   9
ENDBRANCH   1   7
TORSDOF 2
ENDMDL
MODEL 6
REMARK VINA RESULT:      -4.2      1.190      1.795
REMARK  Name = 
REMARK  2 active torsions:
REMARK  status: ('A' for Active; 'I' for Inactive)
REMARK    1  A    between atoms: C_2  and  C_4
REMARK    2  A    between atoms: C_4  and  C_5
REMARK                            x       y       z     vdW  Elec       q    Type
REMARK                         _______ _______ _______ _____ _____    ______ ____
ROOT
ATOM      1  C   UNL     1     -12.219  14.072  70.636  0.00  0.00    -0.021 A 
ATOM      2  C   UNL     1     -11.948  14.300  69.300  0.00  0.00    -0.004 A 
ATOM      3  C   UNL     1     -11.499  13.290  68.469  0.00  0.00    -0.000 A 
ATOM      4  C   UNL     1     -11.365  12.024  69.025  0.00  0.00    -0.000 A 
ATOM      5  C   UNL     1     -12.183  11.748  70.114  0.00  0.00    -0.000 A 
ATOM      6  C   UNL     1     -12.437  12.757  71.025  0.00  0.00    -0.004 A 
ENDROOT
BRANCH   1   7
ATOM      7  C   UNL     1     -12.164  15.128  71.669  0.00  0.00    +0.045 C 
BRANCH   7   9
ATOM      8  C   UNL     1     -12.478  15.482  74.016  0.00  0.00    +0.021 C 
ATOM      9  C   UNL     1     -13.271  14.635  72.817  0.00  0.00    +0.096 C 
ATOM     10  N   UNL     1     -14.219  15.883  72.499  0.00  0.00    -0.133 NA
ENDBRANCH   7   9
ENDBRANCH   1   7
TORSDOF 2
ENDMDL
MODEL 7
REMARK VINA RESULT:      -4.1      2.852      4.600
REMARK  Name = 
REMARK  2 active torsions:
REMARK  status: ('A' for Active; 'I' for Inactive)
REMARK    1  A    between atoms: C_2  and  C_4
REMARK    2  A    between atoms: C_4  and  C_5
REMARK                            x       y       z     vdW  Elec       q    Type
REMARK                         _______ _______ _______ _____ _____    ______ ____
ROOT
ATOM      1  C   UNL     1     -12.154  15.029  70.688  0.00  0.00    -0.021 A 
ATOM      2  C   UNL     1     -11.662  15.940  71.604  0.00  0.00    -0.004 A 
ATOM      3  C   UNL     1     -12.235  16.094  72.852  0.00  0.00    -0.000 A 
ATOM      4  C   UNL     1     -13.308  15.268  73.164  0.00  0.00    -0.000 A 
ATOM      5  C   UNL     1     -13.348  14.048  72.501  0.00  0.00    -0.000 A 
ATOM      6  C   UNL     1     -12.944  13.998  71.179  0.00  0.00    -0.004 A 
ENDROOT
BRANCH   1   7
ATOM      7  C   UNL     1     -11.985  15.172  69.226  0.00  0.00    +0.045 C 
BRANCH   7   9
ATOM      8  C   UNL     1     -11.993  14.080  67.096  0.00  0.00    +0.021 C 
ATOM      9  C   UNL     1     -11.786  13.607  68.682  0.00  0.00    +0.096 C 
ATOM     10  N   UNL     1     -10.202  13.799  68.581  0.00  0.00    -0.133 NA
ENDBRANCH   7   9
ENDBRANCH   1   7
TORSDOF 2
ENDMDL
MODEL 8
REMARK VINA RESULT:      -4.1      4.524      6.216
REMARK  Name = 
REMARK  2 active torsions:
REMARK  status: ('A' for Active; 'I' for Inactive)
REMARK    1  A    between atoms: C_2  and  C_4
REMARK    2  A    between atoms: C_4  and  C_5
REMARK                            x       y       z     vdW  Elec       q    Type
REMARK                         _______ _______ _______ _____ _____    ______ ____
ROOT
ATOM      1  C   UNL     1     -11.791  13.075  66.872  0.00  0.00    -0.021 A 
ATOM      2  C   UNL     1     -11.574  14.403  67.187  0.00  0.00    -0.004 A 
ATOM      3  C   UNL     1     -11.690  14.869  68.484  0.00  0.00    -0.000 A 
ATOM      4  C   UNL     1     -11.999  13.937  69.467  0.00  0.00    -0.000 A 
ATOM      5  C   UNL     1     -11.616  12.627  69.205  0.00  0.00    -0.000 A 
ATOM      6  C   UNL     1     -11.710  12.155  67.909  0.00  0.00    -0.004 A 
ENDROOT
BRANCH   1   7
ATOM      7  C   UNL     1     -12.218  12.614  65.533  0.00  0.00    +0.045 C 
BRANCH   7   9
ATOM      8  C   UNL     1     -10.996  12.142  63.530  0.00  0.00    +0.021 C 
ATOM      9  C   UNL     1     -11.266  13.488  64.477  0.00  0.00    +0.096 C 
ATOM     10  N   UNL     1     -12.542  13.902  63.605  0.00  0.00    -0.133 NA
ENDBRANCH   7   9
ENDBRANCH   1   7
TORSDOF 2
ENDMDL
MODEL 9
REMARK VINA RESULT:      -4.0      2.070      3.283
REMARK  Name = 
REMARK  2 active torsions:
REMARK  status: ('A' for Active; 'I' for Inactive)
REMARK    1  A    between atoms: C_2  and  C_4
REMARK    2  A    between atoms: C_4  and  C_5
REMARK                            x       y       z     vdW  Elec       q    Type
REMARK                         _______ _______ _______ _____ _____    ______ ____
ROOT
ATOM      1  C   UNL     1     -12.061  13.916  70.050  0.00  0.00    -0.021 A 
ATOM      2  C   UNL     1     -11.776  12.749  69.366  0.00  0.00    -0.004 A 
ATOM      3  C   UNL     1     -11.693  12.720  67.987  0.00  0.00    -0.000 A 
ATOM      4  C   UNL     1     -11.872  13.922  67.315  0.00  0.00    -0.000 A 
ATOM      5  C   UNL     1     -11.555  15.071  68.029  0.00  0.00    -0.000 A 
ATOM      6  C   UNL     1     -11.847  15.114  69.380  0.00  0.00    -0.004 A 
ENDROOT
BRANCH   1   7
ATOM      7  C   UNL     1     -12.687  13.944  71.389  0.00  0.00    +0.045 C 
BRANCH   7   9
ATOM      8  C   UNL     1     -14.826  14.999  71.596  0.00  0.00    +0.021 C 
ATOM      9  C   UNL     1     -13.239  15.511  71.552  0.00  0.00    +0.096 C 
ATOM     10  N   UNL     1     -13.120  15.431  73.145  0.00  0.00    -0.133 NA
ENDBRANCH   7   9
ENDBRANCH   1   7
TORSDOF 2
ENDMDL
