MODEL 1
REMARK VINA RESULT:      -7.1      0.000      0.000
REMARK  Name = 
REMARK  4 active torsions:
REMARK  status: ('A' for Active; 'I' for Inactive)
REMARK    1  A    between atoms: N_11  and  C_12
REMARK    2  A    between atoms: C_14  and  C_15
REMARK    3  A    between atoms: C_15  and  O_16
REMARK    4  A    between atoms: O_16  and  P_17
REMARK                            x       y       z     vdW  Elec       q    Type
REMARK                         _______ _______ _______ _____ _____    ______ ____
ROOT
ATOM      1  C   UNL     1     -11.088  14.673  67.548  0.00  0.00    +0.241 C 
ATOM      2  C   UNL     1     -10.167  13.231  67.702  0.00  0.00    +0.234 C 
ATOM      3  O   UNL     1      -9.339  13.624  68.888  0.00  0.00    -0.216 OA
ATOM      4  C   UNL     1     -11.383  12.560  68.660  0.00  0.00    +0.216 C 
ATOM      5  O   UNL     1     -12.243  12.410  67.433  0.00  0.00    -0.218 OA
ATOM      6  C   UNL     1     -12.169  14.035  69.029  0.00  0.00    +0.180 C 
ATOM      7  O   UNL     1     -10.932  14.909  69.039  0.00  0.00    -0.331 OA
ENDROOT
BRANCH   1  13
ATOM      8  N   UNL     1     -10.824  19.693  66.072  0.00  0.00    -0.105 NA
ATOM      9  C   UNL     1      -9.998  18.970  66.664  0.00  0.00    +0.194 A 
ATOM     10  C   UNL     1      -9.975  17.611  66.345  0.00  0.00    +0.152 A 
ATOM     11  N   UNL     1     -10.203  16.860  65.282  0.00  0.00    -0.219 NA
ATOM     12  C   UNL     1      -9.911  15.578  65.625  0.00  0.00    +0.182 A 
ATOM     13  N   UNL     1      -9.828  15.438  66.982  0.00  0.00    -0.269 N 
ATOM     14  C   UNL     1      -9.826  16.724  67.410  0.00  0.00    +0.171 A 
ATOM     15  N   UNL     1      -9.211  17.147  68.524  0.00  0.00    -0.182 NA
ATOM     16  C   UNL     1      -8.602  18.367  68.500  0.00  0.00    +0.313 A 
ATOM     17  F   UNL     1      -7.290  18.541  68.865  0.00  0.00    -0.161 F 
ATOM     18  N   UNL     1      -9.196  19.305  67.713  0.00  0.00    -0.181 NA
ENDBRANCH   1  13
BRANCH   6  19
ATOM     19  C   UNL     1     -12.106  13.558  70.596  0.00  0.00    +0.186 C 
BRANCH  19  20
ATOM     20  O   UNL     1     -12.078  14.535  71.427  0.00  0.00    -0.268 OA
BRANCH  20  21
ATOM     21  P   UNL     1     -13.224  14.819  72.556  0.00  0.00    +0.533 P 
ATOM     22  O   UNL     1     -14.037  13.319  72.552  0.00  0.00    -0.115 OA
ATOM     23  O   UNL     1     -12.379  15.078  74.002  0.00  0.00    -0.115 OA
ATOM     24  O   UNL     1     -14.220  15.896  72.316  0.00  0.00    -0.222 OA
ENDBRANCH  20  21
ENDBRANCH  19  20
ENDBRANCH   6  19
TORSDOF 4
ENDMDL
MODEL 2
REMARK VINA RESULT:      -6.9      4.646      6.727
REMARK  Name = 
REMARK  4 active torsions:
REMARK  status: ('A' for Active; 'I' for Inactive)
REMARK    1  A    between atoms: N_11  and  C_12
REMARK    2  A    between atoms: C_14  and  C_15
REMARK    3  A    between atoms: C_15  and  O_16
REMARK    4  A    between atoms: O_16  and  P_17
REMARK                            x       y       z     vdW  Elec       q    Type
REMARK                         _______ _______ _______ _____ _____    ______ ____
ROOT
ATOM      1  C   UNL     1      -9.777  16.611  67.489  0.00  0.00    +0.241 C 
ATOM      2  C   UNL     1     -10.283  17.864  66.427  0.00  0.00    +0.234 C 
ATOM      3  O   UNL     1     -10.983  18.732  67.429  0.00  0.00    -0.216 OA
ATOM      4  C   UNL     1      -8.804  18.645  66.650  0.00  0.00    +0.216 C 
ATOM      5  O   UNL     1      -8.139  17.589  65.806  0.00  0.00    -0.218 OA
ATOM      6  C   UNL     1      -8.352  17.797  68.066  0.00  0.00    +0.180 C 
ATOM      7  O   UNL     1      -9.747  17.613  68.627  0.00  0.00    -0.331 OA
ENDROOT
BRANCH   1  13
ATOM      8  N   UNL     1     -11.383  12.123  69.662  0.00  0.00    -0.105 NA
ATOM      9  C   UNL     1     -11.898  13.259  69.656  0.00  0.00    +0.194 A 
ATOM     10  C   UNL     1     -11.704  14.056  68.526  0.00  0.00    +0.152 A 
ATOM     11  N   UNL     1     -11.552  13.875  67.226  0.00  0.00    -0.219 NA
ATOM     12  C   UNL     1     -11.492  15.107  66.653  0.00  0.00    +0.182 A 
ATOM     13  N   UNL     1     -11.258  16.074  67.590  0.00  0.00    -0.269 N 
ATOM     14  C   UNL     1     -11.439  15.405  68.754  0.00  0.00    +0.171 A 
ATOM     15  N   UNL     1     -11.882  15.970  69.887  0.00  0.00    -0.182 NA
ATOM     16  C   UNL     1     -12.722  15.247  70.681  0.00  0.00    +0.313 A 
ATOM     17  F   UNL     1     -13.936  15.733  71.100  0.00  0.00    -0.161 F 
ATOM     18  N   UNL     1     -12.515  13.902  70.686  0.00  0.00    -0.181 NA
ENDBRANCH   1  13
BRANCH   6  19
ATOM     19  C   UNL     1      -8.048  19.266  68.725  0.00  0.00    +0.186 C 
BRANCH  19  20
ATOM     20  O   UNL     1      -6.890  19.351  69.273  0.00  0.00    -0.268 OA
BRANCH  20  21
ATOM     21  P   UNL     1      -5.717  20.382  68.795  0.00  0.00    +0.533 P 
ATOM     22  O   UNL     1      -6.579  21.326  67.665  0.00  0.00    -0.115 OA
ATOM     23  O   UNL     1      -5.305  21.270  70.179  0.00  0.00    -0.115 OA
ATOM     24  O   UNL     1      -4.506  19.835  68.128  0.00  0.00    -0.222 OA
ENDBRANCH  20  21
ENDBRANCH  19  20
ENDBRANCH   6  19
TORSDOF 4
ENDMDL
MODEL 3
REMARK VINA RESULT:      -6.8      3.004      4.863
REMARK  Name = 
REMARK  4 active torsions:
REMARK  status: ('A' for Active; 'I' for Inactive)
REMARK    1  A    between atoms: N_11  and  C_12
REMARK    2  A    between atoms: C_14  and  C_15
REMARK    3  A    between atoms: C_15  and  O_16
REMARK    4  A    between atoms: O_16  and  P_17
REMARK                            x       y       z     vdW  Elec       q    Type
REMARK                         _______ _______ _______ _____ _____    ______ ____
ROOT
ATOM      1  C   UNL     1      -9.679  14.835  67.888  0.00  0.00    +0.241 C 
ATOM      2  C   UNL     1     -10.700  14.612  69.252  0.00  0.00    +0.234 C 
ATOM      3  O   UNL     1     -11.823  15.514  68.837  0.00  0.00    -0.216 OA
ATOM      4  C   UNL     1     -11.390  13.262  68.510  0.00  0.00    +0.216 C 
ATOM      5  O   UNL     1     -10.122  12.492  68.772  0.00  0.00    -0.218 OA
ATOM      6  C   UNL     1     -10.846  13.617  66.927  0.00  0.00    +0.180 C 
ATOM      7  O   UNL     1     -10.905  15.126  67.042  0.00  0.00    -0.331 OA
ENDROOT
BRANCH   1  13
ATOM      8  N   UNL     1      -6.696  18.363  65.418  0.00  0.00    -0.105 NA
ATOM      9  C   UNL     1      -7.728  18.502  66.104  0.00  0.00    +0.194 A 
ATOM     10  C   UNL     1      -7.929  17.616  67.164  0.00  0.00    +0.152 A 
ATOM     11  N   UNL     1      -7.182  16.944  68.023  0.00  0.00    -0.219 NA
ATOM     12  C   UNL     1      -8.026  16.312  68.881  0.00  0.00    +0.182 A 
ATOM     13  N   UNL     1      -9.299  16.284  68.388  0.00  0.00    -0.269 N 
ATOM     14  C   UNL     1      -9.228  17.141  67.340  0.00  0.00    +0.171 A 
ATOM     15  N   UNL     1     -10.255  17.884  66.902  0.00  0.00    -0.182 NA
ATOM     16  C   UNL     1      -9.994  19.149  66.465  0.00  0.00    +0.313 A 
ATOM     17  F   UNL     1     -10.660  20.246  66.951  0.00  0.00    -0.161 F 
ATOM     18  N   UNL     1      -8.785  19.326  65.865  0.00  0.00    -0.181 NA
ENDBRANCH   1  13
BRANCH   6  19
ATOM     19  C   UNL     1     -12.396  13.378  66.452  0.00  0.00    +0.186 C 
BRANCH  19  20
ATOM     20  O   UNL     1     -12.513  12.529  65.496  0.00  0.00    -0.268 OA
BRANCH  20  21
ATOM     21  P   UNL     1     -12.072  12.816  63.949  0.00  0.00    +0.533 P 
ATOM     22  O   UNL     1     -13.093  11.721  63.131  0.00  0.00    -0.115 OA
ATOM     23  O   UNL     1     -12.504  14.428  63.648  0.00  0.00    -0.115 OA
ATOM     24  O   UNL     1     -10.669  12.551  63.538  0.00  0.00    -0.222 OA
ENDBRANCH  20  21
ENDBRANCH  19  20
ENDBRANCH   6  19
TORSDOF 4
ENDMDL
MODEL 4
REMARK VINA RESULT:      -6.6      3.096      4.807
REMARK  Name = 
REMARK  4 active torsions:
REMARK  status: ('A' for Active; 'I' for Inactive)
REMARK    1  A    between atoms: N_11  and  C_12
REMARK    2  A    between atoms: C_14  and  C_15
REMARK    3  A    between atoms: C_15  and  O_16
REMARK    4  A    between atoms: O_16  and  P_17
REMARK                            x       y       z     vdW  Elec       q    Type
REMARK                         _______ _______ _______ _____ _____    ______ ____
ROOT
ATOM      1  C   UNL     1      -8.605  18.709  67.895  0.00  0.00    +0.241 C 
ATOM      2  C   UNL     1      -8.537  17.824  66.424  0.00  0.00    +0.234 C 
ATOM      3  O   UNL     1      -8.087  16.506  66.980  0.00  0.00    -0.216 OA
ATOM      4  C   UNL     1     -10.172  17.435  66.587  0.00  0.00    +0.216 C 
ATOM      5  O   UNL     1     -10.526  18.856  66.235  0.00  0.00    -0.218 OA
ATOM      6  C   UNL     1     -10.293  17.818  68.251  0.00  0.00    +0.180 C 
ATOM      7  O   UNL     1      -8.884  17.416  68.638  0.00  0.00    -0.331 OA
ENDROOT
BRANCH   1  13
ATOM      8  N   UNL     1      -5.643  20.676  71.743  0.00  0.00    -0.105 NA
ATOM      9  C   UNL     1      -5.484  19.672  71.021  0.00  0.00    +0.194 A 
ATOM     10  C   UNL     1      -5.963  19.729  69.710  0.00  0.00    +0.152 A 
ATOM     11  N   UNL     1      -6.123  20.650  68.776  0.00  0.00    -0.219 NA
ATOM     12  C   UNL     1      -6.571  20.016  67.660  0.00  0.00    +0.182 A 
ATOM     13  N   UNL     1      -7.028  18.763  67.955  0.00  0.00    -0.269 N 
ATOM     14  C   UNL     1      -6.598  18.587  69.228  0.00  0.00    +0.171 A 
ATOM     15  N   UNL     1      -6.281  17.396  69.759  0.00  0.00    -0.182 NA
ATOM     16  C   UNL     1      -5.225  17.336  70.620  0.00  0.00    +0.313 A 
ATOM     17  F   UNL     1      -4.186  16.455  70.447  0.00  0.00    -0.161 F 
ATOM     18  N   UNL     1      -5.029  18.442  71.388  0.00  0.00    -0.181 NA
ENDBRANCH   1  13
BRANCH   6  19
ATOM     19  C   UNL     1     -10.993  16.347  68.432  0.00  0.00    +0.186 C 
BRANCH  19  20
ATOM     20  O   UNL     1     -11.957  16.341  69.279  0.00  0.00    -0.268 OA
BRANCH  20  21
ATOM     21  P   UNL     1     -12.146  15.221  70.454  0.00  0.00    +0.533 P 
ATOM     22  O   UNL     1     -13.676  15.670  71.062  0.00  0.00    -0.115 OA
ATOM     23  O   UNL     1     -12.197  13.729  69.651  0.00  0.00    -0.115 OA
ATOM     24  O   UNL     1     -11.179  15.191  71.582  0.00  0.00    -0.222 OA
ENDBRANCH  20  21
ENDBRANCH  19  20
ENDBRANCH   6  19
TORSDOF 4
ENDMDL
MODEL 5
REMARK VINA RESULT:      -6.6      4.352      6.724
REMARK  Name = 
REMARK  4 active torsions:
REMARK  status: ('A' for Active; 'I' for Inactive)
REMARK    1  A    between atoms: N_11  and  C_12
REMARK    2  A    between atoms: C_14  and  C_15
REMARK    3  A    between atoms: C_15  and  O_16
REMARK    4  A    between atoms: O_16  and  P_17
REMARK                            x       y       z     vdW  Elec       q    Type
REMARK                         _______ _______ _______ _____ _____    ______ ____
ROOT
ATOM      1  C   UNL     1     -11.204  15.387  68.590  0.00  0.00    +0.241 C 
ATOM      2  C   UNL     1      -9.629  16.071  68.522  0.00  0.00    +0.234 C 
ATOM      3  O   UNL     1      -8.869  14.836  68.140  0.00  0.00    -0.216 OA
ATOM      4  C   UNL     1      -9.894  16.513  66.915  0.00  0.00    +0.216 C 
ATOM      5  O   UNL     1     -10.829  17.596  67.386  0.00  0.00    -0.218 OA
ATOM      6  C   UNL     1     -11.230  15.477  66.651  0.00  0.00    +0.180 C 
ATOM      7  O   UNL     1     -10.780  14.354  67.563  0.00  0.00    -0.331 OA
ENDROOT
BRANCH   1  13
ATOM      8  N   UNL     1     -14.519  13.812  72.328  0.00  0.00    -0.105 NA
ATOM      9  C   UNL     1     -13.487  13.280  71.873  0.00  0.00    +0.194 A 
ATOM     10  C   UNL     1     -12.457  14.119  71.442  0.00  0.00    +0.152 A 
ATOM     11  N   UNL     1     -11.969  15.302  71.769  0.00  0.00    -0.219 NA
ATOM     12  C   UNL     1     -10.874  15.514  70.993  0.00  0.00    +0.182 A 
ATOM     13  N   UNL     1     -10.844  14.647  69.937  0.00  0.00    -0.269 N 
ATOM     14  C   UNL     1     -11.813  13.757  70.260  0.00  0.00    +0.171 A 
ATOM     15  N   UNL     1     -11.803  12.467  69.896  0.00  0.00    -0.182 NA
ATOM     16  C   UNL     1     -12.269  11.543  70.785  0.00  0.00    +0.313 A 
ATOM     17  F   UNL     1     -11.532  10.447  71.158  0.00  0.00    -0.161 F 
ATOM     18  N   UNL     1     -13.279  11.963  71.594  0.00  0.00    -0.181 NA
ENDBRANCH   1  13
BRANCH   6  19
ATOM     19  C   UNL     1     -10.447  14.982  65.299  0.00  0.00    +0.186 C 
BRANCH  19  20
ATOM     20  O   UNL     1     -10.632  13.741  65.027  0.00  0.00    -0.268 OA
BRANCH  20  21
ATOM     21  P   UNL     1     -11.948  13.152  64.257  0.00  0.00    +0.533 P 
ATOM     22  O   UNL     1     -12.553  14.581  63.548  0.00  0.00    -0.115 OA
ATOM     23  O   UNL     1     -11.346  12.074  63.095  0.00  0.00    -0.115 OA
ATOM     24  O   UNL     1     -13.032  12.527  65.060  0.00  0.00    -0.222 OA
ENDBRANCH  20  21
ENDBRANCH  19  20
ENDBRANCH   6  19
TORSDOF 4
ENDMDL
MODEL 6
REMARK VINA RESULT:      -6.5      5.660      7.250
REMARK  Name = 
REMARK  4 active torsions:
REMARK  status: ('A' for Active; 'I' for Inactive)
REMARK    1  A    between atoms: N_11  and  C_12
REMARK    2  A    between atoms: C_14  and  C_15
REMARK    3  A    between atoms: C_15  and  O_16
REMARK    4  A    between atoms: O_16  and  P_17
REMARK                            x       y       z     vdW  Elec       q    Type
REMARK                         _______ _______ _______ _____ _____    ______ ____
ROOT
ATOM      1  C   UNL     1      -6.025  17.915  68.196  0.00  0.00    +0.241 C 
ATOM      2  C   UNL     1      -4.750  17.845  67.045  0.00  0.00    +0.234 C 
ATOM      3  O   UNL     1      -4.960  19.184  66.403  0.00  0.00    -0.216 OA
ATOM      4  C   UNL     1      -3.682  18.465  68.196  0.00  0.00    +0.216 C 
ATOM      5  O   UNL     1      -3.710  17.139  68.909  0.00  0.00    -0.218 OA
ATOM      6  C   UNL     1      -4.879  19.063  69.263  0.00  0.00    +0.180 C 
ATOM      7  O   UNL     1      -5.905  19.427  68.209  0.00  0.00    -0.331 OA
ENDROOT
BRANCH   1  13
ATOM      8  N   UNL     1     -11.114  16.819  68.774  0.00  0.00    -0.105 NA
ATOM      9  C   UNL     1     -10.523  17.547  67.952  0.00  0.00    +0.194 A 
ATOM     10  C   UNL     1      -9.240  17.168  67.551  0.00  0.00    +0.152 A 
ATOM     11  N   UNL     1      -8.575  16.041  67.367  0.00  0.00    -0.219 NA
ATOM     12  C   UNL     1      -7.354  16.373  66.871  0.00  0.00    +0.182 A 
ATOM     13  N   UNL     1      -7.092  17.701  67.053  0.00  0.00    -0.269 N 
ATOM     14  C   UNL     1      -8.297  18.188  67.436  0.00  0.00    +0.171 A 
ATOM     15  N   UNL     1      -8.720  19.436  67.188  0.00  0.00    -0.182 NA
ATOM     16  C   UNL     1     -10.036  19.622  66.884  0.00  0.00    +0.313 A 
ATOM     17  F   UNL     1     -10.442  20.291  65.756  0.00  0.00    -0.161 F 
ATOM     18  N   UNL     1     -10.906  18.770  67.493  0.00  0.00    -0.181 NA
ENDBRANCH   1  13
BRANCH   6  19
ATOM     19  C   UNL     1      -4.044  20.473  69.245  0.00  0.00    +0.186 C 
BRANCH  19  20
ATOM     20  O   UNL     1      -4.425  21.305  70.145  0.00  0.00    -0.268 OA
BRANCH  20  21
ATOM     21  P   UNL     1      -4.636  20.927  71.720  0.00  0.00    +0.533 P 
ATOM     22  O   UNL     1      -4.452  22.466  72.433  0.00  0.00    -0.115 OA
ATOM     23  O   UNL     1      -6.230  20.361  71.839  0.00  0.00    -0.115 OA
ATOM     24  O   UNL     1      -3.683  19.988  72.370  0.00  0.00    -0.222 OA
ENDBRANCH  20  21
ENDBRANCH  19  20
ENDBRANCH   6  19
TORSDOF 4
ENDMDL
MODEL 7
REMARK VINA RESULT:      -6.5      3.919      5.828
REMARK  Name = 
REMARK  4 active torsions:
REMARK  status: ('A' for Active; 'I' for Inactive)
REMARK    1  A    between atoms: N_11  and  C_12
REMARK    2  A    between atoms: C_14  and  C_15
REMARK    3  A    between atoms: C_15  and  O_16
REMARK    4  A    between atoms: O_16  and  P_17
REMARK                            x       y       z     vdW  Elec       q    Type
REMARK                         _______ _______ _______ _____ _____    ______ ____
ROOT
ATOM      1  C   UNL     1      -8.582  18.197  68.006  0.00  0.00    +0.241 C 
ATOM      2  C   UNL     1      -8.897  18.983  66.510  0.00  0.00    +0.234 C 
ATOM      3  O   UNL     1      -8.183  18.024  65.604  0.00  0.00    -0.216 OA
ATOM      4  C   UNL     1     -10.360  18.151  66.386  0.00  0.00    +0.216 C 
ATOM      5  O   UNL     1     -10.928  19.023  67.474  0.00  0.00    -0.218 OA
ATOM      6  C   UNL     1      -9.993  16.945  67.544  0.00  0.00    +0.180 C 
ATOM      7  O   UNL     1      -8.504  16.871  67.272  0.00  0.00    -0.331 OA
ENDROOT
BRANCH   1  13
ATOM      8  N   UNL     1      -5.271  18.679  72.037  0.00  0.00    -0.105 NA
ATOM      9  C   UNL     1      -5.086  18.281  70.870  0.00  0.00    +0.194 A 
ATOM     10  C   UNL     1      -5.851  18.859  69.855  0.00  0.00    +0.152 A 
ATOM     11  N   UNL     1      -6.398  20.035  69.603  0.00  0.00    -0.219 NA
ATOM     12  C   UNL     1      -6.953  19.963  68.364  0.00  0.00    +0.182 A 
ATOM     13  N   UNL     1      -7.075  18.665  67.955  0.00  0.00    -0.269 N 
ATOM     14  C   UNL     1      -6.342  17.996  68.877  0.00  0.00    +0.171 A 
ATOM     15  N   UNL     1      -5.684  16.853  68.633  0.00  0.00    -0.182 NA
ATOM     16  C   UNL     1      -4.470  16.669  69.225  0.00  0.00    +0.313 A 
ATOM     17  F   UNL     1      -3.345  16.344  68.509  0.00  0.00    -0.161 F 
ATOM     18  N   UNL     1      -4.326  17.228  70.458  0.00  0.00    -0.181 NA
ENDBRANCH   1  13
BRANCH   6  19
ATOM     19  C   UNL     1     -10.472  15.859  66.414  0.00  0.00    +0.186 C 
BRANCH  19  20
ATOM     20  O   UNL     1     -11.193  14.911  66.890  0.00  0.00    -0.268 OA
BRANCH  20  21
ATOM     21  P   UNL     1     -11.895  13.744  65.988  0.00  0.00    +0.533 P 
ATOM     22  O   UNL     1     -10.697  13.516  64.795  0.00  0.00    -0.115 OA
ATOM     23  O   UNL     1     -12.031  12.401  67.013  0.00  0.00    -0.115 OA
ATOM     24  O   UNL     1     -13.186  14.035  65.311  0.00  0.00    -0.222 OA
ENDBRANCH  20  21
ENDBRANCH  19  20
ENDBRANCH   6  19
TORSDOF 4
ENDMDL
MODEL 8
REMARK VINA RESULT:      -6.4      1.790      2.369
REMARK  Name = 
REMARK  4 active torsions:
REMARK  status: ('A' for Active; 'I' for Inactive)
REMARK    1  A    between atoms: N_11  and  C_12
REMARK    2  A    between atoms: C_14  and  C_15
REMARK    3  A    between atoms: C_15  and  O_16
REMARK    4  A    between atoms: O_16  and  P_17
REMARK                            x       y       z     vdW  Elec       q    Type
REMARK                         _______ _______ _______ _____ _____    ______ ____
ROOT
ATOM      1  C   UNL     1     -10.013  16.304  67.994  0.00  0.00    +0.241 C 
ATOM      2  C   UNL     1      -9.819  14.601  67.862  0.00  0.00    +0.234 C 
ATOM      3  O   UNL     1      -8.875  14.397  69.009  0.00  0.00    -0.216 OA
ATOM      4  C   UNL     1     -11.184  14.375  68.829  0.00  0.00    +0.216 C 
ATOM      5  O   UNL     1     -12.050  14.815  67.678  0.00  0.00    -0.218 OA
ATOM      6  C   UNL     1     -11.230  15.962  69.468  0.00  0.00    +0.180 C 
ATOM      7  O   UNL     1      -9.733  16.201  69.482  0.00  0.00    -0.331 OA
ENDROOT
BRANCH   1  13
ATOM      8  N   UNL     1      -7.562  20.879  67.284  0.00  0.00    -0.105 NA
ATOM      9  C   UNL     1      -7.133  19.773  67.669  0.00  0.00    +0.194 A 
ATOM     10  C   UNL     1      -7.731  18.625  67.145  0.00  0.00    +0.152 A 
ATOM     11  N   UNL     1      -8.298  18.258  66.009  0.00  0.00    -0.219 NA
ATOM     12  C   UNL     1      -8.603  16.939  66.120  0.00  0.00    +0.182 A 
ATOM     13  N   UNL     1      -8.558  16.531  67.423  0.00  0.00    -0.269 N 
ATOM     14  C   UNL     1      -7.969  17.583  68.040  0.00  0.00    +0.171 A 
ATOM     15  N   UNL     1      -7.201  17.482  69.136  0.00  0.00    -0.182 NA
ATOM     16  C   UNL     1      -6.111  18.295  69.236  0.00  0.00    +0.313 A 
ATOM     17  F   UNL     1      -4.852  17.808  69.483  0.00  0.00    -0.161 F 
ATOM     18  N   UNL     1      -6.240  19.525  68.667  0.00  0.00    -0.181 NA
ENDBRANCH   1  13
BRANCH   6  19
ATOM     19  C   UNL     1     -11.347  15.254  70.941  0.00  0.00    +0.186 C 
BRANCH  19  20
ATOM     20  O   UNL     1     -11.924  15.992  71.819  0.00  0.00    -0.268 OA
BRANCH  20  21
ATOM     21  P   UNL     1     -13.089  15.472  72.838  0.00  0.00    +0.533 P 
ATOM     22  O   UNL     1     -12.743  16.424  74.212  0.00  0.00    -0.115 OA
ATOM     23  O   UNL     1     -14.556  15.918  72.113  0.00  0.00    -0.115 OA
ATOM     24  O   UNL     1     -13.105  14.043  73.246  0.00  0.00    -0.222 OA
ENDBRANCH  20  21
ENDBRANCH  19  20
ENDBRANCH   6  19
TORSDOF 4
ENDMDL
MODEL 9
REMARK VINA RESULT:      -6.4      4.594      6.642
REMARK  Name = 
REMARK  4 active torsions:
REMARK  status: ('A' for Active; 'I' for Inactive)
REMARK    1  A    between atoms: N_11  and  C_12
REMARK    2  A    between atoms: C_14  and  C_15
REMARK    3  A    between atoms: C_15  and  O_16
REMARK    4  A    between atoms: O_16  and  P_17
REMARK                            x       y       z     vdW  Elec       q    Type
REMARK                         _______ _______ _______ _____ _____    ______ ____
ROOT
ATOM      1  C   UNL     1      -8.853  17.761  66.837  0.00  0.00    +0.241 C 
ATOM      2  C   UNL     1      -9.471  19.337  66.542  0.00  0.00    +0.234 C 
ATOM      3  O   UNL     1      -9.979  19.636  67.921  0.00  0.00    -0.216 OA
ATOM      4  C   UNL     1      -7.948  19.990  66.863  0.00  0.00    +0.216 C 
ATOM      5  O   UNL     1      -7.459  19.450  65.546  0.00  0.00    -0.218 OA
ATOM      6  C   UNL     1      -7.316  18.614  67.661  0.00  0.00    +0.180 C 
ATOM      7  O   UNL     1      -8.615  18.146  68.285  0.00  0.00    -0.331 OA
ENDROOT
BRANCH   1  13
ATOM      8  N   UNL     1     -10.273  12.878  68.098  0.00  0.00    -0.105 NA
ATOM      9  C   UNL     1     -10.799  13.977  68.365  0.00  0.00    +0.194 A 
ATOM     10  C   UNL     1     -10.685  15.000  67.421  0.00  0.00    +0.152 A 
ATOM     11  N   UNL     1     -10.614  15.103  66.105  0.00  0.00    -0.219 NA
ATOM     12  C   UNL     1     -10.603  16.428  65.806  0.00  0.00    +0.182 A 
ATOM     13  N   UNL     1     -10.320  17.180  66.910  0.00  0.00    -0.269 N 
ATOM     14  C   UNL     1     -10.419  16.276  67.915  0.00  0.00    +0.171 A 
ATOM     15  N   UNL     1     -10.794  16.578  69.166  0.00  0.00    -0.182 NA
ATOM     16  C   UNL     1     -11.575  15.684  69.838  0.00  0.00    +0.313 A 
ATOM     17  F   UNL     1     -12.764  16.041  70.423  0.00  0.00    -0.161 F 
ATOM     18  N   UNL     1     -11.355  14.373  69.543  0.00  0.00    -0.181 NA
ENDBRANCH   1  13
BRANCH   6  19
ATOM     19  C   UNL     1      -6.863  19.641  68.854  0.00  0.00    +0.186 C 
BRANCH  19  20
ATOM     20  O   UNL     1      -6.292  19.056  69.844  0.00  0.00    -0.268 OA
BRANCH  20  21
ATOM     21  P   UNL     1      -5.017  19.664  70.664  0.00  0.00    +0.533 P 
ATOM     22  O   UNL     1      -3.729  19.037  69.737  0.00  0.00    -0.115 OA
ATOM     23  O   UNL     1      -5.145  21.348  70.513  0.00  0.00    -0.115 OA
ATOM     24  O   UNL     1      -4.817  19.266  72.082  0.00  0.00    -0.222 OA
ENDBRANCH  20  21
ENDBRANCH  19  20
ENDBRANCH   6  19
TORSDOF 4
ENDMDL
