MODEL 1
REMARK VINA RESULT:      -6.2      0.000      0.000
REMARK  Name = 
REMARK  6 active torsions:
REMARK  status: ('A' for Active; 'I' for Inactive)
REMARK    1  A    between atoms: C_2  and  N_5
REMARK    2  A    between atoms: N_5  and  C_6
REMARK    3  A    between atoms: C_6  and  C_7
REMARK    4  A    between atoms: C_7  and  C_9
REMARK    5  A    between atoms: C_9  and  O_10
REMARK    6  A    between atoms: O_10  and  C_11
REMARK                            x       y       z     vdW  Elec       q    Type
REMARK                         _______ _______ _______ _____ _____    ______ ____
ROOT
ATOM      1  C   UNL     1     -11.013  12.988  68.444  0.00  0.00    +0.266 A 
ATOM      2  C   UNL     1     -11.564  12.299  67.370  0.00  0.00    +0.195 A 
ATOM      3  N   UNL     1     -11.630  12.785  66.022  0.00  0.00    -0.284 N 
ATOM      4  C   UNL     1     -12.512  13.914  65.732  0.00  0.00    +0.124 C 
ATOM      5  C   UNL     1     -12.345  14.404  64.330  0.00  0.00    +0.164 C 
ATOM      6  O   UNL     1     -12.295  13.411  63.375  0.00  0.00    -0.350 OA
ATOM      7  C   UNL     1     -12.614  12.194  63.949  0.00  0.00    +0.164 C 
ATOM      8  C   UNL     1     -11.471  11.859  64.901  0.00  0.00    +0.124 C 
ATOM      9  N   UNL     1     -11.643  10.975  67.660  0.00  0.00    -0.172 NA
ATOM     10  S   UNL     1     -11.993  11.006  69.315  0.00  0.00    +0.121 S 
ATOM     11  N   UNL     1     -11.643  12.642  69.594  0.00  0.00    -0.153 NA
ENDROOT
BRANCH   1  12
ATOM     12  O   UNL     1     -10.017  13.969  68.363  0.00  0.00    -0.455 OA
BRANCH  12  13
ATOM     13  C   UNL     1     -10.086  15.110  69.216  0.00  0.00    +0.241 C 
BRANCH  13  14
ATOM     14  C   UNL     1     -11.168  15.999  68.341  0.00  0.00    +0.213 C 
ATOM     15  O   UNL     1     -12.017  16.289  69.567  0.00  0.00    -0.218 OA
BRANCH  14  16
ATOM     16  C   UNL     1     -10.282  17.376  68.523  0.00  0.00    +0.125 C 
BRANCH  16  17
ATOM     17  N   UNL     1     -10.907  18.385  67.726  0.00  0.00    -0.218 NA
BRANCH  17  19
ATOM     18  C   UNL     1     -10.547  19.595  65.897  0.00  0.00    +0.017 C 
ATOM     19  C   UNL     1      -9.922  19.097  66.927  0.00  0.00    +0.060 C 
ATOM     20  C   UNL     1      -8.826  18.141  66.478  0.00  0.00    +0.017 C 
ATOM     21  C   UNL     1      -9.272  20.143  67.803  0.00  0.00    +0.017 C 
ENDBRANCH  17  19
ENDBRANCH  16  17
ENDBRANCH  14  16
ENDBRANCH  13  14
ENDBRANCH  12  13
ENDBRANCH   1  12
TORSDOF 6
ENDMDL
MODEL 2
REMARK VINA RESULT:      -6.1      2.438      3.977
REMARK  Name = 
REMARK  6 active torsions:
REMARK  status: ('A' for Active; 'I' for Inactive)
REMARK    1  A    between atoms: C_2  and  N_5
REMARK    2  A    between atoms: N_5  and  C_6
REMARK    3  A    between atoms: C_6  and  C_7
REMARK    4  A    between atoms: C_7  and  C_9
REMARK    5  A    between atoms: C_9  and  O_10
REMARK    6  A    between atoms: O_10  and  C_11
REMARK                            x       y       z     vdW  Elec       q    Type
REMARK                         _______ _______ _______ _____ _____    ______ ____
ROOT
ATOM      1  C   UNL     1     -11.200  12.837  68.302  0.00  0.00    +0.266 A 
ATOM      2  C   UNL     1     -11.513  12.173  67.122  0.00  0.00    +0.195 A 
ATOM      3  N   UNL     1     -11.622  12.788  65.831  0.00  0.00    -0.284 N 
ATOM      4  C   UNL     1     -12.731  13.709  65.590  0.00  0.00    +0.124 C 
ATOM      5  C   UNL     1     -12.612  14.389  64.264  0.00  0.00    +0.164 C 
ATOM      6  O   UNL     1     -12.276  13.555  63.219  0.00  0.00    -0.350 OA
ATOM      7  C   UNL     1     -12.327  12.237  63.637  0.00  0.00    +0.164 C 
ATOM      8  C   UNL     1     -11.189  12.064  64.636  0.00  0.00    +0.124 C 
ATOM      9  N   UNL     1     -11.291  10.841  67.266  0.00  0.00    -0.172 NA
ATOM     10  S   UNL     1     -11.724  10.594  68.884  0.00  0.00    +0.121 S 
ATOM     11  N   UNL     1     -11.789  12.221  69.356  0.00  0.00    -0.153 NA
ENDROOT
BRANCH   1  12
ATOM     12  O   UNL     1     -10.463  14.024  68.402  0.00  0.00    -0.455 OA
BRANCH  12  13
ATOM     13  C   UNL     1     -11.149  15.275  68.428  0.00  0.00    +0.241 C 
BRANCH  13  14
ATOM     14  C   UNL     1     -10.531  15.858  69.844  0.00  0.00    +0.213 C 
ATOM     15  O   UNL     1     -10.745  17.300  69.416  0.00  0.00    -0.218 OA
BRANCH  14  16
ATOM     16  C   UNL     1     -11.996  15.774  70.593  0.00  0.00    +0.125 C 
BRANCH  16  17
ATOM     17  N   UNL     1     -11.957  14.641  71.464  0.00  0.00    -0.218 NA
BRANCH  17  19
ATOM     18  C   UNL     1     -13.495  13.346  72.408  0.00  0.00    +0.017 C 
ATOM     19  C   UNL     1     -13.140  14.596  72.308  0.00  0.00    +0.060 C 
ATOM     20  C   UNL     1     -14.256  15.422  71.685  0.00  0.00    +0.017 C 
ATOM     21  C   UNL     1     -12.797  15.234  73.634  0.00  0.00    +0.017 C 
ENDBRANCH  17  19
ENDBRANCH  16  17
ENDBRANCH  14  16
ENDBRANCH  13  14
ENDBRANCH  12  13
ENDBRANCH   1  12
TORSDOF 6
ENDMDL
MODEL 3
REMARK VINA RESULT:      -6.0      3.196      6.377
REMARK  Name = 
REMARK  6 active torsions:
REMARK  status: ('A' for Active; 'I' for Inactive)
REMARK    1  A    between atoms: C_2  and  N_5
REMARK    2  A    between atoms: N_5  and  C_6
REMARK    3  A    between atoms: C_6  and  C_7
REMARK    4  A    between atoms: C_7  and  C_9
REMARK    5  A    between atoms: C_9  and  O_10
REMARK    6  A    between atoms: O_10  and  C_11
REMARK                            x       y       z     vdW  Elec       q    Type
REMARK                         _______ _______ _______ _____ _____    ______ ____
ROOT
ATOM      1  C   UNL     1     -10.967  14.887  68.745  0.00  0.00    +0.266 A 
ATOM      2  C   UNL     1     -11.400  15.643  69.827  0.00  0.00    +0.195 A 
ATOM      3  N   UNL     1     -12.001  15.115  71.018  0.00  0.00    -0.284 N 
ATOM      4  C   UNL     1     -13.332  14.519  70.920  0.00  0.00    +0.124 C 
ATOM      5  C   UNL     1     -13.747  13.871  72.201  0.00  0.00    +0.164 C 
ATOM      6  O   UNL     1     -13.497  14.619  73.332  0.00  0.00    -0.350 OA
ATOM      7  C   UNL     1     -13.095  15.893  72.971  0.00  0.00    +0.164 C 
ATOM      8  C   UNL     1     -11.728  15.736  72.314  0.00  0.00    +0.124 C 
ATOM      9  N   UNL     1     -10.812  16.867  69.803  0.00  0.00    -0.172 NA
ATOM     10  S   UNL     1     -10.724  17.172  68.140  0.00  0.00    +0.121 S 
ATOM     11  N   UNL     1     -11.078  15.604  67.599  0.00  0.00    -0.153 NA
ENDROOT
BRANCH   1  12
ATOM     12  O   UNL     1     -10.561  13.547  68.793  0.00  0.00    -0.455 OA
BRANCH  12  13
ATOM     13  C   UNL     1     -11.525  12.515  68.592  0.00  0.00    +0.241 C 
BRANCH  13  14
ATOM     14  C   UNL     1     -10.505  11.337  68.047  0.00  0.00    +0.213 C 
ATOM     15  O   UNL     1     -11.660  10.427  67.664  0.00  0.00    -0.218 OA
BRANCH  14  16
ATOM     16  C   UNL     1     -10.427  12.011  66.545  0.00  0.00    +0.125 C 
BRANCH  16  17
ATOM     17  N   UNL     1     -11.732  11.907  65.971  0.00  0.00    -0.218 NA
BRANCH  17  19
ATOM     18  C   UNL     1     -12.804  13.712  65.243  0.00  0.00    +0.017 C 
ATOM     19  C   UNL     1     -11.894  12.853  64.879  0.00  0.00    +0.060 C 
ATOM     20  C   UNL     1     -12.324  12.120  63.615  0.00  0.00    +0.017 C 
ATOM     21  C   UNL     1     -10.549  13.482  64.596  0.00  0.00    +0.017 C 
ENDBRANCH  17  19
ENDBRANCH  16  17
ENDBRANCH  14  16
ENDBRANCH  13  14
ENDBRANCH  12  13
ENDBRANCH   1  12
TORSDOF 6
ENDMDL
MODEL 4
REMARK VINA RESULT:      -6.0      3.132      4.847
REMARK  Name = 
REMARK  6 active torsions:
REMARK  status: ('A' for Active; 'I' for Inactive)
REMARK    1  A    between atoms: C_2  and  N_5
REMARK    2  A    between atoms: N_5  and  C_6
REMARK    3  A    between atoms: C_6  and  C_7
REMARK    4  A    between atoms: C_7  and  C_9
REMARK    5  A    between atoms: C_9  and  O_10
REMARK    6  A    between atoms: O_10  and  C_11
REMARK                            x       y       z     vdW  Elec       q    Type
REMARK                         _______ _______ _______ _____ _____    ______ ____
ROOT
ATOM      1  C   UNL     1      -9.444  14.756  67.376  0.00  0.00    +0.266 A 
ATOM      2  C   UNL     1     -10.044  14.861  66.126  0.00  0.00    +0.195 A 
ATOM      3  N   UNL     1     -11.026  13.956  65.602  0.00  0.00    -0.284 N 
ATOM      4  C   UNL     1     -10.612  12.594  65.273  0.00  0.00    +0.124 C 
ATOM      5  C   UNL     1     -11.775  11.734  64.898  0.00  0.00    +0.164 C 
ATOM      6  O   UNL     1     -12.670  12.324  64.031  0.00  0.00    -0.350 OA
ATOM      7  C   UNL     1     -12.151  13.518  63.563  0.00  0.00    +0.164 C 
ATOM      8  C   UNL     1     -12.111  14.462  64.761  0.00  0.00    +0.124 C 
ATOM      9  N   UNL     1      -9.905  16.125  65.650  0.00  0.00    -0.172 NA
ATOM     10  S   UNL     1      -8.376  16.548  66.239  0.00  0.00    +0.121 S 
ATOM     11  N   UNL     1      -8.190  15.270  67.337  0.00  0.00    -0.153 NA
ENDROOT
BRANCH   1  12
ATOM     12  O   UNL     1      -9.999  14.130  68.500  0.00  0.00    -0.455 OA
BRANCH  12  13
ATOM     13  C   UNL     1     -11.262  14.571  68.995  0.00  0.00    +0.241 C 
BRANCH  13  14
ATOM     14  C   UNL     1     -10.740  15.887  69.845  0.00  0.00    +0.213 C 
ATOM     15  O   UNL     1     -11.405  16.853  68.880  0.00  0.00    -0.218 OA
BRANCH  14  16
ATOM     16  C   UNL     1     -12.053  15.844  70.841  0.00  0.00    +0.125 C 
BRANCH  16  17
ATOM     17  N   UNL     1     -12.388  14.468  71.033  0.00  0.00    -0.218 NA
BRANCH  17  19
ATOM     18  C   UNL     1     -13.579  13.043  72.252  0.00  0.00    +0.017 C 
ATOM     19  C   UNL     1     -13.388  14.321  72.079  0.00  0.00    +0.060 C 
ATOM     20  C   UNL     1     -14.682  15.005  71.662  0.00  0.00    +0.017 C 
ATOM     21  C   UNL     1     -12.885  15.029  73.315  0.00  0.00    +0.017 C 
ENDBRANCH  17  19
ENDBRANCH  16  17
ENDBRANCH  14  16
ENDBRANCH  13  14
ENDBRANCH  12  13
ENDBRANCH   1  12
TORSDOF 6
ENDMDL
MODEL 5
REMARK VINA RESULT:      -5.9      3.245      5.199
REMARK  Name = 
REMARK  6 active torsions:
REMARK  status: ('A' for Active; 'I' for Inactive)
REMARK    1  A    between atoms: C_2  and  N_5
REMARK    2  A    between atoms: N_5  and  C_6
REMARK    3  A    between atoms: C_6  and  C_7
REMARK    4  A    between atoms: C_7  and  C_9
REMARK    5  A    between atoms: C_9  and  O_10
REMARK    6  A    between atoms: O_10  and  C_11
REMARK                            x       y       z     vdW  Elec       q    Type
REMARK                         _______ _______ _______ _____ _____    ______ ____
ROOT
ATOM      1  C   UNL     1     -11.035  15.706  68.627  0.00  0.00    +0.266 A 
ATOM      2  C   UNL     1     -11.778  14.894  69.476  0.00  0.00    +0.195 A 
ATOM      3  N   UNL     1     -12.375  15.315  70.711  0.00  0.00    -0.284 N 
ATOM      4  C   UNL     1     -11.497  15.656  71.828  0.00  0.00    +0.124 C 
ATOM      5  C   UNL     1     -12.258  16.230  72.979  0.00  0.00    +0.164 C 
ATOM      6  O   UNL     1     -13.414  15.551  73.300  0.00  0.00    -0.350 OA
ATOM      7  C   UNL     1     -13.477  14.369  72.583  0.00  0.00    +0.164 C 
ATOM      8  C   UNL     1     -13.667  14.767  71.123  0.00  0.00    +0.124 C 
ATOM      9  N   UNL     1     -12.215  13.798  68.805  0.00  0.00    -0.172 NA
ATOM     10  S   UNL     1     -10.920  13.499  67.756  0.00  0.00    +0.121 S 
ATOM     11  N   UNL     1     -10.106  14.970  67.971  0.00  0.00    -0.153 NA
ENDROOT
BRANCH   1  12
ATOM     12  O   UNL     1     -11.150  17.098  68.519  0.00  0.00    -0.455 OA
BRANCH  12  13
ATOM     13  C   UNL     1      -9.996  17.914  68.711  0.00  0.00    +0.241 C 
BRANCH  13  14
ATOM     14  C   UNL     1      -9.900  18.554  67.192  0.00  0.00    +0.213 C 
ATOM     15  O   UNL     1     -11.175  19.360  67.384  0.00  0.00    -0.218 OA
BRANCH  14  16
ATOM     16  C   UNL     1      -8.940  19.792  67.705  0.00  0.00    +0.125 C 
BRANCH  16  17
ATOM     17  N   UNL     1      -8.084  19.264  68.720  0.00  0.00    -0.218 NA
BRANCH  17  19
ATOM     18  C   UNL     1      -6.235  20.050  69.670  0.00  0.00    +0.017 C 
ATOM     19  C   UNL     1      -6.709  19.690  68.510  0.00  0.00    +0.060 C 
ATOM     20  C   UNL     1      -6.669  20.855  67.530  0.00  0.00    +0.017 C 
ATOM     21  C   UNL     1      -5.952  18.546  67.877  0.00  0.00    +0.017 C 
ENDBRANCH  17  19
ENDBRANCH  16  17
ENDBRANCH  14  16
ENDBRANCH  13  14
ENDBRANCH  12  13
ENDBRANCH   1  12
TORSDOF 6
ENDMDL
MODEL 6
REMARK VINA RESULT:      -5.9      4.026      7.267
REMARK  Name = 
REMARK  6 active torsions:
REMARK  status: ('A' for Active; 'I' for Inactive)
REMARK    1  A    between atoms: C_2  and  N_5
REMARK    2  A    between atoms: N_5  and  C_6
REMARK    3  A    between atoms: C_6  and  C_7
REMARK    4  A    between atoms: C_7  and  C_9
REMARK    5  A    between atoms: C_9  and  O_10
REMARK    6  A    between atoms: O_10  and  C_11
REMARK                            x       y       z     vdW  Elec       q    Type
REMARK                         _______ _______ _______ _____ _____    ______ ____
ROOT
ATOM      1  C   UNL     1     -10.116  18.445  68.115  0.00  0.00    +0.266 A 
ATOM      2  C   UNL     1      -8.885  18.539  67.477  0.00  0.00    +0.195 A 
ATOM      3  N   UNL     1      -7.613  18.290  68.093  0.00  0.00    -0.284 N 
ATOM      4  C   UNL     1      -7.140  19.222  69.115  0.00  0.00    +0.124 C 
ATOM      5  C   UNL     1      -5.889  18.738  69.773  0.00  0.00    +0.164 C 
ATOM      6  O   UNL     1      -4.934  18.251  68.906  0.00  0.00    -0.350 OA
ATOM      7  C   UNL     1      -5.307  18.519  67.601  0.00  0.00    +0.164 C 
ATOM      8  C   UNL     1      -6.538  17.663  67.325  0.00  0.00    +0.124 C 
ATOM      9  N   UNL     1      -9.053  18.481  66.131  0.00  0.00    -0.172 NA
ATOM     10  S   UNL     1     -10.523  19.297  65.934  0.00  0.00    +0.121 S 
ATOM     11  N   UNL     1     -10.996  19.316  67.562  0.00  0.00    -0.153 NA
ENDROOT
BRANCH   1  12
ATOM     12  O   UNL     1     -10.403  17.643  69.227  0.00  0.00    -0.455 OA
BRANCH  12  13
ATOM     13  C   UNL     1     -10.252  16.228  69.128  0.00  0.00    +0.241 C 
BRANCH  13  14
ATOM     14  C   UNL     1     -11.851  15.818  69.104  0.00  0.00    +0.213 C 
ATOM     15  O   UNL     1     -11.534  14.332  69.078  0.00  0.00    -0.218 OA
BRANCH  14  16
ATOM     16  C   UNL     1     -11.951  15.854  70.749  0.00  0.00    +0.125 C 
BRANCH  16  17
ATOM     17  N   UNL     1     -12.153  14.508  71.185  0.00  0.00    -0.218 NA
BRANCH  17  19
ATOM     18  C   UNL     1     -13.570  13.182  72.267  0.00  0.00    +0.017 C 
ATOM     19  C   UNL     1     -13.231  14.436  72.159  0.00  0.00    +0.060 C 
ATOM     20  C   UNL     1     -14.414  15.272  71.689  0.00  0.00    +0.017 C 
ATOM     21  C   UNL     1     -12.740  15.043  73.452  0.00  0.00    +0.017 C 
ENDBRANCH  17  19
ENDBRANCH  16  17
ENDBRANCH  14  16
ENDBRANCH  13  14
ENDBRANCH  12  13
ENDBRANCH   1  12
TORSDOF 6
ENDMDL
MODEL 7
REMARK VINA RESULT:      -5.8      3.238      5.011
REMARK  Name = 
REMARK  6 active torsions:
REMARK  status: ('A' for Active; 'I' for Inactive)
REMARK    1  A    between atoms: C_2  and  N_5
REMARK    2  A    between atoms: N_5  and  C_6
REMARK    3  A    between atoms: C_6  and  C_7
REMARK    4  A    between atoms: C_7  and  C_9
REMARK    5  A    between atoms: C_9  and  O_10
REMARK    6  A    between atoms: O_10  and  C_11
REMARK                            x       y       z     vdW  Elec       q    Type
REMARK                         _______ _______ _______ _____ _____    ______ ____
ROOT
ATOM      1  C   UNL     1     -10.801  13.922  66.858  0.00  0.00    +0.266 A 
ATOM      2  C   UNL     1     -10.974  12.584  66.523  0.00  0.00    +0.195 A 
ATOM      3  N   UNL     1     -10.205  11.493  67.049  0.00  0.00    -0.284 N 
ATOM      4  C   UNL     1      -8.796  11.391  66.673  0.00  0.00    +0.124 C 
ATOM      5  C   UNL     1      -8.097  10.306  67.428  0.00  0.00    +0.164 C 
ATOM      6  O   UNL     1      -8.793   9.119  67.506  0.00  0.00    -0.350 OA
ATOM      7  C   UNL     1      -9.903   9.172  66.682  0.00  0.00    +0.164 C 
ATOM      8  C   UNL     1     -10.843  10.201  67.299  0.00  0.00    +0.124 C 
ATOM      9  N   UNL     1     -12.203  12.398  65.978  0.00  0.00    -0.172 NA
ATOM     10  S   UNL     1     -12.422  13.843  65.124  0.00  0.00    +0.121 S 
ATOM     11  N   UNL     1     -11.141  14.714  65.812  0.00  0.00    -0.153 NA
ENDROOT
BRANCH   1  12
ATOM     12  O   UNL     1     -10.266  14.401  68.061  0.00  0.00    -0.455 OA
BRANCH  12  13
ATOM     13  C   UNL     1     -11.050  14.339  69.251  0.00  0.00    +0.241 C 
BRANCH  13  14
ATOM     14  C   UNL     1     -10.758  15.864  69.811  0.00  0.00    +0.213 C 
ATOM     15  O   UNL     1     -11.939  16.438  69.045  0.00  0.00    -0.218 OA
BRANCH  14  16
ATOM     16  C   UNL     1     -11.655  15.607  71.169  0.00  0.00    +0.125 C 
BRANCH  16  17
ATOM     17  N   UNL     1     -12.959  15.207  70.740  0.00  0.00    -0.218 NA
BRANCH  17  19
ATOM     18  C   UNL     1     -15.039  15.128  71.518  0.00  0.00    +0.017 C 
ATOM     19  C   UNL     1     -13.808  14.900  71.880  0.00  0.00    +0.060 C 
ATOM     20  C   UNL     1     -13.426  15.777  73.064  0.00  0.00    +0.017 C 
ATOM     21  C   UNL     1     -13.553  13.466  72.285  0.00  0.00    +0.017 C 
ENDBRANCH  17  19
ENDBRANCH  16  17
ENDBRANCH  14  16
ENDBRANCH  13  14
ENDBRANCH  12  13
ENDBRANCH   1  12
TORSDOF 6
ENDMDL
MODEL 8
REMARK VINA RESULT:      -5.8      3.160      5.542
REMARK  Name = 
REMARK  6 active torsions:
REMARK  status: ('A' for Active; 'I' for Inactive)
REMARK    1  A    between atoms: C_2  and  N_5
REMARK    2  A    between atoms: N_5  and  C_6
REMARK    3  A    between atoms: C_6  and  C_7
REMARK    4  A    between atoms: C_7  and  C_9
REMARK    5  A    between atoms: C_9  and  O_10
REMARK    6  A    between atoms: O_10  and  C_11
REMARK                            x       y       z     vdW  Elec       q    Type
REMARK                         _______ _______ _______ _____ _____    ______ ____
ROOT
ATOM      1  C   UNL     1     -11.521  14.722  66.554  0.00  0.00    +0.266 A 
ATOM      2  C   UNL     1     -10.312  15.167  66.033  0.00  0.00    +0.195 A 
ATOM      3  N   UNL     1      -9.546  16.267  66.544  0.00  0.00    -0.284 N 
ATOM      4  C   UNL     1     -10.087  17.617  66.404  0.00  0.00    +0.124 C 
ATOM      5  C   UNL     1      -9.258  18.628  67.128  0.00  0.00    +0.164 C 
ATOM      6  O   UNL     1      -7.899  18.495  66.942  0.00  0.00    -0.350 OA
ATOM      7  C   UNL     1      -7.650  17.559  65.954  0.00  0.00    +0.164 C 
ATOM      8  C   UNL     1      -8.084  16.214  66.524  0.00  0.00    +0.124 C 
ATOM      9  N   UNL     1      -9.750  14.195  65.269  0.00  0.00    -0.172 NA
ATOM     10  S   UNL     1     -11.114  13.474  64.573  0.00  0.00    +0.121 S 
ATOM     11  N   UNL     1     -12.285  14.187  65.569  0.00  0.00    -0.153 NA
ENDROOT
BRANCH   1  12
ATOM     12  O   UNL     1     -11.948  14.876  67.879  0.00  0.00    -0.455 OA
BRANCH  12  13
ATOM     13  C   UNL     1     -11.258  14.190  68.922  0.00  0.00    +0.241 C 
BRANCH  13  14
ATOM     14  C   UNL     1     -10.793  15.504  69.807  0.00  0.00    +0.213 C 
ATOM     15  O   UNL     1     -11.952  16.341  69.289  0.00  0.00    -0.218 OA
BRANCH  14  16
ATOM     16  C   UNL     1     -11.640  14.995  71.126  0.00  0.00    +0.125 C 
BRANCH  16  17
ATOM     17  N   UNL     1     -13.017  14.950  70.748  0.00  0.00    -0.218 NA
BRANCH  17  19
ATOM     18  C   UNL     1     -15.079  15.117  71.559  0.00  0.00    +0.017 C 
ATOM     19  C   UNL     1     -13.870  14.786  71.915  0.00  0.00    +0.060 C 
ATOM     20  C   UNL     1     -13.380  15.679  73.046  0.00  0.00    +0.017 C 
ATOM     21  C   UNL     1     -13.750  13.356  72.389  0.00  0.00    +0.017 C 
ENDBRANCH  17  19
ENDBRANCH  16  17
ENDBRANCH  14  16
ENDBRANCH  13  14
ENDBRANCH  12  13
ENDBRANCH   1  12
TORSDOF 6
ENDMDL
MODEL 9
REMARK VINA RESULT:      -5.6      2.253      6.341
REMARK  Name = 
REMARK  6 active torsions:
REMARK  status: ('A' for Active; 'I' for Inactive)
REMARK    1  A    between atoms: C_2  and  N_5
REMARK    2  A    between atoms: N_5  and  C_6
REMARK    3  A    between atoms: C_6  and  C_7
REMARK    4  A    between atoms: C_7  and  C_9
REMARK    5  A    between atoms: C_9  and  O_10
REMARK    6  A    between atoms: O_10  and  C_11
REMARK                            x       y       z     vdW  Elec       q    Type
REMARK                         _______ _______ _______ _____ _____    ______ ____
ROOT
ATOM      1  C   UNL     1     -10.334  15.143  67.842  0.00  0.00    +0.266 A 
ATOM      2  C   UNL     1     -10.454  16.505  68.089  0.00  0.00    +0.195 A 
ATOM      3  N   UNL     1      -9.872  17.545  67.290  0.00  0.00    -0.284 N 
ATOM      4  C   UNL     1      -8.418  17.688  67.285  0.00  0.00    +0.124 C 
ATOM      5  C   UNL     1      -7.961  18.699  66.284  0.00  0.00    +0.164 C 
ATOM      6  O   UNL     1      -8.687  19.871  66.278  0.00  0.00    -0.350 OA
ATOM      7  C   UNL     1      -9.552  19.891  67.358  0.00  0.00    +0.164 C 
ATOM      8  C   UNL     1     -10.588  18.805  67.093  0.00  0.00    +0.124 C 
ATOM      9  N   UNL     1     -11.511  16.737  68.908  0.00  0.00    -0.172 NA
ATOM     10  S   UNL     1     -11.469  15.378  69.916  0.00  0.00    +0.121 S 
ATOM     11  N   UNL     1     -10.378  14.451  69.007  0.00  0.00    -0.153 NA
ENDROOT
BRANCH   1  12
ATOM     12  O   UNL     1     -10.106  14.555  66.591  0.00  0.00    -0.455 OA
BRANCH  12  13
ATOM     13  C   UNL     1     -11.088  14.687  65.565  0.00  0.00    +0.241 C 
BRANCH  13  14
ATOM     14  C   UNL     1     -12.307  13.843  66.291  0.00  0.00    +0.213 C 
ATOM     15  O   UNL     1     -13.217  13.998  65.083  0.00  0.00    -0.218 OA
BRANCH  14  16
ATOM     16  C   UNL     1     -11.711  12.401  65.762  0.00  0.00    +0.125 C 
BRANCH  16  17
ATOM     17  N   UNL     1     -11.639  11.536  66.898  0.00  0.00    -0.218 NA
BRANCH  17  19
ATOM     18  C   UNL     1     -10.771   9.568  67.455  0.00  0.00    +0.017 C 
ATOM     19  C   UNL     1     -10.478  10.664  66.813  0.00  0.00    +0.060 C 
ATOM     20  C   UNL     1      -9.269  11.345  67.437  0.00  0.00    +0.017 C 
ATOM     21  C   UNL     1     -10.162  10.442  65.352  0.00  0.00    +0.017 C 
ENDBRANCH  17  19
ENDBRANCH  16  17
ENDBRANCH  14  16
ENDBRANCH  13  14
ENDBRANCH  12  13
ENDBRANCH   1  12
TORSDOF 6
ENDMDL
