MODEL 1
REMARK VINA RESULT:      -5.8      0.000      0.000
REMARK  Name = 
REMARK  2 active torsions:
REMARK  status: ('A' for Active; 'I' for Inactive)
REMARK    1  A    between atoms: C_7  and  C_8
REMARK    2  A    between atoms: C_8  and  N_9
REMARK                            x       y       z     vdW  Elec       q    Type
REMARK                         _______ _______ _______ _____ _____    ______ ____
ROOT
ATOM      1  N   UNL     1     -10.971  15.653  68.987  0.00  0.00    -0.265 NA
ATOM      2  C   UNL     1     -11.129  16.312  70.235  0.00  0.00    +0.100 C 
ATOM      3  C   UNL     1     -11.970  15.570  71.214  0.00  0.00    -0.004 A 
ATOM      4  C   UNL     1     -12.295  14.228  71.054  0.00  0.00    +0.006 A 
ATOM      5  S   UNL     1     -13.670  14.121  72.079  0.00  0.00    -0.091 S 
ATOM      6  C   UNL     1     -13.543  15.646  72.862  0.00  0.00    +0.035 A 
ATOM      7  C   UNL     1     -11.851  13.534  69.803  0.00  0.00    +0.050 C 
ATOM      8  C   UNL     1     -12.237  15.973  72.516  0.00  0.00    +0.004 A 
ATOM      9  C   UNL     1     -11.901  14.595  68.711  0.00  0.00    +0.078 C 
ENDROOT
BRANCH   1  10
ATOM     10  C   UNL     1     -11.093  16.626  67.925  0.00  0.00    +0.100 C 
BRANCH  10  13
ATOM     11 CL   UNL     1      -8.569  15.612  66.516  0.00  0.00    -0.083 Cl
ATOM     12  C   UNL     1      -8.820  17.247  67.053  0.00  0.00    +0.055 A 
ATOM     13  C   UNL     1      -9.913  17.543  67.857  0.00  0.00    +0.004 A 
ATOM     14  C   UNL     1     -10.071  18.890  68.161  0.00  0.00    -0.002 A 
ATOM     15  C   UNL     1      -9.516  19.897  67.394  0.00  0.00    -0.000 A 
ATOM     16  C   UNL     1      -8.525  19.571  66.478  0.00  0.00    +0.001 A 
ATOM     17  C   UNL     1      -8.133  18.252  66.396  0.00  0.00    +0.011 A 
ENDBRANCH  10  13
ENDBRANCH   1  10
TORSDOF 2
ENDMDL
MODEL 2
REMARK VINA RESULT:      -5.7      2.905      4.255
REMARK  Name = 
REMARK  2 active torsions:
REMARK  status: ('A' for Active; 'I' for Inactive)
REMARK    1  A    between atoms: C_7  and  C_8
REMARK    2  A    between atoms: C_8  and  N_9
REMARK                            x       y       z     vdW  Elec       q    Type
REMARK                         _______ _______ _______ _____ _____    ______ ____
ROOT
ATOM      1  N   UNL     1     -10.942  14.497  68.605  0.00  0.00    -0.265 NA
ATOM      2  C   UNL     1     -12.031  13.903  69.295  0.00  0.00    +0.100 C 
ATOM      3  C   UNL     1     -12.387  14.582  70.570  0.00  0.00    -0.004 A 
ATOM      4  C   UNL     1     -11.929  15.854  70.892  0.00  0.00    +0.006 A 
ATOM      5  S   UNL     1     -12.146  15.836  72.598  0.00  0.00    -0.091 S 
ATOM      6  C   UNL     1     -13.074  14.396  72.736  0.00  0.00    +0.035 A 
ATOM      7  C   UNL     1     -10.970  16.522  69.956  0.00  0.00    +0.050 C 
ATOM      8  C   UNL     1     -13.440  14.229  71.405  0.00  0.00    +0.004 A 
ATOM      9  C   UNL     1     -10.126  15.397  69.369  0.00  0.00    +0.078 C 
ENDROOT
BRANCH   1  10
ATOM     10  C   UNL     1     -10.080  13.451  68.102  0.00  0.00    +0.100 C 
BRANCH  10  13
ATOM     11 CL   UNL     1     -11.167  10.725  67.224  0.00  0.00    -0.083 Cl
ATOM     12  C   UNL     1     -10.958  12.097  66.176  0.00  0.00    +0.055 A 
ATOM     13  C   UNL     1     -10.270  13.212  66.638  0.00  0.00    +0.004 A 
ATOM     14  C   UNL     1     -10.232  14.285  65.756  0.00  0.00    -0.002 A 
ATOM     15  C   UNL     1     -11.151  14.445  64.736  0.00  0.00    -0.000 A 
ATOM     16  C   UNL     1     -11.947  13.366  64.379  0.00  0.00    +0.001 A 
ATOM     17  C   UNL     1     -11.764  12.179  65.055  0.00  0.00    +0.011 A 
ENDBRANCH  10  13
ENDBRANCH   1  10
TORSDOF 2
ENDMDL
MODEL 3
REMARK VINA RESULT:      -5.6      4.664      6.675
REMARK  Name = 
REMARK  2 active torsions:
REMARK  status: ('A' for Active; 'I' for Inactive)
REMARK    1  A    between atoms: C_7  and  C_8
REMARK    2  A    between atoms: C_8  and  N_9
REMARK                            x       y       z     vdW  Elec       q    Type
REMARK                         _______ _______ _______ _____ _____    ______ ____
ROOT
ATOM      1  N   UNL     1     -11.662  12.469  68.585  0.00  0.00    -0.265 NA
ATOM      2  C   UNL     1     -12.031  13.151  67.396  0.00  0.00    +0.100 C 
ATOM      3  C   UNL     1     -11.537  12.510  66.147  0.00  0.00    -0.004 A 
ATOM      4  C   UNL     1     -11.052  11.207  66.118  0.00  0.00    +0.006 A 
ATOM      5  S   UNL     1     -10.139  11.252  64.663  0.00  0.00    -0.091 S 
ATOM      6  C   UNL     1     -10.684  12.762  64.049  0.00  0.00    +0.035 A 
ATOM      7  C   UNL     1     -10.945  10.460  67.411  0.00  0.00    +0.050 C 
ATOM      8  C   UNL     1     -11.800  12.949  64.856  0.00  0.00    +0.004 A 
ATOM      9  C   UNL     1     -10.601  11.511  68.459  0.00  0.00    +0.078 C 
ENDROOT
BRANCH   1  10
ATOM     10  C   UNL     1     -11.255  13.440  69.575  0.00  0.00    +0.100 C 
BRANCH  10  13
ATOM     11 CL   UNL     1     -12.780  11.416  71.296  0.00  0.00    -0.083 Cl
ATOM     12  C   UNL     1     -13.005  13.140  71.353  0.00  0.00    +0.055 A 
ATOM     13  C   UNL     1     -12.408  13.940  70.388  0.00  0.00    +0.004 A 
ATOM     14  C   UNL     1     -12.578  15.307  70.571  0.00  0.00    -0.002 A 
ATOM     15  C   UNL     1     -12.886  15.862  71.799  0.00  0.00    -0.000 A 
ATOM     16  C   UNL     1     -13.340  15.031  72.813  0.00  0.00    +0.001 A 
ATOM     17  C   UNL     1     -13.478  13.688  72.532  0.00  0.00    +0.011 A 
ENDBRANCH  10  13
ENDBRANCH   1  10
TORSDOF 2
ENDMDL
MODEL 4
REMARK VINA RESULT:      -5.6      3.790      5.253
REMARK  Name = 
REMARK  2 active torsions:
REMARK  status: ('A' for Active; 'I' for Inactive)
REMARK    1  A    between atoms: C_7  and  C_8
REMARK    2  A    between atoms: C_8  and  N_9
REMARK                            x       y       z     vdW  Elec       q    Type
REMARK                         _______ _______ _______ _____ _____    ______ ____
ROOT
ATOM      1  N   UNL     1     -10.331  14.958  66.263  0.00  0.00    -0.265 NA
ATOM      2  C   UNL     1     -10.818  14.585  64.983  0.00  0.00    +0.100 C 
ATOM      3  C   UNL     1     -10.783  13.120  64.720  0.00  0.00    -0.004 A 
ATOM      4  C   UNL     1     -10.607  12.185  65.733  0.00  0.00    +0.006 A 
ATOM      5  S   UNL     1     -10.077  10.833  64.812  0.00  0.00    -0.091 S 
ATOM      6  C   UNL     1     -10.419  11.429  63.237  0.00  0.00    +0.035 A 
ATOM      7  C   UNL     1     -10.357  12.681  67.123  0.00  0.00    +0.050 C 
ATOM      8  C   UNL     1     -11.245  12.496  63.569  0.00  0.00    +0.004 A 
ATOM      9  C   UNL     1      -9.558  13.968  66.957  0.00  0.00    +0.078 C 
ENDROOT
BRANCH   1  10
ATOM     10  C   UNL     1      -9.504  16.136  66.124  0.00  0.00    +0.100 C 
BRANCH  10  13
ATOM     11 CL   UNL     1      -9.228  16.556  69.146  0.00  0.00    -0.083 Cl
ATOM     12  C   UNL     1      -9.876  17.726  68.034  0.00  0.00    +0.055 A 
ATOM     13  C   UNL     1     -10.139  17.351  66.722  0.00  0.00    +0.004 A 
ATOM     14  C   UNL     1     -10.573  18.378  65.893  0.00  0.00    -0.002 A 
ATOM     15  C   UNL     1     -10.332  19.711  66.169  0.00  0.00    -0.000 A 
ATOM     16  C   UNL     1      -9.919  20.065  67.446  0.00  0.00    +0.001 A 
ATOM     17  C   UNL     1      -9.789  19.062  68.382  0.00  0.00    +0.011 A 
ENDBRANCH  10  13
ENDBRANCH   1  10
TORSDOF 2
ENDMDL
MODEL 5
REMARK VINA RESULT:      -5.6      1.448      2.119
REMARK  Name = 
REMARK  2 active torsions:
REMARK  status: ('A' for Active; 'I' for Inactive)
REMARK    1  A    between atoms: C_7  and  C_8
REMARK    2  A    between atoms: C_8  and  N_9
REMARK                            x       y       z     vdW  Elec       q    Type
REMARK                         _______ _______ _______ _____ _____    ______ ____
ROOT
ATOM      1  N   UNL     1     -10.950  15.283  69.029  0.00  0.00    -0.265 NA
ATOM      2  C   UNL     1     -11.085  16.039  70.223  0.00  0.00    +0.100 C 
ATOM      3  C   UNL     1     -11.988  15.426  71.235  0.00  0.00    -0.004 A 
ATOM      4  C   UNL     1     -12.395  14.099  71.165  0.00  0.00    +0.006 A 
ATOM      5  S   UNL     1     -13.792  14.153  72.166  0.00  0.00    -0.091 S 
ATOM      6  C   UNL     1     -13.579  15.720  72.840  0.00  0.00    +0.035 A 
ATOM      7  C   UNL     1     -11.977  13.289  69.976  0.00  0.00    +0.050 C 
ATOM      8  C   UNL     1     -12.249  15.938  72.499  0.00  0.00    +0.004 A 
ATOM      9  C   UNL     1     -11.942  14.269  68.810  0.00  0.00    +0.078 C 
ENDROOT
BRANCH   1  10
ATOM     10  C   UNL     1     -10.992  16.183  67.899  0.00  0.00    +0.100 C 
BRANCH  10  13
ATOM     11 CL   UNL     1      -9.823  18.970  68.398  0.00  0.00    -0.083 Cl
ATOM     12  C   UNL     1      -8.944  17.628  67.725  0.00  0.00    +0.055 A 
ATOM     13  C   UNL     1      -9.629  16.477  67.357  0.00  0.00    +0.004 A 
ATOM     14  C   UNL     1      -8.827  15.434  66.910  0.00  0.00    -0.002 A 
ATOM     15  C   UNL     1      -7.484  15.339  67.225  0.00  0.00    -0.000 A 
ATOM     16  C   UNL     1      -6.837  16.454  67.739  0.00  0.00    +0.001 A 
ATOM     17  C   UNL     1      -7.571  17.611  67.890  0.00  0.00    +0.011 A 
ENDBRANCH  10  13
ENDBRANCH   1  10
TORSDOF 2
ENDMDL
MODEL 6
REMARK VINA RESULT:      -5.5      5.682      8.957
REMARK  Name = 
REMARK  2 active torsions:
REMARK  status: ('A' for Active; 'I' for Inactive)
REMARK    1  A    between atoms: C_7  and  C_8
REMARK    2  A    between atoms: C_8  and  N_9
REMARK                            x       y       z     vdW  Elec       q    Type
REMARK                         _______ _______ _______ _____ _____    ______ ____
ROOT
ATOM      1  N   UNL     1     -11.217   9.819  69.163  0.00  0.00    -0.265 NA
ATOM      2  C   UNL     1     -11.772  11.048  68.718  0.00  0.00    +0.100 C 
ATOM      3  C   UNL     1     -11.281  11.490  67.384  0.00  0.00    -0.004 A 
ATOM      4  C   UNL     1     -10.609  10.638  66.516  0.00  0.00    +0.006 A 
ATOM      5  S   UNL     1      -9.824  11.787  65.506  0.00  0.00    -0.091 S 
ATOM      6  C   UNL     1     -10.634  13.208  66.033  0.00  0.00    +0.035 A 
ATOM      7  C   UNL     1     -10.295   9.251  66.983  0.00  0.00    +0.050 C 
ATOM      8  C   UNL     1     -11.703  12.627  66.706  0.00  0.00    +0.004 A 
ATOM      9  C   UNL     1     -10.036   9.376  68.479  0.00  0.00    +0.078 C 
ENDROOT
BRANCH   1  10
ATOM     10  C   UNL     1     -10.889   9.935  70.566  0.00  0.00    +0.100 C 
BRANCH  10  13
ATOM     11 CL   UNL     1     -13.255  11.325  71.929  0.00  0.00    -0.083 Cl
ATOM     12  C   UNL     1     -12.993   9.605  71.900  0.00  0.00    +0.055 A 
ATOM     13  C   UNL     1     -11.785   9.105  71.430  0.00  0.00    +0.004 A 
ATOM     14  C   UNL     1     -11.708   7.719  71.368  0.00  0.00    -0.002 A 
ATOM     15  C   UNL     1     -12.829   6.911  71.317  0.00  0.00    -0.000 A 
ATOM     16  C   UNL     1     -14.062   7.458  71.643  0.00  0.00    +0.001 A 
ATOM     17  C   UNL     1     -14.099   8.784  72.019  0.00  0.00    +0.011 A 
ENDBRANCH  10  13
ENDBRANCH   1  10
TORSDOF 2
ENDMDL
MODEL 7
REMARK VINA RESULT:      -5.5      2.820      4.066
REMARK  Name = 
REMARK  2 active torsions:
REMARK  status: ('A' for Active; 'I' for Inactive)
REMARK    1  A    between atoms: C_7  and  C_8
REMARK    2  A    between atoms: C_8  and  N_9
REMARK                            x       y       z     vdW  Elec       q    Type
REMARK                         _______ _______ _______ _____ _____    ______ ____
ROOT
ATOM      1  N   UNL     1     -10.244  15.942  67.886  0.00  0.00    -0.265 NA
ATOM      2  C   UNL     1     -10.486  15.974  66.488  0.00  0.00    +0.100 C 
ATOM      3  C   UNL     1     -11.220  14.787  65.969  0.00  0.00    -0.004 A 
ATOM      4  C   UNL     1     -11.892  13.902  66.803  0.00  0.00    +0.006 A 
ATOM      5  S   UNL     1     -11.999  12.530  65.772  0.00  0.00    -0.091 S 
ATOM      6  C   UNL     1     -11.496  13.260  64.300  0.00  0.00    +0.035 A 
ATOM      7  C   UNL     1     -11.794  14.107  68.284  0.00  0.00    +0.050 C 
ATOM      8  C   UNL     1     -11.621  14.599  64.652  0.00  0.00    +0.004 A 
ATOM      9  C   UNL     1     -10.397  14.666  68.524  0.00  0.00    +0.078 C 
ENDROOT
BRANCH   1  10
ATOM     10  C   UNL     1      -8.895  16.395  68.138  0.00  0.00    +0.100 C 
BRANCH  10  13
ATOM     11 CL   UNL     1      -7.026  17.508  65.981  0.00  0.00    -0.083 Cl
ATOM     12  C   UNL     1      -8.116  18.463  66.942  0.00  0.00    +0.055 A 
ATOM     13  C   UNL     1      -8.763  17.881  68.024  0.00  0.00    +0.004 A 
ATOM     14  C   UNL     1      -9.676  18.703  68.674  0.00  0.00    -0.002 A 
ATOM     15  C   UNL     1     -10.250  19.805  68.069  0.00  0.00    -0.000 A 
ATOM     16  C   UNL     1      -9.687  20.293  66.898  0.00  0.00    +0.001 A 
ATOM     17  C   UNL     1      -8.566  19.658  66.409  0.00  0.00    +0.011 A 
ENDBRANCH  10  13
ENDBRANCH   1  10
TORSDOF 2
ENDMDL
MODEL 8
REMARK VINA RESULT:      -5.5      3.571      6.077
REMARK  Name = 
REMARK  2 active torsions:
REMARK  status: ('A' for Active; 'I' for Inactive)
REMARK    1  A    between atoms: C_7  and  C_8
REMARK    2  A    between atoms: C_8  and  N_9
REMARK                            x       y       z     vdW  Elec       q    Type
REMARK                         _______ _______ _______ _____ _____    ______ ____
ROOT
ATOM      1  N   UNL     1     -11.045  14.626  67.272  0.00  0.00    -0.265 NA
ATOM      2  C   UNL     1     -10.179  15.381  66.437  0.00  0.00    +0.100 C 
ATOM      3  C   UNL     1      -9.748  16.680  67.021  0.00  0.00    -0.004 A 
ATOM      4  C   UNL     1      -9.902  16.980  68.370  0.00  0.00    +0.006 A 
ATOM      5  S   UNL     1      -9.803  18.695  68.316  0.00  0.00    -0.091 S 
ATOM      6  C   UNL     1      -9.265  18.883  66.694  0.00  0.00    +0.035 A 
ATOM      7  C   UNL     1     -10.608  15.988  69.242  0.00  0.00    +0.050 C 
ATOM      8  C   UNL     1      -8.868  17.578  66.430  0.00  0.00    +0.004 A 
ATOM      9  C   UNL     1     -11.662  15.343  68.351  0.00  0.00    +0.078 C 
ENDROOT
BRANCH   1  10
ATOM     10  C   UNL     1     -12.103  14.064  66.462  0.00  0.00    +0.100 C 
BRANCH  10  13
ATOM     11 CL   UNL     1     -12.135  13.236  63.513  0.00  0.00    -0.083 Cl
ATOM     12  C   UNL     1     -11.646  12.210  64.830  0.00  0.00    +0.055 A 
ATOM     13  C   UNL     1     -11.865  12.623  66.138  0.00  0.00    +0.004 A 
ATOM     14  C   UNL     1     -11.362  11.773  67.115  0.00  0.00    -0.002 A 
ATOM     15  C   UNL     1     -10.351  10.864  66.864  0.00  0.00    -0.000 A 
ATOM     16  C   UNL     1     -10.032  10.567  65.546  0.00  0.00    +0.001 A 
ATOM     17  C   UNL     1     -10.759  11.185  64.552  0.00  0.00    +0.011 A 
ENDBRANCH  10  13
ENDBRANCH   1  10
TORSDOF 2
ENDMDL
MODEL 9
REMARK VINA RESULT:      -5.4      5.043      5.692
REMARK  Name = 
REMARK  2 active torsions:
REMARK  status: ('A' for Active; 'I' for Inactive)
REMARK    1  A    between atoms: C_7  and  C_8
REMARK    2  A    between atoms: C_8  and  N_9
REMARK                            x       y       z     vdW  Elec       q    Type
REMARK                         _______ _______ _______ _____ _____    ______ ____
ROOT
ATOM      1  N   UNL     1     -10.910  10.845  68.749  0.00  0.00    -0.265 NA
ATOM      2  C   UNL     1     -12.032  11.057  69.592  0.00  0.00    +0.100 C 
ATOM      3  C   UNL     1     -12.072  10.169  70.787  0.00  0.00    -0.004 A 
ATOM      4  C   UNL     1     -10.967   9.443  71.214  0.00  0.00    +0.006 A 
ATOM      5  S   UNL     1     -11.741   8.244  72.174  0.00  0.00    -0.091 S 
ATOM      6  C   UNL     1     -13.320   8.921  72.229  0.00  0.00    +0.035 A 
ATOM      7  C   UNL     1      -9.721   9.492  70.386  0.00  0.00    +0.050 C 
ATOM      8  C   UNL     1     -13.034  10.208  71.788  0.00  0.00    +0.004 A 
ATOM      9  C   UNL     1     -10.197   9.615  68.944  0.00  0.00    +0.078 C 
ENDROOT
BRANCH   1  10
ATOM     10  C   UNL     1     -11.347  10.880  67.371  0.00  0.00    +0.100 C 
BRANCH  10  13
ATOM     11 CL   UNL     1      -9.133  10.971  65.256  0.00  0.00    -0.083 Cl
ATOM     12  C   UNL     1     -10.232  12.274  65.602  0.00  0.00    +0.055 A 
ATOM     13  C   UNL     1     -11.058  12.194  66.716  0.00  0.00    +0.004 A 
ATOM     14  C   UNL     1     -11.957  13.244  66.857  0.00  0.00    -0.002 A 
ATOM     15  C   UNL     1     -12.344  14.042  65.796  0.00  0.00    -0.000 A 
ATOM     16  C   UNL     1     -11.599  14.004  64.626  0.00  0.00    +0.001 A 
ATOM     17  C   UNL     1     -10.495  13.180  64.591  0.00  0.00    +0.011 A 
ENDBRANCH  10  13
ENDBRANCH   1  10
TORSDOF 2
ENDMDL
