MODEL 1
REMARK VINA RESULT:      -5.5      0.000      0.000
REMARK  Name = 
REMARK  5 active torsions:
REMARK  status: ('A' for Active; 'I' for Inactive)
REMARK    1  A    between atoms: C_2  and  C_3
REMARK    2  A    between atoms: C_3  and  C_4
REMARK    3  A    between atoms: C_4  and  C_5
REMARK    4  A    between atoms: C_5  and  C_7
REMARK    5  A    between atoms: C_7  and  C_8
REMARK                            x       y       z     vdW  Elec       q    Type
REMARK                         _______ _______ _______ _____ _____    ______ ____
ROOT
ATOM      1  C   UNL     1     -11.285  12.807  65.754  0.00  0.00    +0.145 C 
ATOM      2  C   UNL     1     -12.478  13.326  65.078  0.00  0.00    +0.257 C 
ATOM      3  O   UNL     1     -13.409  12.506  64.820  0.00  0.00    -0.272 OA
ATOM      4  N   UNL     1     -12.559  14.567  64.394  0.00  0.00    -0.125 NA
ATOM      5  C   UNL     1     -11.510  15.490  64.583  0.00  0.00    +0.352 C 
ATOM      6  O   UNL     1     -11.471  16.554  63.900  0.00  0.00    -0.248 OA
ATOM      7  N   UNL     1     -10.331  15.039  65.194  0.00  0.00    -0.125 NA
ATOM      8  C   UNL     1     -10.085  13.683  65.581  0.00  0.00    +0.257 C 
ATOM      9  O   UNL     1      -9.156  13.579  66.442  0.00  0.00    -0.272 OA
ENDROOT
BRANCH   1  10
ATOM     10  C   UNL     1     -10.977  11.450  64.912  0.00  0.00    +0.017 C 
ATOM     11  C   UNL     1      -9.753  10.953  65.868  0.00  0.00    +0.001 C 
BRANCH  10  12
ATOM     12  C   UNL     1      -9.966  12.210  63.882  0.00  0.00    +0.001 C 
BRANCH  12  13
ATOM     13  C   UNL     1      -9.894  11.152  62.785  0.00  0.00    +0.000 C 
ATOM     14  C   UNL     1      -8.488  11.001  62.263  0.00  0.00    +0.000 C 
ENDBRANCH  12  13
ENDBRANCH  10  12
ENDBRANCH   1  10
BRANCH   1  15
ATOM     15  C   UNL     1     -11.437  12.507  67.190  0.00  0.00    +0.044 C 
BRANCH  15  17
ATOM     16  C   UNL     1     -11.810  14.241  68.757  0.00  0.00    -0.005 C 
ATOM     17  C   UNL     1     -12.086  13.592  67.954  0.00  0.00    -0.025 C 
ENDBRANCH  15  17
ENDBRANCH   1  15
TORSDOF 5
ENDMDL
MODEL 2
REMARK VINA RESULT:      -5.3      0.901      4.294
REMARK  Name = 
REMARK  5 active torsions:
REMARK  status: ('A' for Active; 'I' for Inactive)
REMARK    1  A    between atoms: C_2  and  C_3
REMARK    2  A    between atoms: C_3  and  C_4
REMARK    3  A    between atoms: C_4  and  C_5
REMARK    4  A    between atoms: C_5  and  C_7
REMARK    5  A    between atoms: C_7  and  C_8
REMARK                            x       y       z     vdW  Elec       q    Type
REMARK                         _______ _______ _______ _____ _____    ______ ____
ROOT
ATOM      1  C   UNL     1     -10.689  13.257  66.116  0.00  0.00    +0.145 C 
ATOM      2  C   UNL     1      -9.745  14.354  65.879  0.00  0.00    +0.257 C 
ATOM      3  O   UNL     1      -8.682  14.371  66.569  0.00  0.00    -0.272 OA
ATOM      4  N   UNL     1     -10.046  15.565  65.203  0.00  0.00    -0.125 NA
ATOM      5  C   UNL     1     -11.256  15.630  64.481  0.00  0.00    +0.352 C 
ATOM      6  O   UNL     1     -11.630  16.724  63.969  0.00  0.00    -0.248 OA
ATOM      7  N   UNL     1     -12.211  14.624  64.694  0.00  0.00    -0.125 NA
ATOM      8  C   UNL     1     -12.076  13.566  65.648  0.00  0.00    +0.257 C 
ATOM      9  O   UNL     1     -12.843  12.584  65.403  0.00  0.00    -0.272 OA
ENDROOT
BRANCH   1  10
ATOM     10  C   UNL     1     -10.761  13.211  67.739  0.00  0.00    +0.017 C 
ATOM     11  C   UNL     1     -11.641  11.841  67.814  0.00  0.00    +0.001 C 
BRANCH  10  12
ATOM     12  C   UNL     1     -12.087  14.158  67.798  0.00  0.00    +0.001 C 
BRANCH  12  13
ATOM     13  C   UNL     1     -11.747  14.978  69.039  0.00  0.00    +0.000 C 
ATOM     14  C   UNL     1     -11.191  16.329  68.667  0.00  0.00    +0.000 C 
ENDBRANCH  12  13
ENDBRANCH  10  12
ENDBRANCH   1  10
BRANCH   1  15
ATOM     15  C   UNL     1     -10.299  11.942  65.572  0.00  0.00    +0.044 C 
BRANCH  15  17
ATOM     16  C   UNL     1     -10.173  11.645  63.228  0.00  0.00    -0.005 C 
ATOM     17  C   UNL     1      -9.825  11.999  64.174  0.00  0.00    -0.025 C 
ENDBRANCH  15  17
ENDBRANCH   1  15
TORSDOF 5
ENDMDL
MODEL 3
REMARK VINA RESULT:      -5.0      2.428      5.118
REMARK  Name = 
REMARK  5 active torsions:
REMARK  status: ('A' for Active; 'I' for Inactive)
REMARK    1  A    between atoms: C_2  and  C_3
REMARK    2  A    between atoms: C_3  and  C_4
REMARK    3  A    between atoms: C_4  and  C_5
REMARK    4  A    between atoms: C_5  and  C_7
REMARK    5  A    between atoms: C_7  and  C_8
REMARK                            x       y       z     vdW  Elec       q    Type
REMARK                         _______ _______ _______ _____ _____    ______ ____
ROOT
ATOM      1  C   UNL     1     -10.489  15.042  67.228  0.00  0.00    +0.145 C 
ATOM      2  C   UNL     1     -10.128  15.596  65.920  0.00  0.00    +0.257 C 
ATOM      3  O   UNL     1      -9.240  16.499  65.891  0.00  0.00    -0.272 OA
ATOM      4  N   UNL     1     -10.895  15.464  64.733  0.00  0.00    -0.125 NA
ATOM      5  C   UNL     1     -11.948  14.527  64.733  0.00  0.00    +0.352 C 
ATOM      6  O   UNL     1     -12.739  14.462  63.748  0.00  0.00    -0.248 OA
ATOM      7  N   UNL     1     -12.358  13.989  65.962  0.00  0.00    -0.125 NA
ATOM      8  C   UNL     1     -11.828  14.376  67.234  0.00  0.00    +0.257 C 
ATOM      9  O   UNL     1     -12.049  13.513  68.140  0.00  0.00    -0.272 OA
ENDROOT
BRANCH   1  10
ATOM     10  C   UNL     1     -10.648  16.381  68.137  0.00  0.00    +0.017 C 
ATOM     11  C   UNL     1      -9.494  15.972  69.214  0.00  0.00    +0.001 C 
BRANCH  10  12
ATOM     12  C   UNL     1     -11.836  15.733  69.046  0.00  0.00    +0.001 C 
BRANCH  12  13
ATOM     13  C   UNL     1     -11.320  16.113  70.431  0.00  0.00    +0.000 C 
ATOM     14  C   UNL     1     -12.346  15.823  71.496  0.00  0.00    +0.000 C 
ENDBRANCH  12  13
ENDBRANCH  10  12
ENDBRANCH   1  10
BRANCH   1  15
ATOM     15  C   UNL     1      -9.509  14.116  67.829  0.00  0.00    +0.044 C 
BRANCH  15  17
ATOM     16  C   UNL     1      -8.918  12.110  66.724  0.00  0.00    -0.005 C 
ATOM     17  C   UNL     1      -8.921  13.170  66.860  0.00  0.00    -0.025 C 
ENDBRANCH  15  17
ENDBRANCH   1  15
TORSDOF 5
ENDMDL
MODEL 4
REMARK VINA RESULT:      -5.0      3.004      4.215
REMARK  Name = 
REMARK  5 active torsions:
REMARK  status: ('A' for Active; 'I' for Inactive)
REMARK    1  A    between atoms: C_2  and  C_3
REMARK    2  A    between atoms: C_3  and  C_4
REMARK    3  A    between atoms: C_4  and  C_5
REMARK    4  A    between atoms: C_5  and  C_7
REMARK    5  A    between atoms: C_7  and  C_8
REMARK                            x       y       z     vdW  Elec       q    Type
REMARK                         _______ _______ _______ _____ _____    ______ ____
ROOT
ATOM      1  C   UNL     1     -10.326  15.705  67.651  0.00  0.00    +0.145 C 
ATOM      2  C   UNL     1     -10.769  16.892  68.388  0.00  0.00    +0.257 C 
ATOM      3  O   UNL     1     -11.375  16.707  69.486  0.00  0.00    -0.272 OA
ATOM      4  N   UNL     1     -10.885  18.199  67.846  0.00  0.00    -0.125 NA
ATOM      5  C   UNL     1     -10.295  18.442  66.589  0.00  0.00    +0.352 C 
ATOM      6  O   UNL     1     -10.478  19.551  66.007  0.00  0.00    -0.248 OA
ATOM      7  N   UNL     1      -9.882  17.341  65.824  0.00  0.00    -0.125 NA
ATOM      8  C   UNL     1     -10.079  15.974  66.200  0.00  0.00    +0.257 C 
ATOM      9  O   UNL     1      -9.306  15.179  65.581  0.00  0.00    -0.272 OA
ENDROOT
BRANCH   1  10
ATOM     10  C   UNL     1     -11.639  14.749  67.715  0.00  0.00    +0.017 C 
ATOM     11  C   UNL     1     -10.819  13.386  68.069  0.00  0.00    +0.001 C 
BRANCH  10  12
ATOM     12  C   UNL     1     -11.608  14.444  66.113  0.00  0.00    +0.001 C 
BRANCH  12  13
ATOM     13  C   UNL     1     -12.082  12.994  66.131  0.00  0.00    +0.000 C 
ATOM     14  C   UNL     1     -12.453  12.523  64.748  0.00  0.00    +0.000 C 
ENDBRANCH  12  13
ENDBRANCH  10  12
ENDBRANCH   1  10
BRANCH   1  15
ATOM     15  C   UNL     1      -9.146  15.009  68.200  0.00  0.00    +0.044 C 
BRANCH  15  17
ATOM     16  C   UNL     1      -7.109  16.175  68.499  0.00  0.00    -0.005 C 
ATOM     17  C   UNL     1      -8.120  15.924  68.739  0.00  0.00    -0.025 C 
ENDBRANCH  15  17
ENDBRANCH   1  15
TORSDOF 5
ENDMDL
MODEL 5
REMARK VINA RESULT:      -4.9      1.488      1.994
REMARK  Name = 
REMARK  5 active torsions:
REMARK  status: ('A' for Active; 'I' for Inactive)
REMARK    1  A    between atoms: C_2  and  C_3
REMARK    2  A    between atoms: C_3  and  C_4
REMARK    3  A    between atoms: C_4  and  C_5
REMARK    4  A    between atoms: C_5  and  C_7
REMARK    5  A    between atoms: C_7  and  C_8
REMARK                            x       y       z     vdW  Elec       q    Type
REMARK                         _______ _______ _______ _____ _____    ______ ____
ROOT
ATOM      1  C   UNL     1     -10.920  13.870  65.507  0.00  0.00    +0.145 C 
ATOM      2  C   UNL     1     -11.278  15.202  65.010  0.00  0.00    +0.257 C 
ATOM      3  O   UNL     1     -12.252  15.284  64.203  0.00  0.00    -0.272 OA
ATOM      4  N   UNL     1     -10.450  16.353  65.076  0.00  0.00    -0.125 NA
ATOM      5  C   UNL     1      -9.307  16.292  65.899  0.00  0.00    +0.352 C 
ATOM      6  O   UNL     1      -8.471  17.242  65.894  0.00  0.00    -0.248 OA
ATOM      7  N   UNL     1      -8.898  15.038  66.376  0.00  0.00    -0.125 NA
ATOM      8  C   UNL     1      -9.521  13.797  66.031  0.00  0.00    +0.257 C 
ATOM      9  O   UNL     1      -9.253  12.867  66.854  0.00  0.00    -0.272 OA
ENDROOT
BRANCH   1  10
ATOM     10  C   UNL     1     -10.940  12.979  64.147  0.00  0.00    +0.017 C 
ATOM     11  C   UNL     1     -12.393  12.297  64.434  0.00  0.00    +0.001 C 
BRANCH  10  12
ATOM     12  C   UNL     1     -10.135  11.740  64.839  0.00  0.00    +0.001 C 
BRANCH  12  13
ATOM     13  C   UNL     1     -10.208  10.732  63.697  0.00  0.00    +0.000 C 
ATOM     14  C   UNL     1      -9.190  11.041  62.629  0.00  0.00    +0.000 C 
ENDBRANCH  12  13
ENDBRANCH  10  12
ENDBRANCH   1  10
BRANCH   1  15
ATOM     15  C   UNL     1     -11.825  13.297  66.521  0.00  0.00    +0.044 C 
BRANCH  15  17
ATOM     16  C   UNL     1     -11.991  14.152  68.721  0.00  0.00    -0.005 C 
ATOM     17  C   UNL     1     -12.087  14.203  67.658  0.00  0.00    -0.025 C 
ENDBRANCH  15  17
ENDBRANCH   1  15
TORSDOF 5
ENDMDL
MODEL 6
REMARK VINA RESULT:      -4.7      1.696      2.352
REMARK  Name = 
REMARK  5 active torsions:
REMARK  status: ('A' for Active; 'I' for Inactive)
REMARK    1  A    between atoms: C_2  and  C_3
REMARK    2  A    between atoms: C_3  and  C_4
REMARK    3  A    between atoms: C_4  and  C_5
REMARK    4  A    between atoms: C_5  and  C_7
REMARK    5  A    between atoms: C_7  and  C_8
REMARK                            x       y       z     vdW  Elec       q    Type
REMARK                         _______ _______ _______ _____ _____    ______ ____
ROOT
ATOM      1  C   UNL     1     -10.423  12.979  67.335  0.00  0.00    +0.145 C 
ATOM      2  C   UNL     1     -11.716  12.374  67.003  0.00  0.00    +0.257 C 
ATOM      3  O   UNL     1     -12.121  11.421  67.734  0.00  0.00    -0.272 OA
ATOM      4  N   UNL     1     -12.397  12.519  65.766  0.00  0.00    -0.125 NA
ATOM      5  C   UNL     1     -11.940  13.514  64.879  0.00  0.00    +0.352 C 
ATOM      6  O   UNL     1     -12.430  13.599  63.716  0.00  0.00    -0.248 OA
ATOM      7  N   UNL     1     -10.692  14.105  65.129  0.00  0.00    -0.125 NA
ATOM      8  C   UNL     1      -9.811  13.720  66.189  0.00  0.00    +0.257 C 
ATOM      9  O   UNL     1      -8.952  14.615  66.462  0.00  0.00    -0.272 OA
ENDROOT
BRANCH   1  10
ATOM     10  C   UNL     1      -9.485  11.674  67.581  0.00  0.00    +0.017 C 
ATOM     11  C   UNL     1      -8.230  12.504  68.208  0.00  0.00    +0.001 C 
BRANCH  10  12
ATOM     12  C   UNL     1      -8.865  11.723  66.073  0.00  0.00    +0.001 C 
BRANCH  12  13
ATOM     13  C   UNL     1      -9.109  10.275  65.661  0.00  0.00    +0.000 C 
ATOM     14  C   UNL     1      -9.910  10.196  64.386  0.00  0.00    +0.000 C 
ENDBRANCH  12  13
ENDBRANCH  10  12
ENDBRANCH   1  10
BRANCH   1  15
ATOM     15  C   UNL     1     -10.409  13.862  68.517  0.00  0.00    +0.044 C 
BRANCH  15  17
ATOM     16  C   UNL     1     -11.760  15.784  68.796  0.00  0.00    -0.005 C 
ATOM     17  C   UNL     1     -11.588  14.747  68.606  0.00  0.00    -0.025 C 
ENDBRANCH  15  17
ENDBRANCH   1  15
TORSDOF 5
ENDMDL
MODEL 7
REMARK VINA RESULT:      -4.7      2.149      3.923
REMARK  Name = 
REMARK  5 active torsions:
REMARK  status: ('A' for Active; 'I' for Inactive)
REMARK    1  A    between atoms: C_2  and  C_3
REMARK    2  A    between atoms: C_3  and  C_4
REMARK    3  A    between atoms: C_4  and  C_5
REMARK    4  A    between atoms: C_5  and  C_7
REMARK    5  A    between atoms: C_7  and  C_8
REMARK                            x       y       z     vdW  Elec       q    Type
REMARK                         _______ _______ _______ _____ _____    ______ ____
ROOT
ATOM      1  C   UNL     1     -10.603  13.071  66.533  0.00  0.00    +0.145 C 
ATOM      2  C   UNL     1     -10.312  11.978  65.601  0.00  0.00    +0.257 C 
ATOM      3  O   UNL     1      -9.146  11.482  65.626  0.00  0.00    -0.272 OA
ATOM      4  N   UNL     1     -11.087  11.644  64.459  0.00  0.00    -0.125 NA
ATOM      5  C   UNL     1     -12.365  12.228  64.340  0.00  0.00    +0.352 C 
ATOM      6  O   UNL     1     -13.041  12.063  63.284  0.00  0.00    -0.248 OA
ATOM      7  N   UNL     1     -12.686  13.301  65.185  0.00  0.00    -0.125 NA
ATOM      8  C   UNL     1     -11.780  13.897  66.119  0.00  0.00    +0.257 C 
ATOM      9  O   UNL     1     -12.375  14.562  67.023  0.00  0.00    -0.272 OA
ENDROOT
BRANCH   1  10
ATOM     10  C   UNL     1      -9.299  14.026  66.360  0.00  0.00    +0.017 C 
ATOM     11  C   UNL     1      -9.256  14.509  67.917  0.00  0.00    +0.001 C 
BRANCH  10  12
ATOM     12  C   UNL     1     -10.190  15.314  65.905  0.00  0.00    +0.001 C 
BRANCH  12  13
ATOM     13  C   UNL     1      -9.197  16.426  66.230  0.00  0.00    +0.000 C 
ATOM     14  C   UNL     1      -9.890  17.758  66.358  0.00  0.00    +0.000 C 
ENDBRANCH  12  13
ENDBRANCH  10  12
ENDBRANCH   1  10
BRANCH   1  15
ATOM     15  C   UNL     1     -10.784  12.683  67.945  0.00  0.00    +0.044 C 
BRANCH  15  17
ATOM     16  C   UNL     1     -11.741  10.760  68.937  0.00  0.00    -0.005 C 
ATOM     17  C   UNL     1     -11.502  11.404  68.118  0.00  0.00    -0.025 C 
ENDBRANCH  15  17
ENDBRANCH   1  15
TORSDOF 5
ENDMDL
MODEL 8
REMARK VINA RESULT:      -4.6      8.512     10.248
REMARK  Name = 
REMARK  5 active torsions:
REMARK  status: ('A' for Active; 'I' for Inactive)
REMARK    1  A    between atoms: C_2  and  C_3
REMARK    2  A    between atoms: C_3  and  C_4
REMARK    3  A    between atoms: C_4  and  C_5
REMARK    4  A    between atoms: C_5  and  C_7
REMARK    5  A    between atoms: C_7  and  C_8
REMARK                            x       y       z     vdW  Elec       q    Type
REMARK                         _______ _______ _______ _____ _____    ______ ____
ROOT
ATOM      1  C   UNL     1      -5.223  19.048  69.511  0.00  0.00    +0.145 C 
ATOM      2  C   UNL     1      -4.864  18.739  70.898  0.00  0.00    +0.257 C 
ATOM      3  O   UNL     1      -5.073  17.558  71.308  0.00  0.00    -0.272 OA
ATOM      4  N   UNL     1      -4.620  19.698  71.917  0.00  0.00    -0.125 NA
ATOM      5  C   UNL     1      -4.457  21.042  71.526  0.00  0.00    +0.352 C 
ATOM      6  O   UNL     1      -4.365  21.950  72.403  0.00  0.00    -0.248 OA
ATOM      7  N   UNL     1      -4.816  21.403  70.219  0.00  0.00    -0.125 NA
ATOM      8  C   UNL     1      -5.406  20.513  69.266  0.00  0.00    +0.257 C 
ATOM      9  O   UNL     1      -5.286  20.925  68.070  0.00  0.00    -0.272 OA
ENDROOT
BRANCH   1  10
ATOM     10  C   UNL     1      -6.699  18.381  69.381  0.00  0.00    +0.017 C 
ATOM     11  C   UNL     1      -6.414  17.657  67.948  0.00  0.00    +0.001 C 
BRANCH  10  12
ATOM     12  C   UNL     1      -7.335  19.706  68.672  0.00  0.00    +0.001 C 
BRANCH  12  13
ATOM     13  C   UNL     1      -8.754  19.198  68.434  0.00  0.00    +0.000 C 
ATOM     14  C   UNL     1      -9.514  20.114  67.509  0.00  0.00    +0.000 C 
ENDBRANCH  12  13
ENDBRANCH  10  12
ENDBRANCH   1  10
BRANCH   1  15
ATOM     15  C   UNL     1      -4.315  18.516  68.477  0.00  0.00    +0.044 C 
BRANCH  15  17
ATOM     16  C   UNL     1      -2.030  19.128  68.497  0.00  0.00    -0.005 C 
ATOM     17  C   UNL     1      -2.888  18.596  68.847  0.00  0.00    -0.025 C 
ENDBRANCH  15  17
ENDBRANCH   1  15
TORSDOF 5
ENDMDL
MODEL 9
REMARK VINA RESULT:      -4.6      4.177      5.928
REMARK  Name = 
REMARK  5 active torsions:
REMARK  status: ('A' for Active; 'I' for Inactive)
REMARK    1  A    between atoms: C_2  and  C_3
REMARK    2  A    between atoms: C_3  and  C_4
REMARK    3  A    between atoms: C_4  and  C_5
REMARK    4  A    between atoms: C_5  and  C_7
REMARK    5  A    between atoms: C_7  and  C_8
REMARK                            x       y       z     vdW  Elec       q    Type
REMARK                         _______ _______ _______ _____ _____    ______ ____
ROOT
ATOM      1  C   UNL     1      -8.953  17.402  67.129  0.00  0.00    +0.145 C 
ATOM      2  C   UNL     1      -8.994  16.110  66.437  0.00  0.00    +0.257 C 
ATOM      3  O   UNL     1      -8.044  15.300  66.654  0.00  0.00    -0.272 OA
ATOM      4  N   UNL     1      -9.801  15.808  65.309  0.00  0.00    -0.125 NA
ATOM      5  C   UNL     1     -10.826  16.716  64.974  0.00  0.00    +0.352 C 
ATOM      6  O   UNL     1     -11.489  16.559  63.908  0.00  0.00    -0.248 OA
ATOM      7  N   UNL     1     -10.818  17.981  65.582  0.00  0.00    -0.125 NA
ATOM      8  C   UNL     1      -9.798  18.446  66.471  0.00  0.00    +0.257 C 
ATOM      9  O   UNL     1     -10.180  19.425  67.185  0.00  0.00    -0.272 OA
ENDROOT
BRANCH   1  10
ATOM     10  C   UNL     1      -7.410  17.863  66.906  0.00  0.00    +0.017 C 
ATOM     11  C   UNL     1      -7.295  18.692  68.305  0.00  0.00    +0.001 C 
BRANCH  10  12
ATOM     12  C   UNL     1      -7.835  19.194  66.063  0.00  0.00    +0.001 C 
BRANCH  12  13
ATOM     13  C   UNL     1      -6.452  19.799  65.848  0.00  0.00    +0.000 C 
ATOM     14  C   UNL     1      -6.302  20.340  64.449  0.00  0.00    +0.000 C 
ENDBRANCH  12  13
ENDBRANCH  10  12
ENDBRANCH   1  10
BRANCH   1  15
ATOM     15  C   UNL     1      -9.287  17.373  68.566  0.00  0.00    +0.044 C 
BRANCH  15  17
ATOM     16  C   UNL     1     -11.275  16.232  69.150  0.00  0.00    -0.005 C 
ATOM     17  C   UNL     1     -10.231  16.298  68.931  0.00  0.00    -0.025 C 
ENDBRANCH  15  17
ENDBRANCH   1  15
TORSDOF 5
ENDMDL
