MODEL 1
REMARK VINA RESULT:      -5.7      0.000      0.000
REMARK  Name = 
REMARK  6 active torsions:
REMARK  status: ('A' for Active; 'I' for Inactive)
REMARK    1  A    between atoms: O_2  and  C_3
REMARK    2  A    between atoms: C_6  and  O_7
REMARK    3  A    between atoms: C_9  and  C_10
REMARK    4  A    between atoms: C_10  and  C_12
REMARK    5  A    between atoms: C_12  and  N_13
REMARK    6  A    between atoms: C_14  and  C_16
REMARK                            x       y       z     vdW  Elec       q    Type
REMARK                         _______ _______ _______ _____ _____    ______ ____
ROOT
ATOM      1  C   UNL     1     -10.108  11.132  63.719  0.00  0.00    +0.139 A 
ATOM      2  C   UNL     1     -11.229  11.937  63.752  0.00  0.00    +0.038 A 
ATOM      3  C   UNL     1     -11.940  12.081  64.941  0.00  0.00    +0.046 A 
ATOM      4  C   UNL     1     -11.265  11.729  66.102  0.00  0.00    +0.137 A 
ATOM      5  C   UNL     1     -10.083  11.029  66.121  0.00  0.00    +0.040 A 
ATOM      6  C   UNL     1      -9.642  10.560  64.891  0.00  0.00    +0.040 A 
ENDROOT
BRANCH   3   7
ATOM      7  C   UNL     1     -12.459  13.653  64.996  0.00  0.00    +0.199 C 
ATOM      8  O   UNL     1     -12.523  13.780  63.451  0.00  0.00    -0.216 OA
BRANCH   7   9
ATOM      9  C   UNL     1     -10.866  14.205  64.997  0.00  0.00    +0.153 C 
BRANCH   9  10
ATOM     10  N   UNL     1     -10.937  15.316  65.904  0.00  0.00    -0.201 NA
ATOM     11  C   UNL     1     -10.677  16.618  65.382  0.00  0.00    +0.261 C 
ATOM     12  O   UNL     1     -11.254  16.903  64.295  0.00  0.00    -0.272 OA
BRANCH  11  13
ATOM     13  C   UNL     1     -10.003  17.658  66.214  0.00  0.00    +0.196 C 
ATOM     14  N   UNL     1     -10.437  18.964  65.765  0.00  0.00    -0.121 NA
ENDBRANCH  11  13
ENDBRANCH   9  10
ENDBRANCH   7   9
ENDBRANCH   3   7
BRANCH   4  15
ATOM     15  O   UNL     1     -12.115  11.822  67.213  0.00  0.00    -0.472 OA
ATOM     16  C   UNL     1     -11.492  12.361  68.380  0.00  0.00    +0.252 C 
ENDBRANCH   4  15
BRANCH   1  18
ATOM     17  C   UNL     1      -9.329   9.904  62.169  0.00  0.00    +0.252 C 
ATOM     18  O   UNL     1      -9.672  10.540  62.530  0.00  0.00    -0.471 OA
ENDBRANCH   1  18
TORSDOF 6
ENDMDL
MODEL 2
REMARK VINA RESULT:      -5.6      4.127      6.892
REMARK  Name = 
REMARK  6 active torsions:
REMARK  status: ('A' for Active; 'I' for Inactive)
REMARK    1  A    between atoms: O_2  and  C_3
REMARK    2  A    between atoms: C_6  and  O_7
REMARK    3  A    between atoms: C_9  and  C_10
REMARK    4  A    between atoms: C_10  and  C_12
REMARK    5  A    between atoms: C_12  and  N_13
REMARK    6  A    between atoms: C_14  and  C_16
REMARK                            x       y       z     vdW  Elec       q    Type
REMARK                         _______ _______ _______ _____ _____    ______ ____
ROOT
ATOM      1  C   UNL     1     -10.490  17.682  67.455  0.00  0.00    +0.139 A 
ATOM      2  C   UNL     1     -10.988  16.801  68.393  0.00  0.00    +0.038 A 
ATOM      3  C   UNL     1     -11.288  15.493  68.021  0.00  0.00    +0.046 A 
ATOM      4  C   UNL     1     -10.706  15.045  66.842  0.00  0.00    +0.137 A 
ATOM      5  C   UNL     1     -10.093  15.868  65.929  0.00  0.00    +0.040 A 
ATOM      6  C   UNL     1     -10.196  17.229  66.180  0.00  0.00    +0.040 A 
ENDROOT
BRANCH   3   7
ATOM      7  C   UNL     1     -10.876  14.527  69.303  0.00  0.00    +0.199 C 
ATOM      8  O   UNL     1     -12.280  13.869  69.372  0.00  0.00    -0.216 OA
BRANCH   7   9
ATOM      9  C   UNL     1     -11.359  15.722  70.389  0.00  0.00    +0.153 C 
BRANCH   9  10
ATOM     10  N   UNL     1     -11.609  14.958  71.580  0.00  0.00    -0.201 NA
ATOM     11  C   UNL     1     -12.530  15.491  72.529  0.00  0.00    +0.261 C 
ATOM     12  O   UNL     1     -13.615  15.936  72.059  0.00  0.00    -0.272 OA
BRANCH  11  13
ATOM     13  C   UNL     1     -12.338  15.269  73.993  0.00  0.00    +0.196 C 
ATOM     14  N   UNL     1     -12.580  16.515  74.688  0.00  0.00    -0.121 NA
ENDBRANCH  11  13
ENDBRANCH   9  10
ENDBRANCH   7   9
ENDBRANCH   3   7
BRANCH   4  15
ATOM     15  O   UNL     1     -11.161  13.758  66.526  0.00  0.00    -0.472 OA
ATOM     16  C   UNL     1     -12.334  13.737  65.710  0.00  0.00    +0.252 C 
ENDBRANCH   4  15
BRANCH   1  18
ATOM     17  C   UNL     1     -10.316  19.781  67.742  0.00  0.00    +0.252 C 
ATOM     18  O   UNL     1     -10.656  19.064  67.594  0.00  0.00    -0.471 OA
ENDBRANCH   1  18
TORSDOF 6
ENDMDL
MODEL 3
REMARK VINA RESULT:      -5.4      3.124      6.298
REMARK  Name = 
REMARK  6 active torsions:
REMARK  status: ('A' for Active; 'I' for Inactive)
REMARK    1  A    between atoms: O_2  and  C_3
REMARK    2  A    between atoms: C_6  and  O_7
REMARK    3  A    between atoms: C_9  and  C_10
REMARK    4  A    between atoms: C_10  and  C_12
REMARK    5  A    between atoms: C_12  and  N_13
REMARK    6  A    between atoms: C_14  and  C_16
REMARK                            x       y       z     vdW  Elec       q    Type
REMARK                         _______ _______ _______ _____ _____    ______ ____
ROOT
ATOM      1  C   UNL     1     -12.792  13.936  71.022  0.00  0.00    +0.139 A 
ATOM      2  C   UNL     1     -12.092  13.584  69.885  0.00  0.00    +0.038 A 
ATOM      3  C   UNL     1     -11.634  12.277  69.734  0.00  0.00    +0.046 A 
ATOM      4  C   UNL     1     -12.241  11.321  70.537  0.00  0.00    +0.137 A 
ATOM      5  C   UNL     1     -13.044  11.619  71.612  0.00  0.00    +0.040 A 
ATOM      6  C   UNL     1     -13.123  12.963  71.950  0.00  0.00    +0.040 A 
ENDROOT
BRANCH   3   7
ATOM      7  C   UNL     1     -11.789  11.903  68.127  0.00  0.00    +0.199 C 
ATOM      8  O   UNL     1     -10.254  11.832  67.905  0.00  0.00    -0.216 OA
BRANCH   7   9
ATOM      9  C   UNL     1     -11.795  13.539  67.722  0.00  0.00    +0.153 C 
BRANCH   9  10
ATOM     10  N   UNL     1     -11.243  13.518  66.395  0.00  0.00    -0.201 NA
ATOM     11  C   UNL     1     -12.144  13.332  65.305  0.00  0.00    +0.261 C 
ATOM     12  O   UNL     1     -13.196  14.031  65.330  0.00  0.00    -0.272 OA
BRANCH  11  13
ATOM     13  C   UNL     1     -11.726  12.579  64.085  0.00  0.00    +0.196 C 
ATOM     14  N   UNL     1     -12.910  12.070  63.426  0.00  0.00    -0.121 NA
ENDBRANCH  11  13
ENDBRANCH   9  10
ENDBRANCH   7   9
ENDBRANCH   3   7
BRANCH   4  15
ATOM     15  O   UNL     1     -11.628  10.072  70.365  0.00  0.00    -0.472 OA
ATOM     16  C   UNL     1     -11.649   9.246  71.530  0.00  0.00    +0.252 C 
ENDBRANCH   4  15
BRANCH   1  18
ATOM     17  C   UNL     1     -12.409  15.930  71.649  0.00  0.00    +0.252 C 
ATOM     18  O   UNL     1     -12.822  15.257  71.478  0.00  0.00    -0.471 OA
ENDBRANCH   1  18
TORSDOF 6
ENDMDL
MODEL 4
REMARK VINA RESULT:      -5.3      3.732      6.636
REMARK  Name = 
REMARK  6 active torsions:
REMARK  status: ('A' for Active; 'I' for Inactive)
REMARK    1  A    between atoms: O_2  and  C_3
REMARK    2  A    between atoms: C_6  and  O_7
REMARK    3  A    between atoms: C_9  and  C_10
REMARK    4  A    between atoms: C_10  and  C_12
REMARK    5  A    between atoms: C_12  and  N_13
REMARK    6  A    between atoms: C_14  and  C_16
REMARK                            x       y       z     vdW  Elec       q    Type
REMARK                         _______ _______ _______ _____ _____    ______ ____
ROOT
ATOM      1  C   UNL     1     -12.988  11.155  71.466  0.00  0.00    +0.139 A 
ATOM      2  C   UNL     1     -12.031  11.288  70.479  0.00  0.00    +0.038 A 
ATOM      3  C   UNL     1     -11.191  10.217  70.185  0.00  0.00    +0.046 A 
ATOM      4  C   UNL     1     -11.618   8.969  70.619  0.00  0.00    +0.137 A 
ATOM      5  C   UNL     1     -12.645   8.777  71.511  0.00  0.00    +0.040 A 
ATOM      6  C   UNL     1     -13.172   9.928  72.079  0.00  0.00    +0.040 A 
ENDROOT
BRANCH   3   7
ATOM      7  C   UNL     1     -10.951  10.238  68.546  0.00  0.00    +0.199 C 
ATOM      8  O   UNL     1      -9.492  10.750  68.676  0.00  0.00    -0.216 OA
BRANCH   7   9
ATOM      9  C   UNL     1     -11.522  11.821  68.458  0.00  0.00    +0.153 C 
BRANCH   9  10
ATOM     10  N   UNL     1     -12.002  11.890  67.106  0.00  0.00    -0.201 NA
ATOM     11  C   UNL     1     -11.580  12.993  66.307  0.00  0.00    +0.261 C 
ATOM     12  O   UNL     1     -10.348  13.269  66.348  0.00  0.00    -0.272 OA
BRANCH  11  13
ATOM     13  C   UNL     1     -12.487  13.588  65.280  0.00  0.00    +0.196 C 
ATOM     14  N   UNL     1     -13.140  12.516  64.560  0.00  0.00    -0.121 NA
ENDBRANCH  11  13
ENDBRANCH   9  10
ENDBRANCH   7   9
ENDBRANCH   3   7
BRANCH   4  15
ATOM     15  O   UNL     1     -10.646   7.995  70.352  0.00  0.00    -0.472 OA
ATOM     16  C   UNL     1     -11.153   6.661  70.309  0.00  0.00    +0.252 C 
ENDBRANCH   4  15
BRANCH   1  18
ATOM     17  C   UNL     1     -13.525  13.073  72.210  0.00  0.00    +0.252 C 
ATOM     18  O   UNL     1     -13.482  12.268  72.154  0.00  0.00    -0.471 OA
ENDBRANCH   1  18
TORSDOF 6
ENDMDL
MODEL 5
REMARK VINA RESULT:      -5.2      4.873      6.940
REMARK  Name = 
REMARK  6 active torsions:
REMARK  status: ('A' for Active; 'I' for Inactive)
REMARK    1  A    between atoms: O_2  and  C_3
REMARK    2  A    between atoms: C_6  and  O_7
REMARK    3  A    between atoms: C_9  and  C_10
REMARK    4  A    between atoms: C_10  and  C_12
REMARK    5  A    between atoms: C_12  and  N_13
REMARK    6  A    between atoms: C_14  and  C_16
REMARK                            x       y       z     vdW  Elec       q    Type
REMARK                         _______ _______ _______ _____ _____    ______ ____
ROOT
ATOM      1  C   UNL     1     -12.634  15.442  72.476  0.00  0.00    +0.139 A 
ATOM      2  C   UNL     1     -11.817  15.599  71.375  0.00  0.00    +0.038 A 
ATOM      3  C   UNL     1     -11.545  14.506  70.556  0.00  0.00    +0.046 A 
ATOM      4  C   UNL     1     -12.414  13.429  70.666  0.00  0.00    +0.137 A 
ATOM      5  C   UNL     1     -13.330  13.283  71.680  0.00  0.00    +0.040 A 
ATOM      6  C   UNL     1     -13.259  14.225  72.696  0.00  0.00    +0.040 A 
ENDROOT
BRANCH   3   7
ATOM      7  C   UNL     1     -11.486  15.080  69.003  0.00  0.00    +0.199 C 
ATOM      8  O   UNL     1     -10.031  14.586  68.781  0.00  0.00    -0.216 OA
BRANCH   7   9
ATOM      9  C   UNL     1     -10.920  16.571  69.549  0.00  0.00    +0.153 C 
BRANCH   9  10
ATOM     10  N   UNL     1      -9.907  16.878  68.577  0.00  0.00    -0.201 NA
ATOM     11  C   UNL     1     -10.265  17.735  67.494  0.00  0.00    +0.261 C 
ATOM     12  O   UNL     1     -10.907  18.778  67.801  0.00  0.00    -0.272 OA
BRANCH  11  13
ATOM     13  C   UNL     1      -9.668  17.547  66.138  0.00  0.00    +0.196 C 
ATOM     14  N   UNL     1     -10.474  16.595  65.404  0.00  0.00    -0.121 NA
ENDBRANCH  11  13
ENDBRANCH   9  10
ENDBRANCH   7   9
ENDBRANCH   3   7
BRANCH   4  15
ATOM     15  O   UNL     1     -11.979  12.361  69.870  0.00  0.00    -0.472 OA
ATOM     16  C   UNL     1     -12.023  11.091  70.522  0.00  0.00    +0.252 C 
ENDBRANCH   4  15
BRANCH   1  18
ATOM     17  C   UNL     1     -12.440  16.367  74.380  0.00  0.00    +0.252 C 
ATOM     18  O   UNL     1     -12.538  16.293  73.582  0.00  0.00    -0.471 OA
ENDBRANCH   1  18
TORSDOF 6
ENDMDL
MODEL 6
REMARK VINA RESULT:      -5.2      2.930      4.118
REMARK  Name = 
REMARK  6 active torsions:
REMARK  status: ('A' for Active; 'I' for Inactive)
REMARK    1  A    between atoms: O_2  and  C_3
REMARK    2  A    between atoms: C_6  and  O_7
REMARK    3  A    between atoms: C_9  and  C_10
REMARK    4  A    between atoms: C_10  and  C_12
REMARK    5  A    between atoms: C_12  and  N_13
REMARK    6  A    between atoms: C_14  and  C_16
REMARK                            x       y       z     vdW  Elec       q    Type
REMARK                         _______ _______ _______ _____ _____    ______ ____
ROOT
ATOM      1  C   UNL     1     -11.705  13.623  66.382  0.00  0.00    +0.139 A 
ATOM      2  C   UNL     1     -11.793  14.585  67.368  0.00  0.00    +0.038 A 
ATOM      3  C   UNL     1     -12.009  14.200  68.689  0.00  0.00    +0.046 A 
ATOM      4  C   UNL     1     -11.732  12.874  68.992  0.00  0.00    +0.137 A 
ATOM      5  C   UNL     1     -11.519  11.899  68.047  0.00  0.00    +0.040 A 
ATOM      6  C   UNL     1     -11.728  12.283  66.730  0.00  0.00    +0.040 A 
ENDROOT
BRANCH   3   7
ATOM      7  C   UNL     1     -11.124  15.234  69.635  0.00  0.00    +0.199 C 
ATOM      8  O   UNL     1     -12.383  15.978  70.155  0.00  0.00    -0.216 OA
BRANCH   7   9
ATOM      9  C   UNL     1     -10.983  16.323  68.356  0.00  0.00    +0.153 C 
BRANCH   9  10
ATOM     10  N   UNL     1     -10.263  17.406  68.965  0.00  0.00    -0.201 NA
ATOM     11  C   UNL     1     -10.046  18.581  68.187  0.00  0.00    +0.261 C 
ATOM     12  O   UNL     1     -11.049  19.022  67.558  0.00  0.00    -0.272 OA
BRANCH  11  13
ATOM     13  C   UNL     1      -8.797  19.384  68.341  0.00  0.00    +0.196 C 
ATOM     14  N   UNL     1      -8.384  19.856  67.037  0.00  0.00    -0.121 NA
ENDBRANCH  11  13
ENDBRANCH   9  10
ENDBRANCH   7   9
ENDBRANCH   3   7
BRANCH   4  15
ATOM     15  O   UNL     1     -12.082  12.588  70.319  0.00  0.00    -0.472 OA
ATOM     16  C   UNL     1     -12.246  11.196  70.592  0.00  0.00    +0.252 C 
ENDBRANCH   4  15
BRANCH   1  18
ATOM     17  C   UNL     1     -12.194  14.480  64.499  0.00  0.00    +0.252 C 
ATOM     18  O   UNL     1     -12.008  13.918  65.049  0.00  0.00    -0.471 OA
ENDBRANCH   1  18
TORSDOF 6
ENDMDL
MODEL 7
REMARK VINA RESULT:      -5.2      2.463      6.207
REMARK  Name = 
REMARK  6 active torsions:
REMARK  status: ('A' for Active; 'I' for Inactive)
REMARK    1  A    between atoms: O_2  and  C_3
REMARK    2  A    between atoms: C_6  and  O_7
REMARK    3  A    between atoms: C_9  and  C_10
REMARK    4  A    between atoms: C_10  and  C_12
REMARK    5  A    between atoms: C_12  and  N_13
REMARK    6  A    between atoms: C_14  and  C_16
REMARK                            x       y       z     vdW  Elec       q    Type
REMARK                         _______ _______ _______ _____ _____    ______ ____
ROOT
ATOM      1  C   UNL     1     -11.051  15.723  68.755  0.00  0.00    +0.139 A 
ATOM      2  C   UNL     1     -11.299  15.619  67.401  0.00  0.00    +0.038 A 
ATOM      3  C   UNL     1     -10.810  16.593  66.534  0.00  0.00    +0.046 A 
ATOM      4  C   UNL     1      -9.781  17.387  67.024  0.00  0.00    +0.137 A 
ATOM      5  C   UNL     1      -9.416  17.438  68.348  0.00  0.00    +0.040 A 
ATOM      6  C   UNL     1     -10.231  16.736  69.225  0.00  0.00    +0.040 A 
ENDROOT
BRANCH   3   7
ATOM      7  C   UNL     1     -10.359  15.809  65.146  0.00  0.00    +0.199 C 
ATOM      8  O   UNL     1     -11.318  16.645  64.256  0.00  0.00    -0.216 OA
BRANCH   7   9
ATOM      9  C   UNL     1     -11.556  14.647  65.384  0.00  0.00    +0.153 C 
BRANCH   9  10
ATOM     10  N   UNL     1     -11.414  13.829  64.211  0.00  0.00    -0.201 NA
ATOM     11  C   UNL     1     -11.986  12.523  64.239  0.00  0.00    +0.261 C 
ATOM     12  O   UNL     1     -13.166  12.445  64.686  0.00  0.00    -0.272 OA
BRANCH  11  13
ATOM     13  C   UNL     1     -11.338  11.385  63.522  0.00  0.00    +0.196 C 
ATOM     14  N   UNL     1      -9.976  11.754  63.201  0.00  0.00    -0.121 NA
ENDBRANCH  11  13
ENDBRANCH   9  10
ENDBRANCH   7   9
ENDBRANCH   3   7
BRANCH   4  15
ATOM     15  O   UNL     1      -9.447  18.386  66.101  0.00  0.00    -0.472 OA
ATOM     16  C   UNL     1     -10.310  19.524  66.133  0.00  0.00    +0.252 C 
ENDBRANCH   4  15
BRANCH   1  18
ATOM     17  C   UNL     1     -12.014  14.533  70.230  0.00  0.00    +0.252 C 
ATOM     18  O   UNL     1     -11.897  15.129  69.697  0.00  0.00    -0.471 OA
ENDBRANCH   1  18
TORSDOF 6
ENDMDL
MODEL 8
REMARK VINA RESULT:      -5.2      3.680      6.698
REMARK  Name = 
REMARK  6 active torsions:
REMARK  status: ('A' for Active; 'I' for Inactive)
REMARK    1  A    between atoms: O_2  and  C_3
REMARK    2  A    between atoms: C_6  and  O_7
REMARK    3  A    between atoms: C_9  and  C_10
REMARK    4  A    between atoms: C_10  and  C_12
REMARK    5  A    between atoms: C_12  and  N_13
REMARK    6  A    between atoms: C_14  and  C_16
REMARK                            x       y       z     vdW  Elec       q    Type
REMARK                         _______ _______ _______ _____ _____    ______ ____
ROOT
ATOM      1  C   UNL     1      -8.196  18.969  67.494  0.00  0.00    +0.139 A 
ATOM      2  C   UNL     1      -8.040  17.622  67.750  0.00  0.00    +0.038 A 
ATOM      3  C   UNL     1      -9.125  16.875  68.203  0.00  0.00    +0.046 A 
ATOM      4  C   UNL     1     -10.379  17.434  67.995  0.00  0.00    +0.137 A 
ATOM      5  C   UNL     1     -10.585  18.741  67.624  0.00  0.00    +0.040 A 
ATOM      6  C   UNL     1      -9.453  19.542  67.589  0.00  0.00    +0.040 A 
ENDROOT
BRANCH   3   7
ATOM      7  C   UNL     1      -9.002  15.383  67.494  0.00  0.00    +0.199 C 
ATOM      8  O   UNL     1      -7.454  15.454  67.404  0.00  0.00    -0.216 OA
BRANCH   7   9
ATOM      9  C   UNL     1      -9.145  16.071  65.962  0.00  0.00    +0.153 C 
BRANCH   9  10
ATOM     10  N   UNL     1      -9.948  15.100  65.273  0.00  0.00    -0.201 NA
ATOM     11  C   UNL     1     -11.245  15.500  64.836  0.00  0.00    +0.261 C 
ATOM     12  O   UNL     1     -11.312  16.617  64.249  0.00  0.00    -0.272 OA
BRANCH  11  13
ATOM     13  C   UNL     1     -12.382  14.533  64.820  0.00  0.00    +0.196 C 
ATOM     14  N   UNL     1     -12.438  13.901  63.520  0.00  0.00    -0.121 NA
ENDBRANCH  11  13
ENDBRANCH   9  10
ENDBRANCH   7   9
ENDBRANCH   3   7
BRANCH   4  15
ATOM     15  O   UNL     1     -11.375  16.640  68.580  0.00  0.00    -0.472 OA
ATOM     16  C   UNL     1     -11.170  16.375  69.968  0.00  0.00    +0.252 C 
ENDBRANCH   4  15
BRANCH   1  18
ATOM     17  C   UNL     1      -6.855  20.615  67.603  0.00  0.00    +0.252 C 
ATOM     18  O   UNL     1      -7.112  19.851  67.550  0.00  0.00    -0.471 OA
ENDBRANCH   1  18
TORSDOF 6
ENDMDL
MODEL 9
REMARK VINA RESULT:      -5.1      3.870      5.900
REMARK  Name = 
REMARK  6 active torsions:
REMARK  status: ('A' for Active; 'I' for Inactive)
REMARK    1  A    between atoms: O_2  and  C_3
REMARK    2  A    between atoms: C_6  and  O_7
REMARK    3  A    between atoms: C_9  and  C_10
REMARK    4  A    between atoms: C_10  and  C_12
REMARK    5  A    between atoms: C_12  and  N_13
REMARK    6  A    between atoms: C_14  and  C_16
REMARK                            x       y       z     vdW  Elec       q    Type
REMARK                         _______ _______ _______ _____ _____    ______ ____
ROOT
ATOM      1  C   UNL     1     -11.943  14.405  65.879  0.00  0.00    +0.139 A 
ATOM      2  C   UNL     1     -11.695  14.508  67.233  0.00  0.00    +0.038 A 
ATOM      3  C   UNL     1     -10.680  15.347  67.686  0.00  0.00    +0.046 A 
ATOM      4  C   UNL     1     -10.246  16.318  66.794  0.00  0.00    +0.137 A 
ATOM      5  C   UNL     1     -10.562  16.327  65.457  0.00  0.00    +0.040 A 
ATOM      6  C   UNL     1     -11.252  15.216  64.994  0.00  0.00    +0.040 A 
ENDROOT
BRANCH   3   7
ATOM      7  C   UNL     1     -11.219  16.023  69.100  0.00  0.00    +0.199 C 
ATOM      8  O   UNL     1      -9.966  15.572  69.897  0.00  0.00    -0.216 OA
BRANCH   7   9
ATOM      9  C   UNL     1     -12.018  14.596  69.506  0.00  0.00    +0.153 C 
BRANCH   9  10
ATOM     10  N   UNL     1     -11.903  14.588  70.938  0.00  0.00    -0.201 NA
ATOM     11  C   UNL     1     -12.714  15.501  71.674  0.00  0.00    +0.261 C 
ATOM     12  O   UNL     1     -13.929  15.562  71.334  0.00  0.00    -0.272 OA
BRANCH  11  13
ATOM     13  C   UNL     1     -12.218  16.120  72.939  0.00  0.00    +0.196 C 
ATOM     14  N   UNL     1     -12.439  15.192  74.028  0.00  0.00    -0.121 NA
ENDBRANCH  11  13
ENDBRANCH   9  10
ENDBRANCH   7   9
ENDBRANCH   3   7
BRANCH   4  15
ATOM     15  O   UNL     1      -9.162  17.028  67.327  0.00  0.00    -0.472 OA
ATOM     16  C   UNL     1      -9.281  18.447  67.213  0.00  0.00    +0.252 C 
ENDBRANCH   4  15
BRANCH   1  18
ATOM     17  C   UNL     1     -12.437  12.544  64.979  0.00  0.00    +0.252 C 
ATOM     18  O   UNL     1     -12.537  13.263  65.333  0.00  0.00    -0.471 OA
ENDBRANCH   1  18
TORSDOF 6
ENDMDL
