MODEL 1
REMARK VINA RESULT:      -4.7      0.000      0.000
REMARK  Name = 
REMARK  3 active torsions:
REMARK  status: ('A' for Active; 'I' for Inactive)
REMARK    1  A    between atoms: C_2  and  O_4
REMARK    2  A    between atoms: O_4  and  C_5
REMARK    3  A    between atoms: C_5  and  C_7
REMARK                            x       y       z     vdW  Elec       q    Type
REMARK                         _______ _______ _______ _____ _____    ______ ____
ROOT
ATOM      1  C   UNL     1     -12.705  15.034  71.999  0.00  0.00    +0.294 C 
ATOM      2 CL   UNL     1     -11.658  16.197  70.921  0.00  0.00    -0.073 Cl
ENDROOT
BRANCH   1   3
ATOM      3  C   UNL     1     -12.516  15.898  73.349  0.00  0.00    +0.437 C 
ATOM      4  F   UNL     1     -12.128  15.040  74.332  0.00  0.00    -0.166 F 
ATOM      5  F   UNL     1     -13.793  16.396  73.578  0.00  0.00    -0.166 F 
ATOM      6  F   UNL     1     -11.675  16.928  73.093  0.00  0.00    -0.166 F 
ENDBRANCH   1   3
BRANCH   1   7
ATOM      7  O   UNL     1     -13.984  15.707  71.647  0.00  0.00    -0.278 OA
BRANCH   7   9
ATOM      8  F   UNL     1     -14.722  13.658  72.346  0.00  0.00    -0.166 F 
ATOM      9  C   UNL     1     -14.840  14.643  71.499  0.00  0.00    +0.451 C 
ATOM     10  F   UNL     1     -16.108  14.954  71.121  0.00  0.00    -0.166 F 
ENDBRANCH   7   9
ENDBRANCH   1   7
TORSDOF 3
ENDMDL
MODEL 2
REMARK VINA RESULT:      -4.7      2.152      2.803
REMARK  Name = 
REMARK  3 active torsions:
REMARK  status: ('A' for Active; 'I' for Inactive)
REMARK    1  A    between atoms: C_2  and  O_4
REMARK    2  A    between atoms: O_4  and  C_5
REMARK    3  A    between atoms: C_5  and  C_7
REMARK                            x       y       z     vdW  Elec       q    Type
REMARK                         _______ _______ _______ _____ _____    ______ ____
ROOT
ATOM      1  C   UNL     1     -13.235  14.667  71.717  0.00  0.00    +0.294 C 
ATOM      2 CL   UNL     1     -15.070  15.096  71.476  0.00  0.00    -0.073 Cl
ENDROOT
BRANCH   1   3
ATOM      3  C   UNL     1     -13.042  15.626  73.002  0.00  0.00    +0.437 C 
ATOM      4  F   UNL     1     -14.204  16.312  73.177  0.00  0.00    -0.166 F 
ATOM      5  F   UNL     1     -12.005  16.464  72.609  0.00  0.00    -0.166 F 
ATOM      6  F   UNL     1     -12.633  14.871  74.050  0.00  0.00    -0.166 F 
ENDBRANCH   1   3
BRANCH   1   7
ATOM      7  O   UNL     1     -13.527  13.470  72.550  0.00  0.00    -0.278 OA
BRANCH   7   9
ATOM      8  F   UNL     1     -12.166  12.652  70.903  0.00  0.00    -0.166 F 
ATOM      9  C   UNL     1     -13.166  12.442  71.714  0.00  0.00    +0.451 C 
ATOM     10  F   UNL     1     -13.248  11.193  72.246  0.00  0.00    -0.166 F 
ENDBRANCH   7   9
ENDBRANCH   1   7
TORSDOF 3
ENDMDL
MODEL 3
REMARK VINA RESULT:      -4.6      2.380      3.285
REMARK  Name = 
REMARK  3 active torsions:
REMARK  status: ('A' for Active; 'I' for Inactive)
REMARK    1  A    between atoms: C_2  and  O_4
REMARK    2  A    between atoms: O_4  and  C_5
REMARK    3  A    between atoms: C_5  and  C_7
REMARK                            x       y       z     vdW  Elec       q    Type
REMARK                         _______ _______ _______ _____ _____    ______ ____
ROOT
ATOM      1  C   UNL     1     -13.727  13.905  72.491  0.00  0.00    +0.294 C 
ATOM      2 CL   UNL     1     -12.560  14.921  73.594  0.00  0.00    -0.073 Cl
ENDROOT
BRANCH   1   3
ATOM      3  C   UNL     1     -14.365  15.191  71.752  0.00  0.00    +0.437 C 
ATOM      4  F   UNL     1     -13.474  15.603  70.809  0.00  0.00    -0.166 F 
ATOM      5  F   UNL     1     -14.483  16.113  72.784  0.00  0.00    -0.166 F 
ATOM      6  F   UNL     1     -15.600  14.865  71.301  0.00  0.00    -0.166 F 
ENDBRANCH   1   3
BRANCH   1   7
ATOM      7  O   UNL     1     -12.702  13.700  71.433  0.00  0.00    -0.278 OA
BRANCH   7   9
ATOM      8  F   UNL     1     -11.797  11.789  70.561  0.00  0.00    -0.166 F 
ATOM      9  C   UNL     1     -12.780  12.348  71.211  0.00  0.00    +0.451 C 
ATOM     10  F   UNL     1     -13.317  11.614  72.223  0.00  0.00    -0.166 F 
ENDBRANCH   7   9
ENDBRANCH   1   7
TORSDOF 3
ENDMDL
MODEL 4
REMARK VINA RESULT:      -4.6      1.444      3.587
REMARK  Name = 
REMARK  3 active torsions:
REMARK  status: ('A' for Active; 'I' for Inactive)
REMARK    1  A    between atoms: C_2  and  O_4
REMARK    2  A    between atoms: O_4  and  C_5
REMARK    3  A    between atoms: C_5  and  C_7
REMARK                            x       y       z     vdW  Elec       q    Type
REMARK                         _______ _______ _______ _____ _____    ______ ____
ROOT
ATOM      1  C   UNL     1     -13.150  15.783  72.426  0.00  0.00    +0.294 C 
ATOM      2 CL   UNL     1     -11.550  15.128  71.637  0.00  0.00    -0.073 Cl
ENDROOT
BRANCH   1   3
ATOM      3  C   UNL     1     -14.106  14.699  71.706  0.00  0.00    +0.437 C 
ATOM      4  F   UNL     1     -14.253  13.651  72.563  0.00  0.00    -0.166 F 
ATOM      5  F   UNL     1     -13.375  14.342  70.579  0.00  0.00    -0.166 F 
ATOM      6  F   UNL     1     -15.249  15.315  71.319  0.00  0.00    -0.166 F 
ENDBRANCH   1   3
BRANCH   1   7
ATOM      7  O   UNL     1     -12.995  14.955  73.652  0.00  0.00    -0.278 OA
BRANCH   7   9
ATOM      8  F   UNL     1     -12.189  17.048  74.100  0.00  0.00    -0.166 F 
ATOM      9  C   UNL     1     -12.350  15.818  74.503  0.00  0.00    +0.451 C 
ATOM     10  F   UNL     1     -12.623  15.657  75.825  0.00  0.00    -0.166 F 
ENDBRANCH   7   9
ENDBRANCH   1   7
TORSDOF 3
ENDMDL
MODEL 5
REMARK VINA RESULT:      -4.6      2.050      2.558
REMARK  Name = 
REMARK  3 active torsions:
REMARK  status: ('A' for Active; 'I' for Inactive)
REMARK    1  A    between atoms: C_2  and  O_4
REMARK    2  A    between atoms: O_4  and  C_5
REMARK    3  A    between atoms: C_5  and  C_7
REMARK                            x       y       z     vdW  Elec       q    Type
REMARK                         _______ _______ _______ _____ _____    ______ ____
ROOT
ATOM      1  C   UNL     1     -13.347  15.452  73.035  0.00  0.00    +0.294 C 
ATOM      2 CL   UNL     1     -12.478  15.841  74.680  0.00  0.00    -0.073 Cl
ENDROOT
BRANCH   1   3
ATOM      3  C   UNL     1     -12.137  15.995  72.114  0.00  0.00    +0.437 C 
ATOM      4  F   UNL     1     -12.607  16.096  70.841  0.00  0.00    -0.166 F 
ATOM      5  F   UNL     1     -11.184  14.991  72.231  0.00  0.00    -0.166 F 
ATOM      6  F   UNL     1     -11.653  17.137  72.661  0.00  0.00    -0.166 F 
ENDBRANCH   1   3
BRANCH   1   7
ATOM      7  O   UNL     1     -12.854  14.048  72.999  0.00  0.00    -0.278 OA
BRANCH   7   9
ATOM      8  F   UNL     1     -14.897  14.119  71.972  0.00  0.00    -0.166 F 
ATOM      9  C   UNL     1     -13.868  13.403  72.334  0.00  0.00    +0.451 C 
ATOM     10  F   UNL     1     -13.479  12.436  71.462  0.00  0.00    -0.166 F 
ENDBRANCH   7   9
ENDBRANCH   1   7
TORSDOF 3
ENDMDL
MODEL 6
REMARK VINA RESULT:      -4.5      2.052      3.616
REMARK  Name = 
REMARK  3 active torsions:
REMARK  status: ('A' for Active; 'I' for Inactive)
REMARK    1  A    between atoms: C_2  and  O_4
REMARK    2  A    between atoms: O_4  and  C_5
REMARK    3  A    between atoms: C_5  and  C_7
REMARK                            x       y       z     vdW  Elec       q    Type
REMARK                         _______ _______ _______ _____ _____    ______ ____
ROOT
ATOM      1  C   UNL     1     -12.465  14.476  72.337  0.00  0.00    +0.294 C 
ATOM      2 CL   UNL     1     -13.636  12.982  72.251  0.00  0.00    -0.073 Cl
ENDROOT
BRANCH   1   3
ATOM      3  C   UNL     1     -13.100  15.217  71.050  0.00  0.00    +0.437 C 
ATOM      4  F   UNL     1     -14.406  15.478  71.333  0.00  0.00    -0.166 F 
ATOM      5  F   UNL     1     -12.972  14.262  70.049  0.00  0.00    -0.166 F 
ATOM      6  F   UNL     1     -12.332  16.291  70.744  0.00  0.00    -0.166 F 
ENDBRANCH   1   3
BRANCH   1   7
ATOM      7  O   UNL     1     -13.329  15.217  73.295  0.00  0.00    -0.278 OA
BRANCH   7   9
ATOM      8  F   UNL     1     -11.990  17.030  73.690  0.00  0.00    -0.166 F 
ATOM      9  C   UNL     1     -12.404  15.856  74.083  0.00  0.00    +0.451 C 
ATOM     10  F   UNL     1     -12.565  15.701  75.424  0.00  0.00    -0.166 F 
ENDBRANCH   7   9
ENDBRANCH   1   7
TORSDOF 3
ENDMDL
MODEL 7
REMARK VINA RESULT:      -4.3      2.351      3.206
REMARK  Name = 
REMARK  3 active torsions:
REMARK  status: ('A' for Active; 'I' for Inactive)
REMARK    1  A    between atoms: C_2  and  O_4
REMARK    2  A    between atoms: O_4  and  C_5
REMARK    3  A    between atoms: C_5  and  C_7
REMARK                            x       y       z     vdW  Elec       q    Type
REMARK                         _______ _______ _______ _____ _____    ______ ____
ROOT
ATOM      1  C   UNL     1     -12.639  15.019  71.551  0.00  0.00    +0.294 C 
ATOM      2 CL   UNL     1     -11.965  16.325  72.756  0.00  0.00    -0.073 Cl
ENDROOT
BRANCH   1   3
ATOM      3  C   UNL     1     -14.160  15.121  72.081  0.00  0.00    +0.437 C 
ATOM      4  F   UNL     1     -14.179  16.025  73.098  0.00  0.00    -0.166 F 
ATOM      5  F   UNL     1     -14.416  13.832  72.535  0.00  0.00    -0.166 F 
ATOM      6  F   UNL     1     -14.970  15.392  71.029  0.00  0.00    -0.166 F 
ENDBRANCH   1   3
BRANCH   1   7
ATOM      7  O   UNL     1     -12.865  16.005  70.461  0.00  0.00    -0.278 OA
BRANCH   7   9
ATOM      8  F   UNL     1     -12.233  14.332  69.035  0.00  0.00    -0.166 F 
ATOM      9  C   UNL     1     -12.028  15.543  69.475  0.00  0.00    +0.451 C 
ATOM     10  F   UNL     1     -11.653  16.459  68.542  0.00  0.00    -0.166 F 
ENDBRANCH   7   9
ENDBRANCH   1   7
TORSDOF 3
ENDMDL
MODEL 8
REMARK VINA RESULT:      -4.3      7.525      8.056
REMARK  Name = 
REMARK  3 active torsions:
REMARK  status: ('A' for Active; 'I' for Inactive)
REMARK    1  A    between atoms: C_2  and  O_4
REMARK    2  A    between atoms: O_4  and  C_5
REMARK    3  A    between atoms: C_5  and  C_7
REMARK                            x       y       z     vdW  Elec       q    Type
REMARK                         _______ _______ _______ _____ _____    ______ ____
ROOT
ATOM      1  C   UNL     1     -11.202  13.910  64.862  0.00  0.00    +0.294 C 
ATOM      2 CL   UNL     1     -11.135  15.807  64.771  0.00  0.00    -0.073 Cl
ENDROOT
BRANCH   1   3
ATOM      3  C   UNL     1     -12.154  13.873  66.165  0.00  0.00    +0.437 C 
ATOM      4  F   UNL     1     -12.172  12.591  66.622  0.00  0.00    -0.166 F 
ATOM      5  F   UNL     1     -13.390  14.253  65.655  0.00  0.00    -0.166 F 
ATOM      6  F   UNL     1     -11.726  14.811  67.043  0.00  0.00    -0.166 F 
ENDBRANCH   1   3
BRANCH   1   7
ATOM      7  O   UNL     1     -12.348  13.811  63.918  0.00  0.00    -0.278 OA
BRANCH   7   9
ATOM      8  F   UNL     1     -10.838  12.219  63.273  0.00  0.00    -0.166 F 
ATOM      9  C   UNL     1     -12.071  12.647  63.247  0.00  0.00    +0.451 C 
ATOM     10  F   UNL     1     -13.034  11.689  63.304  0.00  0.00    -0.166 F 
ENDBRANCH   7   9
ENDBRANCH   1   7
TORSDOF 3
ENDMDL
MODEL 9
REMARK VINA RESULT:      -4.3      2.462      2.640
REMARK  Name = 
REMARK  3 active torsions:
REMARK  status: ('A' for Active; 'I' for Inactive)
REMARK    1  A    between atoms: C_2  and  O_4
REMARK    2  A    between atoms: O_4  and  C_5
REMARK    3  A    between atoms: C_5  and  C_7
REMARK                            x       y       z     vdW  Elec       q    Type
REMARK                         _______ _______ _______ _____ _____    ______ ____
ROOT
ATOM      1  C   UNL     1     -13.425  14.896  71.484  0.00  0.00    +0.294 C 
ATOM      2 CL   UNL     1     -13.727  13.213  72.313  0.00  0.00    -0.073 Cl
ENDROOT
BRANCH   1   3
ATOM      3  C   UNL     1     -13.057  15.658  72.859  0.00  0.00    +0.437 C 
ATOM      4  F   UNL     1     -12.766  14.706  73.788  0.00  0.00    -0.166 F 
ATOM      5  F   UNL     1     -14.234  16.330  73.165  0.00  0.00    -0.166 F 
ATOM      6  F   UNL     1     -12.080  16.562  72.607  0.00  0.00    -0.166 F 
ENDBRANCH   1   3
BRANCH   1   7
ATOM      7  O   UNL     1     -12.002  14.593  71.174  0.00  0.00    -0.278 OA
BRANCH   7   9
ATOM      8  F   UNL     1     -12.369  13.729  69.088  0.00  0.00    -0.166 F 
ATOM      9  C   UNL     1     -11.966  14.739  69.809  0.00  0.00    +0.451 C 
ATOM     10  F   UNL     1     -12.291  15.973  69.339  0.00  0.00    -0.166 F 
ENDBRANCH   7   9
ENDBRANCH   1   7
TORSDOF 3
ENDMDL
