MODEL 1
REMARK VINA RESULT:      -3.6      0.000      0.000
REMARK  Name = 
REMARK  3 active torsions:
REMARK  status: ('A' for Active; 'I' for Inactive)
REMARK    1  A    between atoms: N_2  and  C_3
REMARK    2  A    between atoms: C_3  and  C_4
REMARK    3  A    between atoms: C_4  and  O_7
REMARK                            x       y       z     vdW  Elec       q    Type
REMARK                         _______ _______ _______ _____ _____    ______ ____
ROOT
ATOM      1  C   UNL     1     -12.851  15.246  72.206  0.00  0.00    +0.180 C 
ATOM      2  C   UNL     1     -12.589  15.183  73.700  0.00  0.00    +0.038 C 
ATOM      3  C   UNL     1     -12.888  13.825  71.712  0.00  0.00    +0.038 C 
ENDROOT
BRANCH   1   4
ATOM      4  O   UNL     1     -14.091  15.883  72.041  0.00  0.00    -0.348 OA
ATOM      5  C   UNL     1     -15.052  14.994  71.569  0.00  0.00    +0.174 C 
ENDBRANCH   1   4
BRANCH   1   6
ATOM      6  C   UNL     1     -11.825  16.090  71.513  0.00  0.00    +0.438 C 
BRANCH   6   8
ATOM      7  C   UNL     1     -11.661  16.027  69.009  0.00  0.00    -0.236 C 
ATOM      8  N   UNL     1     -12.004  15.980  70.123  0.00  0.00    -0.285 NA
ENDBRANCH   6   8
ENDBRANCH   1   6
TORSDOF 3
ENDMDL
MODEL 2
REMARK VINA RESULT:      -3.5      1.190      2.048
REMARK  Name = 
REMARK  3 active torsions:
REMARK  status: ('A' for Active; 'I' for Inactive)
REMARK    1  A    between atoms: N_2  and  C_3
REMARK    2  A    between atoms: C_3  and  C_4
REMARK    3  A    between atoms: C_4  and  O_7
REMARK                            x       y       z     vdW  Elec       q    Type
REMARK                         _______ _______ _______ _____ _____    ______ ____
ROOT
ATOM      1  C   UNL     1     -13.777  15.125  71.988  0.00  0.00    +0.180 C 
ATOM      2  C   UNL     1     -13.502  13.708  72.459  0.00  0.00    +0.038 C 
ATOM      3  C   UNL     1     -15.174  15.132  71.430  0.00  0.00    +0.038 C 
ENDROOT
BRANCH   1   4
ATOM      4  O   UNL     1     -13.666  15.953  73.116  0.00  0.00    -0.348 OA
ATOM      5  C   UNL     1     -12.599  15.564  73.920  0.00  0.00    +0.174 C 
ENDBRANCH   1   4
BRANCH   1   6
ATOM      6  C   UNL     1     -12.741  15.577  71.004  0.00  0.00    +0.438 C 
BRANCH   6   8
ATOM      7  C   UNL     1     -12.036  14.029  69.158  0.00  0.00    -0.236 C 
ATOM      8  N   UNL     1     -12.426  14.507  70.148  0.00  0.00    -0.285 NA
ENDBRANCH   6   8
ENDBRANCH   1   6
TORSDOF 3
ENDMDL
MODEL 3
REMARK VINA RESULT:      -3.5      1.676      2.671
REMARK  Name = 
REMARK  3 active torsions:
REMARK  status: ('A' for Active; 'I' for Inactive)
REMARK    1  A    between atoms: N_2  and  C_3
REMARK    2  A    between atoms: C_3  and  C_4
REMARK    3  A    between atoms: C_4  and  O_7
REMARK                            x       y       z     vdW  Elec       q    Type
REMARK                         _______ _______ _______ _____ _____    ______ ____
ROOT
ATOM      1  C   UNL     1     -12.803  14.651  71.418  0.00  0.00    +0.180 C 
ATOM      2  C   UNL     1     -13.435  13.450  72.100  0.00  0.00    +0.038 C 
ATOM      3  C   UNL     1     -12.300  14.175  70.082  0.00  0.00    +0.038 C 
ENDROOT
BRANCH   1   4
ATOM      4  O   UNL     1     -13.815  15.613  71.276  0.00  0.00    -0.348 OA
ATOM      5  C   UNL     1     -15.072  15.051  71.478  0.00  0.00    +0.174 C 
ENDBRANCH   1   4
BRANCH   1   6
ATOM      6  C   UNL     1     -11.732  15.257  72.274  0.00  0.00    +0.438 C 
BRANCH   6   8
ATOM      7  C   UNL     1     -12.456  15.828  74.609  0.00  0.00    -0.236 C 
ATOM      8  N   UNL     1     -12.181  15.299  73.606  0.00  0.00    -0.285 NA
ENDBRANCH   6   8
ENDBRANCH   1   6
TORSDOF 3
ENDMDL
MODEL 4
REMARK VINA RESULT:      -3.5      1.063      1.746
REMARK  Name = 
REMARK  3 active torsions:
REMARK  status: ('A' for Active; 'I' for Inactive)
REMARK    1  A    between atoms: N_2  and  C_3
REMARK    2  A    between atoms: C_3  and  C_4
REMARK    3  A    between atoms: C_4  and  O_7
REMARK                            x       y       z     vdW  Elec       q    Type
REMARK                         _______ _______ _______ _____ _____    ______ ____
ROOT
ATOM      1  C   UNL     1     -12.772  15.191  72.340  0.00  0.00    +0.180 C 
ATOM      2  C   UNL     1     -14.237  15.544  72.153  0.00  0.00    +0.038 C 
ATOM      3  C   UNL     1     -12.506  15.221  73.821  0.00  0.00    +0.038 C 
ENDROOT
BRANCH   1   4
ATOM      4  O   UNL     1     -12.597  13.904  71.810  0.00  0.00    -0.348 OA
ATOM      5  C   UNL     1     -13.613  13.048  72.222  0.00  0.00    +0.174 C 
ENDBRANCH   1   4
BRANCH   1   6
ATOM      6  C   UNL     1     -11.890  16.117  71.558  0.00  0.00    +0.438 C 
BRANCH   6   8
ATOM      7  C   UNL     1     -11.838  15.892  69.059  0.00  0.00    -0.236 C 
ATOM      8  N   UNL     1     -12.135  15.932  70.187  0.00  0.00    -0.285 NA
ENDBRANCH   6   8
ENDBRANCH   1   6
TORSDOF 3
ENDMDL
MODEL 5
REMARK VINA RESULT:      -3.2      1.348      2.148
REMARK  Name = 
REMARK  3 active torsions:
REMARK  status: ('A' for Active; 'I' for Inactive)
REMARK    1  A    between atoms: N_2  and  C_3
REMARK    2  A    between atoms: C_3  and  C_4
REMARK    3  A    between atoms: C_4  and  O_7
REMARK                            x       y       z     vdW  Elec       q    Type
REMARK                         _______ _______ _______ _____ _____    ______ ____
ROOT
ATOM      1  C   UNL     1     -13.080  15.190  72.483  0.00  0.00    +0.180 C 
ATOM      2  C   UNL     1     -12.065  15.935  71.635  0.00  0.00    +0.038 C 
ATOM      3  C   UNL     1     -12.589  15.255  73.904  0.00  0.00    +0.038 C 
ENDROOT
BRANCH   1   4
ATOM      4  O   UNL     1     -14.304  15.860  72.328  0.00  0.00    -0.348 OA
ATOM      5  C   UNL     1     -15.169  15.140  71.509  0.00  0.00    +0.174 C 
ENDBRANCH   1   4
BRANCH   1   6
ATOM      6  C   UNL     1     -13.275  13.789  71.985  0.00  0.00    +0.438 C 
BRANCH   6   8
ATOM      7  C   UNL     1     -11.963  13.016  69.990  0.00  0.00    -0.236 C 
ATOM      8  N   UNL     1     -12.343  13.533  70.965  0.00  0.00    -0.285 NA
ENDBRANCH   6   8
ENDBRANCH   1   6
TORSDOF 3
ENDMDL
MODEL 6
REMARK VINA RESULT:      -3.2      6.036      7.355
REMARK  Name = 
REMARK  3 active torsions:
REMARK  status: ('A' for Active; 'I' for Inactive)
REMARK    1  A    between atoms: N_2  and  C_3
REMARK    2  A    between atoms: C_3  and  C_4
REMARK    3  A    between atoms: C_4  and  O_7
REMARK                            x       y       z     vdW  Elec       q    Type
REMARK                         _______ _______ _______ _____ _____    ______ ____
ROOT
ATOM      1  C   UNL     1     -11.988  13.332  65.118  0.00  0.00    +0.180 C 
ATOM      2  C   UNL     1     -10.668  12.855  64.537  0.00  0.00    +0.038 C 
ATOM      3  C   UNL     1     -12.230  14.711  64.566  0.00  0.00    +0.038 C 
ENDROOT
BRANCH   1   4
ATOM      4  O   UNL     1     -12.968  12.424  64.689  0.00  0.00    -0.348 OA
ATOM      5  C   UNL     1     -12.648  11.891  63.444  0.00  0.00    +0.174 C 
ENDBRANCH   1   4
BRANCH   1   6
ATOM      6  C   UNL     1     -11.966  13.286  66.616  0.00  0.00    +0.438 C 
BRANCH   6   8
ATOM      7  C   UNL     1     -11.398  11.080  67.671  0.00  0.00    -0.236 C 
ATOM      8  N   UNL     1     -11.842  11.948  67.030  0.00  0.00    -0.285 NA
ENDBRANCH   6   8
ENDBRANCH   1   6
TORSDOF 3
ENDMDL
MODEL 7
REMARK VINA RESULT:      -3.2      5.176      6.388
REMARK  Name = 
REMARK  3 active torsions:
REMARK  status: ('A' for Active; 'I' for Inactive)
REMARK    1  A    between atoms: N_2  and  C_3
REMARK    2  A    between atoms: C_3  and  C_4
REMARK    3  A    between atoms: C_4  and  O_7
REMARK                            x       y       z     vdW  Elec       q    Type
REMARK                         _______ _______ _______ _____ _____    ______ ____
ROOT
ATOM      1  C   UNL     1     -11.699  13.305  66.505  0.00  0.00    +0.180 C 
ATOM      2  C   UNL     1     -11.887  14.204  67.714  0.00  0.00    +0.038 C 
ATOM      3  C   UNL     1     -10.247  13.399  66.118  0.00  0.00    +0.038 C 
ENDROOT
BRANCH   1   4
ATOM      4  O   UNL     1     -12.042  12.006  66.911  0.00  0.00    -0.348 OA
ATOM      5  C   UNL     1     -11.638  11.767  68.221  0.00  0.00    +0.174 C 
ENDBRANCH   1   4
BRANCH   1   6
ATOM      6  C   UNL     1     -12.635  13.685  65.398  0.00  0.00    +0.438 C 
BRANCH   6   8
ATOM      7  C   UNL     1     -12.479  12.095  63.462  0.00  0.00    -0.236 C 
ATOM      8  N   UNL     1     -12.707  12.627  64.476  0.00  0.00    -0.285 NA
ENDBRANCH   6   8
ENDBRANCH   1   6
TORSDOF 3
ENDMDL
MODEL 8
REMARK VINA RESULT:      -3.2      2.014      3.262
REMARK  Name = 
REMARK  3 active torsions:
REMARK  status: ('A' for Active; 'I' for Inactive)
REMARK    1  A    between atoms: N_2  and  C_3
REMARK    2  A    between atoms: C_3  and  C_4
REMARK    3  A    between atoms: C_4  and  O_7
REMARK                            x       y       z     vdW  Elec       q    Type
REMARK                         _______ _______ _______ _____ _____    ______ ____
ROOT
ATOM      1  C   UNL     1     -13.358  14.733  71.852  0.00  0.00    +0.180 C 
ATOM      2  C   UNL     1     -12.736  14.304  70.534  0.00  0.00    +0.038 C 
ATOM      3  C   UNL     1     -14.786  15.104  71.557  0.00  0.00    +0.038 C 
ENDROOT
BRANCH   1   4
ATOM      4  O   UNL     1     -13.278  13.629  72.714  0.00  0.00    -0.348 OA
ATOM      5  C   UNL     1     -13.329  12.434  72.003  0.00  0.00    +0.174 C 
ENDBRANCH   1   4
BRANCH   1   6
ATOM      6  C   UNL     1     -12.573  15.844  72.482  0.00  0.00    +0.438 C 
BRANCH   6   8
ATOM      7  C   UNL     1     -12.445  16.039  74.981  0.00  0.00    -0.236 C 
ATOM      8  N   UNL     1     -12.716  15.771  73.878  0.00  0.00    -0.285 NA
ENDBRANCH   6   8
ENDBRANCH   1   6
TORSDOF 3
ENDMDL
MODEL 9
REMARK VINA RESULT:      -3.1      1.926      3.034
REMARK  Name = 
REMARK  3 active torsions:
REMARK  status: ('A' for Active; 'I' for Inactive)
REMARK    1  A    between atoms: N_2  and  C_3
REMARK    2  A    between atoms: C_3  and  C_4
REMARK    3  A    between atoms: C_4  and  O_7
REMARK                            x       y       z     vdW  Elec       q    Type
REMARK                         _______ _______ _______ _____ _____    ______ ____
ROOT
ATOM      1  C   UNL     1     -13.385  14.406  72.017  0.00  0.00    +0.180 C 
ATOM      2  C   UNL     1     -12.950  15.028  73.332  0.00  0.00    +0.038 C 
ATOM      3  C   UNL     1     -14.705  15.031  71.657  0.00  0.00    +0.038 C 
ENDROOT
BRANCH   1   4
ATOM      4  O   UNL     1     -12.392  14.718  71.076  0.00  0.00    -0.348 OA
ATOM      5  C   UNL     1     -11.807  15.950  71.354  0.00  0.00    +0.174 C 
ENDBRANCH   1   4
BRANCH   1   6
ATOM      6  C   UNL     1     -13.443  12.911  72.120  0.00  0.00    +0.438 C 
BRANCH   6   8
ATOM      7  C   UNL     1     -12.169  11.473  70.506  0.00  0.00    -0.236 C 
ATOM      8  N   UNL     1     -12.658  12.351  71.098  0.00  0.00    -0.285 NA
ENDBRANCH   6   8
ENDBRANCH   1   6
TORSDOF 3
ENDMDL
