MODEL 1
REMARK VINA RESULT:      -4.7      0.000      0.000
REMARK  Name = 
REMARK  3 active torsions:
REMARK  status: ('A' for Active; 'I' for Inactive)
REMARK    1  A    between atoms: C_3  and  C_4
REMARK    2  A    between atoms: N_6  and  C_7
REMARK    3  A    between atoms: N_6  and  C_9
REMARK                            x       y       z     vdW  Elec       q    Type
REMARK                         _______ _______ _______ _____ _____    ______ ____
ROOT
ATOM      1  C   UNL     1     -10.725  15.573  65.349  0.00  0.00    +0.253 C 
ATOM      2  N   UNL     1      -9.901  15.813  66.497  0.00  0.00    -0.255 N 
ATOM      3  O   UNL     1     -10.956  16.548  64.574  0.00  0.00    -0.270 OA
ENDROOT
BRANCH   2   4
ATOM      4  C   UNL     1     -10.431  15.475  67.768  0.00  0.00    +0.050 A 
ATOM      5  C   UNL     1     -10.234  14.181  68.232  0.00  0.00    -0.008 A 
ATOM      6  C   UNL     1      -8.941  13.494  67.919  0.00  0.00    +0.032 C 
ATOM      7  C   UNL     1     -11.175  13.603  69.075  0.00  0.00    -0.003 A 
ATOM      8  C   UNL     1     -12.129  14.409  69.683  0.00  0.00    -0.000 A 
ATOM      9  C   UNL     1     -11.932  15.785  69.625  0.00  0.00    +0.001 A 
ATOM     10  C   UNL     1     -11.301  16.262  68.482  0.00  0.00    +0.015 A 
ENDBRANCH   2   4
BRANCH   1  13
ATOM     11  C   UNL     1     -12.679  13.628  65.423  0.00  0.00    +0.031 C 
ATOM     12  C   UNL     1     -11.304  13.276  64.961  0.00  0.00    -0.021 C 
ATOM     13  C   UNL     1     -10.479  14.285  64.687  0.00  0.00    +0.054 C 
ENDBRANCH   1  13
BRANCH   2  14
ATOM     14  C   UNL     1      -8.503  16.042  66.233  0.00  0.00    +0.099 C 
ATOM     15  C   UNL     1      -8.074  17.461  66.461  0.00  0.00    +0.024 C 
ENDBRANCH   2  14
TORSDOF 3
ENDMDL
MODEL 2
REMARK VINA RESULT:      -4.6      1.655      3.286
REMARK  Name = 
REMARK  3 active torsions:
REMARK  status: ('A' for Active; 'I' for Inactive)
REMARK    1  A    between atoms: C_3  and  C_4
REMARK    2  A    between atoms: N_6  and  C_7
REMARK    3  A    between atoms: N_6  and  C_9
REMARK                            x       y       z     vdW  Elec       q    Type
REMARK                         _______ _______ _______ _____ _____    ______ ____
ROOT
ATOM      1  C   UNL     1      -9.465  17.412  66.377  0.00  0.00    +0.253 C 
ATOM      2  N   UNL     1     -10.190  16.178  66.302  0.00  0.00    -0.255 N 
ATOM      3  O   UNL     1      -8.383  17.502  65.725  0.00  0.00    -0.270 OA
ENDROOT
BRANCH   2   4
ATOM      4  C   UNL     1     -10.502  15.525  67.522  0.00  0.00    +0.050 A 
ATOM      5  C   UNL     1      -9.837  14.341  67.815  0.00  0.00    -0.008 A 
ATOM      6  C   UNL     1      -8.403  14.202  67.410  0.00  0.00    +0.032 C 
ATOM      7  C   UNL     1     -10.469  13.370  68.582  0.00  0.00    -0.003 A 
ATOM      8  C   UNL     1     -11.615  13.705  69.293  0.00  0.00    -0.000 A 
ATOM      9  C   UNL     1     -11.919  15.057  69.412  0.00  0.00    +0.001 A 
ATOM     10  C   UNL     1     -11.556  15.860  68.336  0.00  0.00    +0.015 A 
ENDBRANCH   2   4
BRANCH   1  13
ATOM     11  C   UNL     1      -9.484  19.071  68.580  0.00  0.00    +0.031 C 
ATOM     12  C   UNL     1     -10.518  19.244  67.518  0.00  0.00    -0.021 C 
ATOM     13  C   UNL     1     -10.312  18.612  66.364  0.00  0.00    +0.054 C 
ENDBRANCH   1  13
BRANCH   2  14
ATOM     14  C   UNL     1     -10.830  15.898  65.042  0.00  0.00    +0.099 C 
ATOM     15  C   UNL     1     -11.328  14.489  64.922  0.00  0.00    +0.024 C 
ENDBRANCH   2  14
TORSDOF 3
ENDMDL
MODEL 3
REMARK VINA RESULT:      -4.4      2.213      3.984
REMARK  Name = 
REMARK  3 active torsions:
REMARK  status: ('A' for Active; 'I' for Inactive)
REMARK    1  A    between atoms: C_3  and  C_4
REMARK    2  A    between atoms: N_6  and  C_7
REMARK    3  A    between atoms: N_6  and  C_9
REMARK                            x       y       z     vdW  Elec       q    Type
REMARK                         _______ _______ _______ _____ _____    ______ ____
ROOT
ATOM      1  C   UNL     1     -11.243  12.421  66.968  0.00  0.00    +0.253 C 
ATOM      2  N   UNL     1     -11.559  13.762  66.572  0.00  0.00    -0.255 N 
ATOM      3  O   UNL     1     -12.053  11.826  67.739  0.00  0.00    -0.270 OA
ENDROOT
BRANCH   2   4
ATOM      4  C   UNL     1     -10.589  14.765  66.820  0.00  0.00    +0.050 A 
ATOM      5  C   UNL     1     -10.922  15.791  67.697  0.00  0.00    -0.008 A 
ATOM      6  C   UNL     1     -11.774  15.471  68.886  0.00  0.00    +0.032 C 
ATOM      7  C   UNL     1     -10.361  17.050  67.526  0.00  0.00    -0.003 A 
ATOM      8  C   UNL     1      -9.261  17.196  66.690  0.00  0.00    -0.000 A 
ATOM      9  C   UNL     1      -8.617  16.035  66.274  0.00  0.00    +0.001 A 
ATOM     10  C   UNL     1      -9.426  14.917  66.105  0.00  0.00    +0.015 A 
ENDBRANCH   2   4
BRANCH   1  13
ATOM     11  C   UNL     1      -8.693  11.416  67.270  0.00  0.00    +0.031 C 
ATOM     12  C   UNL     1      -9.358  11.349  65.936  0.00  0.00    -0.021 C 
ATOM     13  C   UNL     1     -10.667  11.595  65.899  0.00  0.00    +0.054 C 
ENDBRANCH   1  13
BRANCH   2  14
ATOM     14  C   UNL     1     -12.663  13.905  65.657  0.00  0.00    +0.099 C 
ATOM     15  C   UNL     1     -12.296  14.590  64.375  0.00  0.00    +0.024 C 
ENDBRANCH   2  14
TORSDOF 3
ENDMDL
MODEL 4
REMARK VINA RESULT:      -4.4      1.798      3.500
REMARK  Name = 
REMARK  3 active torsions:
REMARK  status: ('A' for Active; 'I' for Inactive)
REMARK    1  A    between atoms: C_3  and  C_4
REMARK    2  A    between atoms: N_6  and  C_7
REMARK    3  A    between atoms: N_6  and  C_9
REMARK                            x       y       z     vdW  Elec       q    Type
REMARK                         _______ _______ _______ _____ _____    ______ ____
ROOT
ATOM      1  C   UNL     1     -10.262  14.913  66.820  0.00  0.00    +0.253 C 
ATOM      2  N   UNL     1     -11.331  13.997  67.092  0.00  0.00    -0.255 N 
ATOM      3  O   UNL     1      -9.497  14.654  65.845  0.00  0.00    -0.270 OA
ENDROOT
BRANCH   2   4
ATOM      4  C   UNL     1     -11.409  13.448  68.397  0.00  0.00    +0.050 A 
ATOM      5  C   UNL     1     -10.995  12.134  68.577  0.00  0.00    -0.008 A 
ATOM      6  C   UNL     1      -9.829  11.633  67.784  0.00  0.00    +0.032 C 
ATOM      7  C   UNL     1     -11.582  11.359  69.569  0.00  0.00    -0.003 A 
ATOM      8  C   UNL     1     -12.342  11.977  70.554  0.00  0.00    -0.000 A 
ATOM      9  C   UNL     1     -12.258  13.362  70.649  0.00  0.00    +0.001 A 
ATOM     10  C   UNL     1     -12.054  14.043  69.454  0.00  0.00    +0.015 A 
ENDBRANCH   2   4
BRANCH   1  13
ATOM     11  C   UNL     1      -9.079  16.378  68.835  0.00  0.00    +0.031 C 
ATOM     12  C   UNL     1     -10.257  16.939  68.109  0.00  0.00    -0.021 C 
ATOM     13  C   UNL     1     -10.622  16.327  66.983  0.00  0.00    +0.054 C 
ENDBRANCH   1  13
BRANCH   2  14
ATOM     14  C   UNL     1     -12.412  13.990  66.140  0.00  0.00    +0.099 C 
ATOM     15  C   UNL     1     -12.407  12.793  65.236  0.00  0.00    +0.024 C 
ENDBRANCH   2  14
TORSDOF 3
ENDMDL
MODEL 5
REMARK VINA RESULT:      -4.4      2.270      3.923
REMARK  Name = 
REMARK  3 active torsions:
REMARK  status: ('A' for Active; 'I' for Inactive)
REMARK    1  A    between atoms: C_3  and  C_4
REMARK    2  A    between atoms: N_6  and  C_7
REMARK    3  A    between atoms: N_6  and  C_9
REMARK                            x       y       z     vdW  Elec       q    Type
REMARK                         _______ _______ _______ _____ _____    ______ ____
ROOT
ATOM      1  C   UNL     1     -10.707  14.672  67.754  0.00  0.00    +0.253 C 
ATOM      2  N   UNL     1     -10.854  15.901  68.478  0.00  0.00    -0.255 N 
ATOM      3  O   UNL     1     -10.239  13.673  68.376  0.00  0.00    -0.270 OA
ENDROOT
BRANCH   2   4
ATOM      4  C   UNL     1     -10.227  17.056  67.945  0.00  0.00    +0.050 A 
ATOM      5  C   UNL     1      -9.008  17.444  68.489  0.00  0.00    -0.008 A 
ATOM      6  C   UNL     1      -8.046  16.385  68.926  0.00  0.00    +0.032 C 
ATOM      7  C   UNL     1      -8.659  18.789  68.500  0.00  0.00    -0.003 A 
ATOM      8  C   UNL     1      -9.371  19.682  67.709  0.00  0.00    -0.000 A 
ATOM      9  C   UNL     1     -10.224  19.146  66.750  0.00  0.00    +0.001 A 
ATOM     10  C   UNL     1     -10.826  17.936  67.078  0.00  0.00    +0.015 A 
ENDBRANCH   2   4
BRANCH   1  13
ATOM     11  C   UNL     1     -10.208  14.619  65.042  0.00  0.00    +0.031 C 
ATOM     12  C   UNL     1     -11.618  14.624  65.533  0.00  0.00    -0.021 C 
ATOM     13  C   UNL     1     -11.809  14.381  66.828  0.00  0.00    +0.054 C 
ENDBRANCH   1  13
BRANCH   2  14
ATOM     14  C   UNL     1     -11.897  15.926  69.471  0.00  0.00    +0.099 C 
ATOM     15  C   UNL     1     -11.386  15.885  70.880  0.00  0.00    +0.024 C 
ENDBRANCH   2  14
TORSDOF 3
ENDMDL
MODEL 6
REMARK VINA RESULT:      -4.4      2.922      4.768
REMARK  Name = 
REMARK  3 active torsions:
REMARK  status: ('A' for Active; 'I' for Inactive)
REMARK    1  A    between atoms: C_3  and  C_4
REMARK    2  A    between atoms: N_6  and  C_7
REMARK    3  A    between atoms: N_6  and  C_9
REMARK                            x       y       z     vdW  Elec       q    Type
REMARK                         _______ _______ _______ _____ _____    ______ ____
ROOT
ATOM      1  C   UNL     1     -10.730  13.752  65.924  0.00  0.00    +0.253 C 
ATOM      2  N   UNL     1     -11.285  12.465  65.622  0.00  0.00    -0.255 N 
ATOM      3  O   UNL     1     -10.224  14.415  64.970  0.00  0.00    -0.270 OA
ENDROOT
BRANCH   2   4
ATOM      4  C   UNL     1     -10.800  11.353  66.356  0.00  0.00    +0.050 A 
ATOM      5  C   UNL     1     -10.011  10.426  65.686  0.00  0.00    -0.008 A 
ATOM      6  C   UNL     1      -9.062  10.914  64.637  0.00  0.00    +0.032 C 
ATOM      7  C   UNL     1     -10.026   9.095  66.086  0.00  0.00    -0.003 A 
ATOM      8  C   UNL     1     -10.577   8.762  67.318  0.00  0.00    -0.000 A 
ATOM      9  C   UNL     1     -10.846   9.804  68.199  0.00  0.00    +0.001 A 
ATOM     10  C   UNL     1     -11.217  11.012  67.619  0.00  0.00    +0.015 A 
ENDBRANCH   2   4
BRANCH   1  13
ATOM     11  C   UNL     1      -9.615  14.348  68.375  0.00  0.00    +0.031 C 
ATOM     12  C   UNL     1     -11.072  14.579  68.152  0.00  0.00    -0.021 C 
ATOM     13  C   UNL     1     -11.508  14.534  66.894  0.00  0.00    +0.054 C 
ENDBRANCH   1  13
BRANCH   2  14
ATOM     14  C   UNL     1     -12.511  12.469  64.866  0.00  0.00    +0.099 C 
ATOM     15  C   UNL     1     -12.328  12.104  63.424  0.00  0.00    +0.024 C 
ENDBRANCH   2  14
TORSDOF 3
ENDMDL
MODEL 7
REMARK VINA RESULT:      -4.4      7.161      8.818
REMARK  Name = 
REMARK  3 active torsions:
REMARK  status: ('A' for Active; 'I' for Inactive)
REMARK    1  A    between atoms: C_3  and  C_4
REMARK    2  A    between atoms: N_6  and  C_7
REMARK    3  A    between atoms: N_6  and  C_9
REMARK                            x       y       z     vdW  Elec       q    Type
REMARK                         _______ _______ _______ _____ _____    ______ ____
ROOT
ATOM      1  C   UNL     1      -9.779   7.576  70.117  0.00  0.00    +0.253 C 
ATOM      2  N   UNL     1     -10.442   8.024  71.307  0.00  0.00    -0.255 N 
ATOM      3  O   UNL     1      -8.864   8.310  69.639  0.00  0.00    -0.270 OA
ENDROOT
BRANCH   2   4
ATOM      4  C   UNL     1     -11.855   8.138  71.268  0.00  0.00    +0.050 A 
ATOM      5  C   UNL     1     -12.408   9.410  71.352  0.00  0.00    -0.008 A 
ATOM      6  C   UNL     1     -11.696  10.549  70.692  0.00  0.00    +0.032 C 
ATOM      7  C   UNL     1     -13.661   9.577  71.929  0.00  0.00    -0.003 A 
ATOM      8  C   UNL     1     -14.468   8.464  72.135  0.00  0.00    -0.000 A 
ATOM      9  C   UNL     1     -14.091   7.279  71.514  0.00  0.00    +0.001 A 
ATOM     10  C   UNL     1     -12.723   7.078  71.363  0.00  0.00    +0.015 A 
ENDBRANCH   2   4
BRANCH   1  13
ATOM     11  C   UNL     1     -10.966   6.041  68.157  0.00  0.00    +0.031 C 
ATOM     12  C   UNL     1     -10.296   5.374  69.312  0.00  0.00    -0.021 C 
ATOM     13  C   UNL     1      -9.516   6.132  70.080  0.00  0.00    +0.054 C 
ENDBRANCH   1  13
BRANCH   2  14
ATOM     14  C   UNL     1      -9.662   7.981  72.517  0.00  0.00    +0.099 C 
ATOM     15  C   UNL     1     -10.281   7.153  73.602  0.00  0.00    +0.024 C 
ENDBRANCH   2  14
TORSDOF 3
ENDMDL
MODEL 8
REMARK VINA RESULT:      -4.4      2.076      3.718
REMARK  Name = 
REMARK  3 active torsions:
REMARK  status: ('A' for Active; 'I' for Inactive)
REMARK    1  A    between atoms: C_3  and  C_4
REMARK    2  A    between atoms: N_6  and  C_7
REMARK    3  A    between atoms: N_6  and  C_9
REMARK                            x       y       z     vdW  Elec       q    Type
REMARK                         _______ _______ _______ _____ _____    ______ ____
ROOT
ATOM      1  C   UNL     1     -11.492  12.551  66.377  0.00  0.00    +0.253 C 
ATOM      2  N   UNL     1     -11.033  13.584  67.259  0.00  0.00    -0.255 N 
ATOM      3  O   UNL     1     -11.722  11.408  66.874  0.00  0.00    -0.270 OA
ENDROOT
BRANCH   2   4
ATOM      4  C   UNL     1      -9.820  14.238  66.927  0.00  0.00    +0.050 A 
ATOM      5  C   UNL     1      -8.656  13.808  67.553  0.00  0.00    -0.008 A 
ATOM      6  C   UNL     1      -8.492  12.349  67.841  0.00  0.00    +0.032 C 
ATOM      7  C   UNL     1      -7.626  14.712  67.782  0.00  0.00    -0.003 A 
ATOM      8  C   UNL     1      -7.637  15.936  67.124  0.00  0.00    -0.000 A 
ATOM      9  C   UNL     1      -8.535  16.087  66.074  0.00  0.00    +0.001 A 
ATOM     10  C   UNL     1      -9.736  15.397  66.195  0.00  0.00    +0.015 A 
ENDBRANCH   2   4
BRANCH   1  13
ATOM     11  C   UNL     1     -10.807  12.406  63.709  0.00  0.00    +0.031 C 
ATOM     12  C   UNL     1     -12.014  13.182  64.119  0.00  0.00    -0.021 C 
ATOM     13  C   UNL     1     -12.454  13.004  65.364  0.00  0.00    +0.054 C 
ENDBRANCH   1  13
BRANCH   2  14
ATOM     14  C   UNL     1     -12.006  14.094  68.191  0.00  0.00    +0.099 C 
ATOM     15  C   UNL     1     -11.763  13.664  69.607  0.00  0.00    +0.024 C 
ENDBRANCH   2  14
TORSDOF 3
ENDMDL
MODEL 9
REMARK VINA RESULT:      -4.4      1.922      3.934
REMARK  Name = 
REMARK  3 active torsions:
REMARK  status: ('A' for Active; 'I' for Inactive)
REMARK    1  A    between atoms: C_3  and  C_4
REMARK    2  A    between atoms: N_6  and  C_7
REMARK    3  A    between atoms: N_6  and  C_9
REMARK                            x       y       z     vdW  Elec       q    Type
REMARK                         _______ _______ _______ _____ _____    ______ ____
ROOT
ATOM      1  C   UNL     1      -9.237  17.241  67.613  0.00  0.00    +0.253 C 
ATOM      2  N   UNL     1      -9.294  15.922  67.055  0.00  0.00    -0.255 N 
ATOM      3  O   UNL     1      -8.901  17.354  68.829  0.00  0.00    -0.270 OA
ENDROOT
BRANCH   2   4
ATOM      4  C   UNL     1     -10.510  15.517  66.449  0.00  0.00    +0.050 A 
ATOM      5  C   UNL     1     -11.402  14.773  67.212  0.00  0.00    -0.008 A 
ATOM      6  C   UNL     1     -11.531  15.081  68.671  0.00  0.00    +0.032 C 
ATOM      7  C   UNL     1     -12.238  13.855  66.590  0.00  0.00    -0.003 A 
ATOM      8  C   UNL     1     -12.394  13.904  65.209  0.00  0.00    -0.000 A 
ATOM      9  C   UNL     1     -11.914  15.032  64.554  0.00  0.00    +0.001 A 
ATOM     10  C   UNL     1     -10.785  15.625  65.107  0.00  0.00    +0.015 A 
ENDBRANCH   2   4
BRANCH   1  13
ATOM     11  C   UNL     1     -10.736  19.482  67.029  0.00  0.00    +0.031 C 
ATOM     12  C   UNL     1      -9.513  19.182  66.227  0.00  0.00    -0.021 C 
ATOM     13  C   UNL     1      -8.684  18.257  66.708  0.00  0.00    +0.054 C 
ENDBRANCH   1  13
BRANCH   2  14
ATOM     14  C   UNL     1      -8.026  15.269  66.850  0.00  0.00    +0.099 C 
ATOM     15  C   UNL     1      -7.872  13.999  67.632  0.00  0.00    +0.024 C 
ENDBRANCH   2  14
TORSDOF 3
ENDMDL
