MODEL 1
REMARK VINA RESULT:      -7.2      0.000      0.000
REMARK  Name = 
REMARK  4 active torsions:
REMARK  status: ('A' for Active; 'I' for Inactive)
REMARK    1  A    between atoms: O_2  and  N_3
REMARK    2  A    between atoms: C_16  and  C_17
REMARK    3  A    between atoms: N_21  and  C_22
REMARK    4  A    between atoms: C_26  and  C_27
REMARK                            x       y       z     vdW  Elec       q    Type
REMARK                         _______ _______ _______ _____ _____    ______ ____
ROOT
ATOM      1  N   UNL     1      -6.204  20.777  68.219  0.00  0.00    -0.090 NA
ATOM      2  C   UNL     1      -5.967  19.938  67.250  0.00  0.00    +0.097 C 
ATOM      3  C   UNL     1      -6.852  20.123  65.895  0.00  0.00    +0.080 C 
ATOM      4  C   UNL     1      -6.283  18.694  65.270  0.00  0.00    +0.100 C 
ATOM      5  N   UNL     1      -6.790  17.907  66.396  0.00  0.00    -0.286 N 
ATOM      6  C   UNL     1      -8.003  17.168  66.463  0.00  0.00    +0.161 A 
ATOM      7  C   UNL     1      -9.161  17.939  66.498  0.00  0.00    +0.172 A 
ATOM      8  F   UNL     1      -9.239  18.924  67.438  0.00  0.00    -0.201 F 
ATOM      9  C   UNL     1     -10.282  17.402  65.878  0.00  0.00    +0.039 A 
ATOM     10  C   UNL     1     -10.245  16.030  65.655  0.00  0.00    +0.076 A 
ATOM     11  C   UNL     1     -11.265  15.438  64.933  0.00  0.00    +0.206 A 
ATOM     12  C   UNL     1     -11.486  14.093  65.197  0.00  0.00    +0.136 A 
ATOM     13  C   UNL     1     -10.663  13.432  66.103  0.00  0.00    +0.087 A 
ATOM     14  N   UNL     1      -9.560  14.002  66.630  0.00  0.00    -0.313 N 
ATOM     15  O   UNL     1     -11.760  16.049  63.966  0.00  0.00    -0.286 OA
ATOM     16  C   UNL     1      -9.224  15.223  66.146  0.00  0.00    +0.148 A 
ATOM     17  N   UNL     1      -8.051  15.813  66.490  0.00  0.00    -0.211 NA
ATOM     18  C   UNL     1      -6.055  18.470  67.508  0.00  0.00    +0.137 C 
ENDROOT
BRANCH  14  19
ATOM     19  C   UNL     1      -8.879  13.472  67.807  0.00  0.00    +0.087 C 
ATOM     20  C   UNL     1      -7.758  12.530  67.694  0.00  0.00    +0.025 C 
ATOM     21  C   UNL     1      -9.144  11.955  67.988  0.00  0.00    +0.025 C 
ENDBRANCH  14  19
BRANCH  12  22
ATOM     22  C   UNL     1     -12.256  13.340  64.200  0.00  0.00    +0.392 C 
ATOM     23  O   UNL     1     -13.326  12.590  64.673  0.00  0.00    -0.240 OA
ATOM     24  O   UNL     1     -11.573  12.807  63.277  0.00  0.00    -0.240 OA
ENDBRANCH  12  22
BRANCH   1  26
ATOM     25  C   UNL     1      -4.949  20.785  70.293  0.00  0.00    +0.288 C 
ATOM     26  O   UNL     1      -6.057  20.373  69.536  0.00  0.00    -0.374 OA
ENDBRANCH   1  26
BRANCH   3  27
ATOM     27  C   UNL     1      -5.642  20.986  65.158  0.00  0.00    +0.117 C 
ATOM     28  N   UNL     1      -5.998  20.749  63.761  0.00  0.00    -0.131 NA
ENDBRANCH   3  27
TORSDOF 4
ENDMDL
MODEL 2
REMARK VINA RESULT:      -7.0      2.276      2.652
REMARK  Name = 
REMARK  4 active torsions:
REMARK  status: ('A' for Active; 'I' for Inactive)
REMARK    1  A    between atoms: O_2  and  N_3
REMARK    2  A    between atoms: C_16  and  C_17
REMARK    3  A    between atoms: N_21  and  C_22
REMARK    4  A    between atoms: C_26  and  C_27
REMARK                            x       y       z     vdW  Elec       q    Type
REMARK                         _______ _______ _______ _____ _____    ______ ____
ROOT
ATOM      1  N   UNL     1      -5.183  20.409  69.371  0.00  0.00    -0.090 NA
ATOM      2  C   UNL     1      -5.068  19.147  69.063  0.00  0.00    +0.097 C 
ATOM      3  C   UNL     1      -5.247  18.763  67.489  0.00  0.00    +0.080 C 
ATOM      4  C   UNL     1      -5.258  17.140  67.837  0.00  0.00    +0.100 C 
ATOM      5  N   UNL     1      -6.421  17.255  68.719  0.00  0.00    -0.286 N 
ATOM      6  C   UNL     1      -7.783  16.996  68.399  0.00  0.00    +0.161 A 
ATOM      7  C   UNL     1      -8.368  17.912  67.531  0.00  0.00    +0.172 A 
ATOM      8  F   UNL     1      -8.275  19.236  67.847  0.00  0.00    -0.201 F 
ATOM      9  C   UNL     1      -9.329  17.415  66.660  0.00  0.00    +0.039 A 
ATOM     10  C   UNL     1      -9.880  16.188  67.012  0.00  0.00    +0.076 A 
ATOM     11  C   UNL     1     -10.751  15.565  66.137  0.00  0.00    +0.206 A 
ATOM     12  C   UNL     1     -11.661  14.690  66.716  0.00  0.00    +0.136 A 
ATOM     13  C   UNL     1     -11.609  14.462  68.087  0.00  0.00    +0.087 A 
ATOM     14  N   UNL     1     -10.616  14.938  68.864  0.00  0.00    -0.313 N 
ATOM     15  O   UNL     1     -10.539  15.641  64.911  0.00  0.00    -0.286 OA
ATOM     16  C   UNL     1      -9.599  15.566  68.224  0.00  0.00    +0.148 A 
ATOM     17  N   UNL     1      -8.478  15.941  68.892  0.00  0.00    -0.211 NA
ATOM     18  C   UNL     1      -5.926  18.138  69.752  0.00  0.00    +0.137 C 
ENDROOT
BRANCH  14  19
ATOM     19  C   UNL     1     -10.708  14.998  70.320  0.00  0.00    +0.087 C 
ATOM     20  C   UNL     1     -11.935  14.623  71.034  0.00  0.00    +0.025 C 
ATOM     21  C   UNL     1     -11.682  16.110  70.787  0.00  0.00    +0.025 C 
ENDBRANCH  14  19
BRANCH  12  22
ATOM     22  C   UNL     1     -12.314  13.727  65.821  0.00  0.00    +0.392 C 
ATOM     23  O   UNL     1     -13.563  14.081  65.327  0.00  0.00    -0.240 OA
ATOM     24  O   UNL     1     -12.169  12.510  66.136  0.00  0.00    -0.240 OA
ENDBRANCH  12  22
BRANCH   1  26
ATOM     25  C   UNL     1      -4.856  20.893  71.723  0.00  0.00    +0.288 C 
ATOM     26  O   UNL     1      -5.695  20.775  70.604  0.00  0.00    -0.374 OA
ENDBRANCH   1  26
BRANCH   3  27
ATOM     27  C   UNL     1      -3.606  18.753  67.249  0.00  0.00    +0.117 C 
ATOM     28  N   UNL     1      -3.507  19.812  66.247  0.00  0.00    -0.131 NA
ENDBRANCH   3  27
TORSDOF 4
ENDMDL
MODEL 3
REMARK VINA RESULT:      -6.9      4.081      5.353
REMARK  Name = 
REMARK  4 active torsions:
REMARK  status: ('A' for Active; 'I' for Inactive)
REMARK    1  A    between atoms: O_2  and  N_3
REMARK    2  A    between atoms: C_16  and  C_17
REMARK    3  A    between atoms: N_21  and  C_22
REMARK    4  A    between atoms: C_26  and  C_27
REMARK                            x       y       z     vdW  Elec       q    Type
REMARK                         _______ _______ _______ _____ _____    ______ ____
ROOT
ATOM      1  N   UNL     1      -8.688  18.894  66.123  0.00  0.00    -0.090 NA
ATOM      2  C   UNL     1      -8.202  18.176  67.098  0.00  0.00    +0.097 C 
ATOM      3  C   UNL     1      -7.736  16.660  66.722  0.00  0.00    +0.080 C 
ATOM      4  C   UNL     1      -7.514  16.280  68.324  0.00  0.00    +0.100 C 
ATOM      5  N   UNL     1      -8.907  16.574  68.668  0.00  0.00    -0.286 N 
ATOM      6  C   UNL     1      -9.982  15.651  68.800  0.00  0.00    +0.161 A 
ATOM      7  C   UNL     1     -10.412  15.075  67.610  0.00  0.00    +0.172 A 
ATOM      8  F   UNL     1     -10.725  15.909  66.577  0.00  0.00    -0.201 F 
ATOM      9  C   UNL     1     -10.879  13.768  67.687  0.00  0.00    +0.039 A 
ATOM     10  C   UNL     1     -11.237  13.334  68.958  0.00  0.00    +0.076 A 
ATOM     11  C   UNL     1     -11.592  12.010  69.141  0.00  0.00    +0.206 A 
ATOM     12  C   UNL     1     -12.434  11.756  70.216  0.00  0.00    +0.136 A 
ATOM     13  C   UNL     1     -12.813  12.806  71.046  0.00  0.00    +0.087 A 
ATOM     14  N   UNL     1     -12.281  14.040  70.944  0.00  0.00    -0.313 N 
ATOM     15  O   UNL     1     -10.989  11.125  68.503  0.00  0.00    -0.286 OA
ATOM     16  C   UNL     1     -11.267  14.187  70.056  0.00  0.00    +0.148 A 
ATOM     17  N   UNL     1     -10.558  15.342  69.989  0.00  0.00    -0.211 NA
ATOM     18  C   UNL     1      -9.006  17.979  68.340  0.00  0.00    +0.137 C 
ENDROOT
BRANCH  14  19
ATOM     19  C   UNL     1     -12.883  15.217  71.562  0.00  0.00    +0.087 C 
ATOM     20  C   UNL     1     -13.538  15.152  72.875  0.00  0.00    +0.025 C 
ATOM     21  C   UNL     1     -14.427  15.100  71.633  0.00  0.00    +0.025 C 
ENDBRANCH  14  19
BRANCH  12  22
ATOM     22  C   UNL     1     -12.509  10.367  70.684  0.00  0.00    +0.392 C 
ATOM     23  O   UNL     1     -13.757   9.912  71.092  0.00  0.00    -0.240 OA
ATOM     24  O   UNL     1     -11.524   9.973  71.375  0.00  0.00    -0.240 OA
ENDBRANCH  12  22
BRANCH   1  26
ATOM     25  C   UNL     1     -10.933  19.744  65.789  0.00  0.00    +0.288 C 
ATOM     26  O   UNL     1      -9.664  19.841  66.382  0.00  0.00    -0.374 OA
ENDBRANCH   1  26
BRANCH   3  27
ATOM     27  C   UNL     1      -6.153  17.130  66.562  0.00  0.00    +0.117 C 
ATOM     28  N   UNL     1      -5.502  15.992  67.207  0.00  0.00    -0.131 NA
ENDBRANCH   3  27
TORSDOF 4
ENDMDL
MODEL 4
REMARK VINA RESULT:      -6.9      5.890      9.442
REMARK  Name = 
REMARK  4 active torsions:
REMARK  status: ('A' for Active; 'I' for Inactive)
REMARK    1  A    between atoms: O_2  and  N_3
REMARK    2  A    between atoms: C_16  and  C_17
REMARK    3  A    between atoms: N_21  and  C_22
REMARK    4  A    between atoms: C_26  and  C_27
REMARK                            x       y       z     vdW  Elec       q    Type
REMARK                         _______ _______ _______ _____ _____    ______ ____
ROOT
ATOM      1  N   UNL     1      -8.672   7.477  72.608  0.00  0.00    -0.090 NA
ATOM      2  C   UNL     1      -9.868   7.576  72.098  0.00  0.00    +0.097 C 
ATOM      3  C   UNL     1     -10.022   7.185  70.524  0.00  0.00    +0.080 C 
ATOM      4  C   UNL     1     -11.580   7.758  70.485  0.00  0.00    +0.100 C 
ATOM      5  N   UNL     1     -11.179   9.107  70.888  0.00  0.00    -0.286 N 
ATOM      6  C   UNL     1     -10.953  10.233  70.048  0.00  0.00    +0.161 A 
ATOM      7  C   UNL     1      -9.819  10.151  69.247  0.00  0.00    +0.172 A 
ATOM      8  F   UNL     1      -8.633   9.857  69.853  0.00  0.00    -0.201 F 
ATOM      9  C   UNL     1      -9.895  10.762  68.001  0.00  0.00    +0.039 A 
ATOM     10  C   UNL     1     -10.906  11.705  67.857  0.00  0.00    +0.076 A 
ATOM     11  C   UNL     1     -11.128  12.269  66.614  0.00  0.00    +0.206 A 
ATOM     12  C   UNL     1     -11.712  13.528  66.620  0.00  0.00    +0.136 A 
ATOM     13  C   UNL     1     -12.074  14.105  67.833  0.00  0.00    +0.087 A 
ATOM     14  N   UNL     1     -12.020  13.433  69.000  0.00  0.00    -0.313 N 
ATOM     15  O   UNL     1     -11.008  11.560  65.595  0.00  0.00    -0.286 OA
ATOM     16  C   UNL     1     -11.697  12.118  68.924  0.00  0.00    +0.148 A 
ATOM     17  N   UNL     1     -11.769  11.316  70.016  0.00  0.00    -0.211 NA
ATOM     18  C   UNL     1     -10.606   8.870  72.194  0.00  0.00    +0.137 C 
ENDROOT
BRANCH  14  19
ATOM     19  C   UNL     1     -12.072  14.096  70.300  0.00  0.00    +0.087 C 
ATOM     20  C   UNL     1     -12.524  15.486  70.442  0.00  0.00    +0.025 C 
ATOM     21  C   UNL     1     -11.017  15.227  70.409  0.00  0.00    +0.025 C 
ENDBRANCH  14  19
BRANCH  12  22
ATOM     22  C   UNL     1     -12.324  13.980  65.365  0.00  0.00    +0.392 C 
ATOM     23  O   UNL     1     -11.679  15.012  64.692  0.00  0.00    -0.240 OA
ATOM     24  O   UNL     1     -13.588  14.025  65.362  0.00  0.00    -0.240 OA
ENDBRANCH  12  22
BRANCH   1  26
ATOM     25  C   UNL     1      -7.716   7.838  74.806  0.00  0.00    +0.288 C 
ATOM     26  O   UNL     1      -8.278   8.337  73.619  0.00  0.00    -0.374 OA
ENDBRANCH   1  26
BRANCH   3  27
ATOM     27  C   UNL     1     -10.540   5.654  70.899  0.00  0.00    +0.117 C 
ATOM     28  N   UNL     1     -10.108   4.956  69.690  0.00  0.00    -0.131 NA
ENDBRANCH   3  27
TORSDOF 4
ENDMDL
MODEL 5
REMARK VINA RESULT:      -6.8      2.788      8.205
REMARK  Name = 
REMARK  4 active torsions:
REMARK  status: ('A' for Active; 'I' for Inactive)
REMARK    1  A    between atoms: O_2  and  N_3
REMARK    2  A    between atoms: C_16  and  C_17
REMARK    3  A    between atoms: N_21  and  C_22
REMARK    4  A    between atoms: C_26  and  C_27
REMARK                            x       y       z     vdW  Elec       q    Type
REMARK                         _______ _______ _______ _____ _____    ______ ____
ROOT
ATOM      1  N   UNL     1     -10.911  15.175  66.212  0.00  0.00    -0.090 NA
ATOM      2  C   UNL     1     -10.482  15.039  67.436  0.00  0.00    +0.097 C 
ATOM      3  C   UNL     1     -10.831  16.251  68.468  0.00  0.00    +0.080 C 
ATOM      4  C   UNL     1      -9.841  15.608  69.635  0.00  0.00    +0.100 C 
ATOM      5  N   UNL     1      -8.656  15.670  68.776  0.00  0.00    -0.286 N 
ATOM      6  C   UNL     1      -7.651  16.676  68.756  0.00  0.00    +0.161 A 
ATOM      7  C   UNL     1      -8.061  17.907  68.255  0.00  0.00    +0.172 A 
ATOM      8  F   UNL     1      -8.672  17.926  67.036  0.00  0.00    -0.201 F 
ATOM      9  C   UNL     1      -7.468  19.032  68.815  0.00  0.00    +0.039 A 
ATOM     10  C   UNL     1      -6.278  18.806  69.498  0.00  0.00    +0.076 A 
ATOM     11  C   UNL     1      -5.690  19.850  70.188  0.00  0.00    +0.206 A 
ATOM     12  C   UNL     1      -4.316  19.754  70.367  0.00  0.00    +0.136 A 
ATOM     13  C   UNL     1      -3.646  18.627  69.903  0.00  0.00    +0.087 A 
ATOM     14  N   UNL     1      -4.292  17.549  69.415  0.00  0.00    -0.313 N 
ATOM     15  O   UNL     1      -6.415  20.671  70.784  0.00  0.00    -0.286 OA
ATOM     16  C   UNL     1      -5.645  17.568  69.501  0.00  0.00    +0.148 A 
ATOM     17  N   UNL     1      -6.381  16.472  69.187  0.00  0.00    -0.211 NA
ATOM     18  C   UNL     1      -9.030  14.796  67.686  0.00  0.00    +0.137 C 
ENDROOT
BRANCH  14  19
ATOM     19  C   UNL     1      -3.627  16.513  68.630  0.00  0.00    +0.087 C 
ATOM     20  C   UNL     1      -2.273  16.700  68.092  0.00  0.00    +0.025 C 
ATOM     21  C   UNL     1      -3.452  16.940  67.150  0.00  0.00    +0.025 C 
ENDBRANCH  14  19
BRANCH  12  22
ATOM     22  C   UNL     1      -3.724  20.599  71.411  0.00  0.00    +0.392 C 
ATOM     23  O   UNL     1      -2.750  21.503  71.004  0.00  0.00    -0.240 OA
ATOM     24  O   UNL     1      -3.517  20.026  72.520  0.00  0.00    -0.240 OA
ENDBRANCH  12  22
BRANCH   1  26
ATOM     25  C   UNL     1     -10.550  13.403  64.598  0.00  0.00    +0.288 C 
ATOM     26  O   UNL     1     -10.186  14.637  65.162  0.00  0.00    -0.374 OA
ENDBRANCH   1  26
BRANCH   3  27
ATOM     27  C   UNL     1     -12.148  15.436  69.063  0.00  0.00    +0.117 C 
ATOM     28  N   UNL     1     -12.191  16.007  70.408  0.00  0.00    -0.131 NA
ENDBRANCH   3  27
TORSDOF 4
ENDMDL
MODEL 6
REMARK VINA RESULT:      -6.8      5.869      9.218
REMARK  Name = 
REMARK  4 active torsions:
REMARK  status: ('A' for Active; 'I' for Inactive)
REMARK    1  A    between atoms: O_2  and  N_3
REMARK    2  A    between atoms: C_16  and  C_17
REMARK    3  A    between atoms: N_21  and  C_22
REMARK    4  A    between atoms: C_26  and  C_27
REMARK                            x       y       z     vdW  Elec       q    Type
REMARK                         _______ _______ _______ _____ _____    ______ ____
ROOT
ATOM      1  N   UNL     1      -8.211   7.683  72.203  0.00  0.00    -0.090 NA
ATOM      2  C   UNL     1      -9.419   7.669  71.711  0.00  0.00    +0.097 C 
ATOM      3  C   UNL     1      -9.581   7.087  70.198  0.00  0.00    +0.080 C 
ATOM      4  C   UNL     1     -11.164   7.583  70.125  0.00  0.00    +0.100 C 
ATOM      5  N   UNL     1     -10.817   8.987  70.356  0.00  0.00    -0.286 N 
ATOM      6  C   UNL     1     -10.656  10.013  69.384  0.00  0.00    +0.161 A 
ATOM      7  C   UNL     1      -9.533   9.884  68.574  0.00  0.00    +0.172 A 
ATOM      8  F   UNL     1      -8.325   9.716  69.184  0.00  0.00    -0.201 F 
ATOM      9  C   UNL     1      -9.656  10.338  67.267  0.00  0.00    +0.039 A 
ATOM     10  C   UNL     1     -10.711  11.213  67.033  0.00  0.00    +0.076 A 
ATOM     11  C   UNL     1     -10.979  11.614  65.737  0.00  0.00    +0.206 A 
ATOM     12  C   UNL     1     -11.619  12.838  65.606  0.00  0.00    +0.136 A 
ATOM     13  C   UNL     1     -11.987  13.540  66.749  0.00  0.00    +0.087 A 
ATOM     14  N   UNL     1     -11.883  13.016  67.986  0.00  0.00    -0.313 N 
ATOM     15  O   UNL     1     -10.844  10.794  64.807  0.00  0.00    -0.286 OA
ATOM     16  C   UNL     1     -11.503  11.716  68.060  0.00  0.00    +0.148 A 
ATOM     17  N   UNL     1     -11.520  11.048  69.241  0.00  0.00    -0.211 NA
ATOM     18  C   UNL     1     -10.213   8.933  71.669  0.00  0.00    +0.137 C 
ENDROOT
BRANCH  14  19
ATOM     19  C   UNL     1     -11.944  13.826  69.199  0.00  0.00    +0.087 C 
ATOM     20  C   UNL     1     -11.965  15.294  69.149  0.00  0.00    +0.025 C 
ATOM     21  C   UNL     1     -10.627  14.610  69.431  0.00  0.00    +0.025 C 
ENDBRANCH  14  19
BRANCH  12  22
ATOM     22  C   UNL     1     -12.271  13.110  64.319  0.00  0.00    +0.392 C 
ATOM     23  O   UNL     1     -12.442  14.446  63.976  0.00  0.00    -0.240 OA
ATOM     24  O   UNL     1     -13.227  12.337  64.021  0.00  0.00    -0.240 OA
ENDBRANCH  12  22
BRANCH   1  26
ATOM     25  C   UNL     1      -7.617   8.372  74.450  0.00  0.00    +0.288 C 
ATOM     26  O   UNL     1      -7.840   8.674  73.097  0.00  0.00    -0.374 OA
ENDBRANCH   1  26
BRANCH   3  27
ATOM     27  C   UNL     1     -10.022   5.590  70.763  0.00  0.00    +0.117 C 
ATOM     28  N   UNL     1      -9.903   4.825  69.524  0.00  0.00    -0.131 NA
ENDBRANCH   3  27
TORSDOF 4
ENDMDL
MODEL 7
REMARK VINA RESULT:      -6.8      6.482      8.219
REMARK  Name = 
REMARK  4 active torsions:
REMARK  status: ('A' for Active; 'I' for Inactive)
REMARK    1  A    between atoms: O_2  and  N_3
REMARK    2  A    between atoms: C_16  and  C_17
REMARK    3  A    between atoms: N_21  and  C_22
REMARK    4  A    between atoms: C_26  and  C_27
REMARK                            x       y       z     vdW  Elec       q    Type
REMARK                         _______ _______ _______ _____ _____    ______ ____
ROOT
ATOM      1  N   UNL     1      -8.086  10.305  64.686  0.00  0.00    -0.090 NA
ATOM      2  C   UNL     1      -9.374  10.502  64.742  0.00  0.00    +0.097 C 
ATOM      3  C   UNL     1      -9.868  12.051  64.857  0.00  0.00    +0.080 C 
ATOM      4  C   UNL     1     -11.434  11.581  65.142  0.00  0.00    +0.100 C 
ATOM      5  N   UNL     1     -11.071  10.817  66.338  0.00  0.00    -0.286 N 
ATOM      6  C   UNL     1     -11.158  11.236  67.695  0.00  0.00    +0.161 A 
ATOM      7  C   UNL     1     -10.248  12.221  68.065  0.00  0.00    +0.172 A 
ATOM      8  F   UNL     1      -8.929  12.002  67.796  0.00  0.00    -0.201 F 
ATOM      9  C   UNL     1     -10.677  13.133  69.022  0.00  0.00    +0.039 A 
ATOM     10  C   UNL     1     -11.774  12.736  69.778  0.00  0.00    +0.076 A 
ATOM     11  C   UNL     1     -12.340  13.634  70.665  0.00  0.00    +0.206 A 
ATOM     12  C   UNL     1     -13.017  13.072  71.739  0.00  0.00    +0.136 A 
ATOM     13  C   UNL     1     -13.127  11.689  71.827  0.00  0.00    +0.087 A 
ATOM     14  N   UNL     1     -12.731  10.866  70.835  0.00  0.00    -0.313 N 
ATOM     15  O   UNL     1     -12.407  14.839  70.351  0.00  0.00    -0.286 OA
ATOM     16  C   UNL     1     -12.318  11.459  69.688  0.00  0.00    +0.148 A 
ATOM     17  N   UNL     1     -12.052  10.726  68.578  0.00  0.00    -0.211 NA
ATOM     18  C   UNL     1     -10.180   9.816  65.794  0.00  0.00    +0.137 C 
ENDROOT
BRANCH  14  19
ATOM     19  C   UNL     1     -12.527   9.433  71.027  0.00  0.00    +0.087 C 
ATOM     20  C   UNL     1     -12.523   8.824  72.364  0.00  0.00    +0.025 C 
ATOM     21  C   UNL     1     -11.172   9.135  71.718  0.00  0.00    +0.025 C 
ENDBRANCH  14  19
BRANCH  12  22
ATOM     22  C   UNL     1     -13.952  13.944  72.461  0.00  0.00    +0.392 C 
ATOM     23  O   UNL     1     -15.031  14.437  71.737  0.00  0.00    -0.240 OA
ATOM     24  O   UNL     1     -13.421  14.750  73.279  0.00  0.00    -0.240 OA
ENDBRANCH  12  22
BRANCH   1  26
ATOM     25  C   UNL     1      -6.731   9.217  66.377  0.00  0.00    +0.288 C 
ATOM     26  O   UNL     1      -7.539   9.155  65.230  0.00  0.00    -0.374 OA
ENDBRANCH   1  26
BRANCH   3  27
ATOM     27  C   UNL     1     -10.138  12.143  63.223  0.00  0.00    +0.117 C 
ATOM     28  N   UNL     1     -11.598  12.195  63.227  0.00  0.00    -0.131 NA
ENDBRANCH   3  27
TORSDOF 4
ENDMDL
MODEL 8
REMARK VINA RESULT:      -6.7      4.529      8.446
REMARK  Name = 
REMARK  4 active torsions:
REMARK  status: ('A' for Active; 'I' for Inactive)
REMARK    1  A    between atoms: O_2  and  N_3
REMARK    2  A    between atoms: C_16  and  C_17
REMARK    3  A    between atoms: N_21  and  C_22
REMARK    4  A    between atoms: C_26  and  C_27
REMARK                            x       y       z     vdW  Elec       q    Type
REMARK                         _______ _______ _______ _____ _____    ______ ____
ROOT
ATOM      1  N   UNL     1      -9.767   9.957  64.523  0.00  0.00    -0.090 NA
ATOM      2  C   UNL     1      -9.235  10.090  65.707  0.00  0.00    +0.097 C 
ATOM      3  C   UNL     1     -10.109   9.531  66.964  0.00  0.00    +0.080 C 
ATOM      4  C   UNL     1      -9.065  10.216  68.057  0.00  0.00    +0.100 C 
ATOM      5  N   UNL     1      -9.279  11.568  67.535  0.00  0.00    -0.286 N 
ATOM      6  C   UNL     1     -10.156  12.566  68.044  0.00  0.00    +0.161 A 
ATOM      7  C   UNL     1     -11.511  12.300  67.875  0.00  0.00    +0.172 A 
ATOM      8  F   UNL     1     -11.945  11.987  66.620  0.00  0.00    -0.201 F 
ATOM      9  C   UNL     1     -12.363  12.765  68.869  0.00  0.00    +0.039 A 
ATOM     10  C   UNL     1     -11.842  13.762  69.686  0.00  0.00    +0.076 A 
ATOM     11  C   UNL     1     -12.578  14.192  70.775  0.00  0.00    +0.206 A 
ATOM     12  C   UNL     1     -12.316  15.485  71.206  0.00  0.00    +0.136 A 
ATOM     13  C   UNL     1     -11.326  16.227  70.570  0.00  0.00    +0.087 A 
ATOM     14  N   UNL     1     -10.503  15.695  69.646  0.00  0.00    -0.313 N 
ATOM     15  O   UNL     1     -13.242  13.361  71.426  0.00  0.00    -0.286 OA
ATOM     16  C   UNL     1     -10.610  14.359  69.441  0.00  0.00    +0.148 A 
ATOM     17  N   UNL     1      -9.725  13.699  68.652  0.00  0.00    -0.211 NA
ATOM     18  C   UNL     1      -8.806  11.441  66.175  0.00  0.00    +0.137 C 
ENDROOT
BRANCH  14  19
ATOM     19  C   UNL     1      -9.696  16.508  68.740  0.00  0.00    +0.087 C 
ATOM     20  C   UNL     1      -9.925  17.950  68.582  0.00  0.00    +0.025 C 
ATOM     21  C   UNL     1     -10.525  17.014  67.532  0.00  0.00    +0.025 C 
ENDBRANCH  14  19
BRANCH  12  22
ATOM     22  C   UNL     1     -12.758  15.834  72.562  0.00  0.00    +0.392 C 
ATOM     23  O   UNL     1     -14.112  16.098  72.729  0.00  0.00    -0.240 OA
ATOM     24  O   UNL     1     -11.966  16.572  73.217  0.00  0.00    -0.240 OA
ENDBRANCH  12  22
BRANCH   1  26
ATOM     25  C   UNL     1     -10.485  11.831  63.165  0.00  0.00    +0.288 C 
ATOM     26  O   UNL     1      -9.507  10.896  63.539  0.00  0.00    -0.374 OA
ENDBRANCH   1  26
BRANCH   3  27
ATOM     27  C   UNL     1      -9.269   8.100  66.980  0.00  0.00    +0.117 C 
ATOM     28  N   UNL     1     -10.391   7.167  66.898  0.00  0.00    -0.131 NA
ENDBRANCH   3  27
TORSDOF 4
ENDMDL
MODEL 9
REMARK VINA RESULT:      -6.7      4.449      7.426
REMARK  Name = 
REMARK  4 active torsions:
REMARK  status: ('A' for Active; 'I' for Inactive)
REMARK    1  A    between atoms: O_2  and  N_3
REMARK    2  A    between atoms: C_16  and  C_17
REMARK    3  A    between atoms: N_21  and  C_22
REMARK    4  A    between atoms: C_26  and  C_27
REMARK                            x       y       z     vdW  Elec       q    Type
REMARK                         _______ _______ _______ _____ _____    ______ ____
ROOT
ATOM      1  N   UNL     1     -10.171  15.703  65.710  0.00  0.00    -0.090 NA
ATOM      2  C   UNL     1     -10.417  14.445  65.475  0.00  0.00    +0.097 C 
ATOM      3  C   UNL     1     -11.897  13.902  65.891  0.00  0.00    +0.080 C 
ATOM      4  C   UNL     1     -11.454  12.328  65.603  0.00  0.00    +0.100 C 
ATOM      5  N   UNL     1     -10.367  12.371  66.583  0.00  0.00    -0.286 N 
ATOM      6  C   UNL     1     -10.393  11.911  67.929  0.00  0.00    +0.161 A 
ATOM      7  C   UNL     1     -11.182  12.663  68.792  0.00  0.00    +0.172 A 
ATOM      8  F   UNL     1     -10.974  14.010  68.833  0.00  0.00    -0.201 F 
ATOM      9  C   UNL     1     -11.812  11.970  69.819  0.00  0.00    +0.039 A 
ATOM     10  C   UNL     1     -11.281  10.718  70.110  0.00  0.00    +0.076 A 
ATOM     11  C   UNL     1     -11.925   9.913  71.032  0.00  0.00    +0.206 A 
ATOM     12  C   UNL     1     -11.124   8.983  71.681  0.00  0.00    +0.136 A 
ATOM     13  C   UNL     1      -9.779   8.886  71.339  0.00  0.00    +0.087 A 
ATOM     14  N   UNL     1      -9.246   9.554  70.297  0.00  0.00    -0.313 N 
ATOM     15  O   UNL     1     -13.171   9.906  71.068  0.00  0.00    -0.286 OA
ATOM     16  C   UNL     1     -10.113  10.248  69.519  0.00  0.00    +0.148 A 
ATOM     17  N   UNL     1      -9.707  10.823  68.359  0.00  0.00    -0.211 NA
ATOM     18  C   UNL     1      -9.510  13.399  66.034  0.00  0.00    +0.137 C 
ENDROOT
BRANCH  14  19
ATOM     19  C   UNL     1      -7.808   9.731  70.120  0.00  0.00    +0.087 C 
ATOM     20  C   UNL     1      -7.034   8.897  69.190  0.00  0.00    +0.025 C 
ATOM     21  C   UNL     1      -7.010   8.523  70.673  0.00  0.00    +0.025 C 
ENDBRANCH  14  19
BRANCH  12  22
ATOM     22  C   UNL     1     -11.809   7.868  72.345  0.00  0.00    +0.392 C 
ATOM     23  O   UNL     1     -11.226   7.381  73.509  0.00  0.00    -0.240 OA
ATOM     24  O   UNL     1     -12.306   6.999  71.571  0.00  0.00    -0.240 OA
ENDBRANCH  12  22
BRANCH   1  26
ATOM     25  C   UNL     1      -8.638  17.416  66.478  0.00  0.00    +0.288 C 
ATOM     26  O   UNL     1      -8.886  16.109  66.028  0.00  0.00    -0.374 OA
ENDBRANCH   1  26
BRANCH   3  27
ATOM     27  C   UNL     1     -12.458  14.083  64.340  0.00  0.00    +0.117 C 
ATOM     28  N   UNL     1     -12.810  12.694  64.053  0.00  0.00    -0.131 NA
ENDBRANCH   3  27
TORSDOF 4
ENDMDL
