MODEL 1
REMARK VINA RESULT:      -7.6      0.000      0.000
REMARK  Name = 
REMARK  6 active torsions:
REMARK  status: ('A' for Active; 'I' for Inactive)
REMARK    1  A    between atoms: C_3  and  O_4
REMARK    2  A    between atoms: O_4  and  C_5
REMARK    3  A    between atoms: C_5  and  C_6
REMARK    4  A    between atoms: C_13  and  C_14
REMARK    5  A    between atoms: C_14  and  S_15
REMARK    6  A    between atoms: S_15  and  C_17
REMARK                            x       y       z     vdW  Elec       q    Type
REMARK                         _______ _______ _______ _____ _____    ______ ____
ROOT
ATOM      1  C   UNL     1     -11.740  15.779  69.076  0.00  0.00    +0.035 C 
ATOM      2  C   UNL     1     -11.795  14.584  69.130  0.00  0.00    +0.027 A 
ATOM      3  C   UNL     1     -11.578  13.784  68.014  0.00  0.00    +0.072 A 
ATOM      4  N   UNL     1     -11.712  12.435  68.056  0.00  0.00    -0.247 NA
ATOM      5  C   UNL     1     -11.960  11.775  69.195  0.00  0.00    +0.102 A 
ATOM      6  C   UNL     1     -12.171  12.514  70.352  0.00  0.00    +0.057 A 
ATOM      7  C   UNL     1     -11.958  13.887  70.321  0.00  0.00    +0.138 A 
ENDROOT
BRANCH   3   8
ATOM      8  C   UNL     1     -11.718  14.415  66.676  0.00  0.00    +0.145 C 
BRANCH   8   9
ATOM      9  S   UNL     1     -10.120  14.303  65.766  0.00  0.00    +0.107 S 
ATOM     10  O   UNL     1      -9.177  13.890  66.935  0.00  0.00    -0.248 OA
BRANCH   9  11
ATOM     11  C   UNL     1      -9.723  16.064  65.600  0.00  0.00    +0.221 A 
ATOM     12  N   UNL     1      -8.548  16.599  66.016  0.00  0.00    -0.218 NA
ATOM     13  C   UNL     1      -8.751  17.802  66.568  0.00  0.00    +0.101 A 
ATOM     14  C   UNL     1     -10.089  18.114  66.361  0.00  0.00    +0.101 A 
ATOM     15  C   UNL     1     -10.658  19.218  66.983  0.00  0.00    +0.021 A 
ATOM     16  C   UNL     1     -10.088  19.646  68.165  0.00  0.00    +0.002 A 
ATOM     17  C   UNL     1      -8.737  19.393  68.335  0.00  0.00    +0.002 A 
ATOM     18  C   UNL     1      -8.036  18.668  67.379  0.00  0.00    +0.021 A 
ATOM     19  N   UNL     1     -10.581  17.093  65.628  0.00  0.00    -0.218 NA
ENDBRANCH   9  11
ENDBRANCH   8   9
ENDBRANCH   3   8
BRANCH   7  20
ATOM     20  O   UNL     1     -11.868  14.634  71.494  0.00  0.00    -0.467 OA
BRANCH  20  21
ATOM     21  C   UNL     1     -12.797  14.506  72.544  0.00  0.00    +0.308 C 
BRANCH  21  22
ATOM     22  C   UNL     1     -12.901  15.793  73.338  0.00  0.00    +0.438 C 
ATOM     23  F   UNL     1     -14.175  16.315  73.169  0.00  0.00    -0.166 F 
ATOM     24  F   UNL     1     -12.642  15.531  74.676  0.00  0.00    -0.166 F 
ATOM     25  F   UNL     1     -11.960  16.694  72.906  0.00  0.00    -0.166 F 
ENDBRANCH  21  22
ENDBRANCH  20  21
ENDBRANCH   7  20
TORSDOF 6
ENDMDL
MODEL 2
REMARK VINA RESULT:      -7.0      3.456      5.423
REMARK  Name = 
REMARK  6 active torsions:
REMARK  status: ('A' for Active; 'I' for Inactive)
REMARK    1  A    between atoms: C_3  and  O_4
REMARK    2  A    between atoms: O_4  and  C_5
REMARK    3  A    between atoms: C_5  and  C_6
REMARK    4  A    between atoms: C_13  and  C_14
REMARK    5  A    between atoms: C_14  and  S_15
REMARK    6  A    between atoms: S_15  and  C_17
REMARK                            x       y       z     vdW  Elec       q    Type
REMARK                         _______ _______ _______ _____ _____    ______ ____
ROOT
ATOM      1  C   UNL     1     -12.047  13.060  70.002  0.00  0.00    +0.035 C 
ATOM      2  C   UNL     1     -11.693  14.098  69.520  0.00  0.00    +0.027 A 
ATOM      3  C   UNL     1     -11.812  14.360  68.160  0.00  0.00    +0.072 A 
ATOM      4  N   UNL     1     -11.345  15.503  67.601  0.00  0.00    -0.247 NA
ATOM      5  C   UNL     1     -10.831  16.501  68.334  0.00  0.00    +0.102 A 
ATOM      6  C   UNL     1     -10.698  16.311  69.704  0.00  0.00    +0.057 A 
ATOM      7  C   UNL     1     -11.247  15.172  70.281  0.00  0.00    +0.138 A 
ENDROOT
BRANCH   3   8
ATOM      8  C   UNL     1     -11.964  13.198  67.245  0.00  0.00    +0.145 C 
BRANCH   8   9
ATOM      9  S   UNL     1     -11.709  13.742  65.504  0.00  0.00    +0.107 S 
ATOM     10  O   UNL     1     -13.191  13.962  65.074  0.00  0.00    -0.248 OA
BRANCH   9  11
ATOM     11  C   UNL     1     -11.351  12.147  64.720  0.00  0.00    +0.221 A 
ATOM     12  N   UNL     1     -10.757  11.119  65.376  0.00  0.00    -0.218 NA
ATOM     13  C   UNL     1      -9.892  10.488  64.571  0.00  0.00    +0.101 A 
ATOM     14  C   UNL     1     -10.049  11.041  63.306  0.00  0.00    +0.101 A 
ATOM     15  C   UNL     1      -9.160  10.730  62.286  0.00  0.00    +0.021 A 
ATOM     16  C   UNL     1      -7.885  10.347  62.650  0.00  0.00    +0.002 A 
ATOM     17  C   UNL     1      -7.744   9.733  63.883  0.00  0.00    +0.002 A 
ATOM     18  C   UNL     1      -8.841   9.598  64.726  0.00  0.00    +0.021 A 
ATOM     19  N   UNL     1     -11.061  11.926  63.430  0.00  0.00    -0.218 NA
ENDBRANCH   9  11
ENDBRANCH   8   9
ENDBRANCH   3   8
BRANCH   7  20
ATOM     20  O   UNL     1     -11.405  15.062  71.661  0.00  0.00    -0.467 OA
BRANCH  20  21
ATOM     21  C   UNL     1     -12.006  16.073  72.435  0.00  0.00    +0.308 C 
BRANCH  21  22
ATOM     22  C   UNL     1     -13.113  15.507  73.302  0.00  0.00    +0.438 C 
ATOM     23  F   UNL     1     -12.690  15.518  74.623  0.00  0.00    -0.166 F 
ATOM     24  F   UNL     1     -14.261  16.270  73.140  0.00  0.00    -0.166 F 
ATOM     25  F   UNL     1     -13.414  14.226  72.912  0.00  0.00    -0.166 F 
ENDBRANCH  21  22
ENDBRANCH  20  21
ENDBRANCH   7  20
TORSDOF 6
ENDMDL
MODEL 3
REMARK VINA RESULT:      -6.9      3.158      6.249
REMARK  Name = 
REMARK  6 active torsions:
REMARK  status: ('A' for Active; 'I' for Inactive)
REMARK    1  A    between atoms: C_3  and  O_4
REMARK    2  A    between atoms: O_4  and  C_5
REMARK    3  A    between atoms: C_5  and  C_6
REMARK    4  A    between atoms: C_13  and  C_14
REMARK    5  A    between atoms: C_14  and  S_15
REMARK    6  A    between atoms: S_15  and  C_17
REMARK                            x       y       z     vdW  Elec       q    Type
REMARK                         _______ _______ _______ _____ _____    ______ ____
ROOT
ATOM      1  C   UNL     1     -10.502  16.210  65.672  0.00  0.00    +0.035 C 
ATOM      2  C   UNL     1      -9.455  15.920  66.176  0.00  0.00    +0.027 A 
ATOM      3  C   UNL     1      -9.122  14.606  66.481  0.00  0.00    +0.072 A 
ATOM      4  N   UNL     1      -7.970  14.283  67.119  0.00  0.00    -0.247 NA
ATOM      5  C   UNL     1      -7.030  15.194  67.405  0.00  0.00    +0.102 A 
ATOM      6  C   UNL     1      -7.293  16.526  67.112  0.00  0.00    +0.057 A 
ATOM      7  C   UNL     1      -8.438  16.842  66.391  0.00  0.00    +0.138 A 
ENDROOT
BRANCH   3   8
ATOM      8  C   UNL     1     -10.230  13.621  66.592  0.00  0.00    +0.145 C 
BRANCH   8   9
ATOM      9  S   UNL     1     -10.225  12.865  68.271  0.00  0.00    +0.107 S 
ATOM     10  O   UNL     1     -10.999  11.546  67.972  0.00  0.00    -0.248 OA
BRANCH   9  11
ATOM     11  C   UNL     1     -11.514  13.855  69.072  0.00  0.00    +0.221 A 
ATOM     12  N   UNL     1     -11.304  15.116  69.525  0.00  0.00    -0.218 NA
ATOM     13  C   UNL     1     -11.944  15.309  70.685  0.00  0.00    +0.101 A 
ATOM     14  C   UNL     1     -12.716  14.176  70.907  0.00  0.00    +0.101 A 
ATOM     15  C   UNL     1     -13.356  13.987  72.126  0.00  0.00    +0.021 A 
ATOM     16  C   UNL     1     -12.805  14.600  73.233  0.00  0.00    +0.002 A 
ATOM     17  C   UNL     1     -12.094  15.768  73.014  0.00  0.00    +0.002 A 
ATOM     18  C   UNL     1     -11.893  16.231  71.719  0.00  0.00    +0.021 A 
ATOM     19  N   UNL     1     -12.536  13.405  69.814  0.00  0.00    -0.218 NA
ENDBRANCH   9  11
ENDBRANCH   8   9
ENDBRANCH   3   8
BRANCH   7  20
ATOM     20  O   UNL     1      -8.611  18.101  65.819  0.00  0.00    -0.467 OA
BRANCH  20  21
ATOM     21  C   UNL     1      -8.610  19.283  66.583  0.00  0.00    +0.308 C 
BRANCH  21  22
ATOM     22  C   UNL     1     -10.020  19.805  66.777  0.00  0.00    +0.438 C 
ATOM     23  F   UNL     1      -9.951  21.066  67.351  0.00  0.00    -0.166 F 
ATOM     24  F   UNL     1     -10.667  19.851  65.550  0.00  0.00    -0.166 F 
ATOM     25  F   UNL     1     -10.734  18.956  67.585  0.00  0.00    -0.166 F 
ENDBRANCH  21  22
ENDBRANCH  20  21
ENDBRANCH   7  20
TORSDOF 6
ENDMDL
MODEL 4
REMARK VINA RESULT:      -6.8      4.000      6.829
REMARK  Name = 
REMARK  6 active torsions:
REMARK  status: ('A' for Active; 'I' for Inactive)
REMARK    1  A    between atoms: C_3  and  O_4
REMARK    2  A    between atoms: O_4  and  C_5
REMARK    3  A    between atoms: C_5  and  C_6
REMARK    4  A    between atoms: C_13  and  C_14
REMARK    5  A    between atoms: C_14  and  S_15
REMARK    6  A    between atoms: S_15  and  C_17
REMARK                            x       y       z     vdW  Elec       q    Type
REMARK                         _______ _______ _______ _____ _____    ______ ____
ROOT
ATOM      1  C   UNL     1     -11.735  14.081  69.013  0.00  0.00    +0.035 C 
ATOM      2  C   UNL     1     -12.113  13.304  69.844  0.00  0.00    +0.027 A 
ATOM      3  C   UNL     1     -11.879  11.938  69.737  0.00  0.00    +0.072 A 
ATOM      4  N   UNL     1     -12.369  11.049  70.636  0.00  0.00    -0.247 NA
ATOM      5  C   UNL     1     -13.022  11.435  71.741  0.00  0.00    +0.102 A 
ATOM      6  C   UNL     1     -13.275  12.789  71.918  0.00  0.00    +0.057 A 
ATOM      7  C   UNL     1     -12.707  13.700  71.036  0.00  0.00    +0.138 A 
ENDROOT
BRANCH   3   8
ATOM      8  C   UNL     1     -11.556  11.397  68.391  0.00  0.00    +0.145 C 
BRANCH   8   9
ATOM      9  S   UNL     1      -9.735  11.168  68.234  0.00  0.00    +0.107 S 
ATOM     10  O   UNL     1      -9.655  10.674  66.759  0.00  0.00    -0.248 OA
BRANCH   9  11
ATOM     11  C   UNL     1      -9.529   9.611  69.138  0.00  0.00    +0.221 A 
ATOM     12  N   UNL     1     -10.295   8.516  68.907  0.00  0.00    -0.218 NA
ATOM     13  C   UNL     1     -10.584   7.896  70.059  0.00  0.00    +0.101 A 
ATOM     14  C   UNL     1      -9.849   8.535  71.050  0.00  0.00    +0.101 A 
ATOM     15  C   UNL     1     -10.073   8.246  72.390  0.00  0.00    +0.021 A 
ATOM     16  C   UNL     1     -11.324   7.780  72.738  0.00  0.00    +0.002 A 
ATOM     17  C   UNL     1     -12.025   7.083  71.768  0.00  0.00    +0.002 A 
ATOM     18  C   UNL     1     -11.500   6.949  70.488  0.00  0.00    +0.021 A 
ATOM     19  N   UNL     1      -9.107   9.458  70.401  0.00  0.00    -0.218 NA
ENDBRANCH   9  11
ENDBRANCH   8   9
ENDBRANCH   3   8
BRANCH   7  20
ATOM     20  O   UNL     1     -12.678  15.064  71.320  0.00  0.00    -0.467 OA
BRANCH  20  21
ATOM     21  C   UNL     1     -11.814  15.615  72.285  0.00  0.00    +0.308 C 
BRANCH  21  22
ATOM     22  C   UNL     1     -12.555  15.904  73.576  0.00  0.00    +0.438 C 
ATOM     23  F   UNL     1     -13.898  16.087  73.283  0.00  0.00    -0.166 F 
ATOM     24  F   UNL     1     -12.375  14.847  74.457  0.00  0.00    -0.166 F 
ATOM     25  F   UNL     1     -12.044  17.028  74.175  0.00  0.00    -0.166 F 
ENDBRANCH  21  22
ENDBRANCH  20  21
ENDBRANCH   7  20
TORSDOF 6
ENDMDL
MODEL 5
REMARK VINA RESULT:      -6.7      3.218      6.992
REMARK  Name = 
REMARK  6 active torsions:
REMARK  status: ('A' for Active; 'I' for Inactive)
REMARK    1  A    between atoms: C_3  and  O_4
REMARK    2  A    between atoms: O_4  and  C_5
REMARK    3  A    between atoms: C_5  and  C_6
REMARK    4  A    between atoms: C_13  and  C_14
REMARK    5  A    between atoms: C_14  and  S_15
REMARK    6  A    between atoms: S_15  and  C_17
REMARK                            x       y       z     vdW  Elec       q    Type
REMARK                         _______ _______ _______ _____ _____    ______ ____
ROOT
ATOM      1  C   UNL     1     -12.016  11.656  70.121  0.00  0.00    +0.035 C 
ATOM      2  C   UNL     1     -11.866  12.504  69.288  0.00  0.00    +0.027 A 
ATOM      3  C   UNL     1     -11.695  12.196  67.943  0.00  0.00    +0.072 A 
ATOM      4  N   UNL     1     -11.451  13.148  67.010  0.00  0.00    -0.247 NA
ATOM      5  C   UNL     1     -11.459  14.456  67.302  0.00  0.00    +0.102 A 
ATOM      6  C   UNL     1     -11.640  14.834  68.627  0.00  0.00    +0.057 A 
ATOM      7  C   UNL     1     -11.966  13.862  69.565  0.00  0.00    +0.138 A 
ENDROOT
BRANCH   3   8
ATOM      8  C   UNL     1     -11.259  10.817  67.602  0.00  0.00    +0.145 C 
BRANCH   8   9
ATOM      9  S   UNL     1      -9.432  10.677  67.796  0.00  0.00    +0.107 S 
ATOM     10  O   UNL     1      -9.078   9.948  66.465  0.00  0.00    -0.248 OA
BRANCH   9  11
ATOM     11  C   UNL     1      -9.340   9.308  68.980  0.00  0.00    +0.221 A 
ATOM     12  N   UNL     1      -9.990   8.132  68.802  0.00  0.00    -0.218 NA
ATOM     13  C   UNL     1     -10.478   7.685  69.967  0.00  0.00    +0.101 A 
ATOM     14  C   UNL     1      -9.991   8.533  70.953  0.00  0.00    +0.101 A 
ATOM     15  C   UNL     1     -10.468   8.448  72.255  0.00  0.00    +0.021 A 
ATOM     16  C   UNL     1     -11.741   7.944  72.432  0.00  0.00    +0.002 A 
ATOM     17  C   UNL     1     -12.195   7.044  71.482  0.00  0.00    +0.002 A 
ATOM     18  C   UNL     1     -11.415   6.748  70.371  0.00  0.00    +0.021 A 
ATOM     19  N   UNL     1      -9.178   9.397  70.308  0.00  0.00    -0.218 NA
ENDBRANCH   9  11
ENDBRANCH   8   9
ENDBRANCH   3   8
BRANCH   7  20
ATOM     20  O   UNL     1     -12.440  14.204  70.829  0.00  0.00    -0.467 OA
BRANCH  20  21
ATOM     21  C   UNL     1     -13.116  15.414  71.080  0.00  0.00    +0.308 C 
BRANCH  21  22
ATOM     22  C   UNL     1     -14.327  15.187  71.963  0.00  0.00    +0.438 C 
ATOM     23  F   UNL     1     -14.276  13.892  72.459  0.00  0.00    -0.166 F 
ATOM     24  F   UNL     1     -14.326  16.116  72.994  0.00  0.00    -0.166 F 
ATOM     25  F   UNL     1     -15.481  15.373  71.244  0.00  0.00    -0.166 F 
ENDBRANCH  21  22
ENDBRANCH  20  21
ENDBRANCH   7  20
TORSDOF 6
ENDMDL
MODEL 6
REMARK VINA RESULT:      -6.7      4.652      5.975
REMARK  Name = 
REMARK  6 active torsions:
REMARK  status: ('A' for Active; 'I' for Inactive)
REMARK    1  A    between atoms: C_3  and  O_4
REMARK    2  A    between atoms: O_4  and  C_5
REMARK    3  A    between atoms: C_5  and  C_6
REMARK    4  A    between atoms: C_13  and  C_14
REMARK    5  A    between atoms: C_14  and  S_15
REMARK    6  A    between atoms: S_15  and  C_17
REMARK                            x       y       z     vdW  Elec       q    Type
REMARK                         _______ _______ _______ _____ _____    ______ ____
ROOT
ATOM      1  C   UNL     1     -10.471  15.756  65.434  0.00  0.00    +0.035 C 
ATOM      2  C   UNL     1     -10.776  15.379  66.530  0.00  0.00    +0.027 A 
ATOM      3  C   UNL     1     -10.349  16.030  67.681  0.00  0.00    +0.072 A 
ATOM      4  N   UNL     1     -10.630  15.563  68.922  0.00  0.00    -0.247 NA
ATOM      5  C   UNL     1     -11.425  14.504  69.125  0.00  0.00    +0.102 A 
ATOM      6  C   UNL     1     -11.901  13.815  68.016  0.00  0.00    +0.057 A 
ATOM      7  C   UNL     1     -11.673  14.340  66.750  0.00  0.00    +0.138 A 
ENDROOT
BRANCH   3   8
ATOM      8  C   UNL     1      -9.162  16.919  67.569  0.00  0.00    +0.145 C 
BRANCH   8   9
ATOM      9  S   UNL     1      -9.581  18.597  68.204  0.00  0.00    +0.107 S 
ATOM     10  O   UNL     1     -11.024  18.744  67.635  0.00  0.00    -0.248 OA
BRANCH   9  11
ATOM     11  C   UNL     1      -8.640  19.622  67.044  0.00  0.00    +0.221 A 
ATOM     12  N   UNL     1      -8.222  19.176  65.833  0.00  0.00    -0.218 NA
ATOM     13  C   UNL     1      -6.995  19.639  65.561  0.00  0.00    +0.101 A 
ATOM     14  C   UNL     1      -6.677  20.539  66.570  0.00  0.00    +0.101 A 
ATOM     15  C   UNL     1      -5.390  21.052  66.676  0.00  0.00    +0.021 A 
ATOM     16  C   UNL     1      -4.359  20.291  66.165  0.00  0.00    +0.002 A 
ATOM     17  C   UNL     1      -4.668  19.445  65.112  0.00  0.00    +0.002 A 
ATOM     18  C   UNL     1      -5.980  19.330  64.670  0.00  0.00    +0.021 A 
ATOM     19  N   UNL     1      -7.779  20.605  67.346  0.00  0.00    -0.218 NA
ENDBRANCH   9  11
ENDBRANCH   8   9
ENDBRANCH   3   8
BRANCH   7  20
ATOM     20  O   UNL     1     -12.360  13.867  65.634  0.00  0.00    -0.467 OA
BRANCH  20  21
ATOM     21  C   UNL     1     -12.190  12.558  65.142  0.00  0.00    +0.308 C 
BRANCH  21  22
ATOM     22  C   UNL     1     -12.017  12.562  63.636  0.00  0.00    +0.438 C 
ATOM     23  F   UNL     1     -10.675  12.368  63.344  0.00  0.00    -0.166 F 
ATOM     24  F   UNL     1     -12.799  11.560  63.080  0.00  0.00    -0.166 F 
ATOM     25  F   UNL     1     -12.448  13.756  63.112  0.00  0.00    -0.166 F 
ENDBRANCH  21  22
ENDBRANCH  20  21
ENDBRANCH   7  20
TORSDOF 6
ENDMDL
MODEL 7
REMARK VINA RESULT:      -6.7      3.804      7.805
REMARK  Name = 
REMARK  6 active torsions:
REMARK  status: ('A' for Active; 'I' for Inactive)
REMARK    1  A    between atoms: C_3  and  O_4
REMARK    2  A    between atoms: O_4  and  C_5
REMARK    3  A    between atoms: C_5  and  C_6
REMARK    4  A    between atoms: C_13  and  C_14
REMARK    5  A    between atoms: C_14  and  S_15
REMARK    6  A    between atoms: S_15  and  C_17
REMARK                            x       y       z     vdW  Elec       q    Type
REMARK                         _______ _______ _______ _____ _____    ______ ____
ROOT
ATOM      1  C   UNL     1     -11.874  15.885  69.764  0.00  0.00    +0.035 C 
ATOM      2  C   UNL     1     -11.342  15.527  68.753  0.00  0.00    +0.027 A 
ATOM      3  C   UNL     1     -11.431  14.218  68.294  0.00  0.00    +0.072 A 
ATOM      4  N   UNL     1     -10.768  13.793  67.190  0.00  0.00    -0.247 NA
ATOM      5  C   UNL     1     -10.067  14.627  66.411  0.00  0.00    +0.102 A 
ATOM      6  C   UNL     1      -9.951  15.955  66.803  0.00  0.00    +0.057 A 
ATOM      7  C   UNL     1     -10.692  16.402  67.890  0.00  0.00    +0.138 A 
ENDROOT
BRANCH   3   8
ATOM      8  C   UNL     1     -11.810  13.168  69.275  0.00  0.00    +0.145 C 
BRANCH   8   9
ATOM      9  S   UNL     1     -11.022  11.569  68.810  0.00  0.00    +0.107 S 
ATOM     10  O   UNL     1     -12.126  10.991  67.875  0.00  0.00    -0.248 OA
BRANCH   9  11
ATOM     11  C   UNL     1     -11.312  10.618  70.325  0.00  0.00    +0.221 A 
ATOM     12  N   UNL     1     -10.939   9.321  70.466  0.00  0.00    -0.218 NA
ATOM     13  C   UNL     1     -11.871   8.637  71.143  0.00  0.00    +0.101 A 
ATOM     14  C   UNL     1     -12.806   9.566  71.582  0.00  0.00    +0.101 A 
ATOM     15  C   UNL     1     -13.999   9.147  72.156  0.00  0.00    +0.021 A 
ATOM     16  C   UNL     1     -14.472   7.900  71.799  0.00  0.00    +0.002 A 
ATOM     17  C   UNL     1     -13.529   6.956  71.428  0.00  0.00    +0.002 A 
ATOM     18  C   UNL     1     -12.185   7.303  71.350  0.00  0.00    +0.021 A 
ATOM     19  N   UNL     1     -12.324  10.765  71.193  0.00  0.00    -0.218 NA
ENDBRANCH   9  11
ENDBRANCH   8   9
ENDBRANCH   3   8
BRANCH   7  20
ATOM     20  O   UNL     1     -10.846  17.761  68.153  0.00  0.00    -0.467 OA
BRANCH  20  21
ATOM     21  C   UNL     1     -10.542  18.753  67.201  0.00  0.00    +0.308 C 
BRANCH  21  22
ATOM     22  C   UNL     1      -9.596  19.788  67.778  0.00  0.00    +0.438 C 
ATOM     23  F   UNL     1      -9.635  19.700  69.161  0.00  0.00    -0.166 F 
ATOM     24  F   UNL     1      -8.314  19.557  67.299  0.00  0.00    -0.166 F 
ATOM     25  F   UNL     1      -9.964  21.046  67.372  0.00  0.00    -0.166 F 
ENDBRANCH  21  22
ENDBRANCH  20  21
ENDBRANCH   7  20
TORSDOF 6
ENDMDL
MODEL 8
REMARK VINA RESULT:      -6.6      2.978      5.637
REMARK  Name = 
REMARK  6 active torsions:
REMARK  status: ('A' for Active; 'I' for Inactive)
REMARK    1  A    between atoms: C_3  and  O_4
REMARK    2  A    between atoms: O_4  and  C_5
REMARK    3  A    between atoms: C_5  and  C_6
REMARK    4  A    between atoms: C_13  and  C_14
REMARK    5  A    between atoms: C_14  and  S_15
REMARK    6  A    between atoms: S_15  and  C_17
REMARK                            x       y       z     vdW  Elec       q    Type
REMARK                         _______ _______ _______ _____ _____    ______ ____
ROOT
ATOM      1  C   UNL     1      -8.696  15.233  67.256  0.00  0.00    +0.035 C 
ATOM      2  C   UNL     1      -9.646  15.037  66.554  0.00  0.00    +0.027 A 
ATOM      3  C   UNL     1     -10.411  13.880  66.652  0.00  0.00    +0.072 A 
ATOM      4  N   UNL     1     -11.441  13.622  65.809  0.00  0.00    -0.247 NA
ATOM      5  C   UNL     1     -11.856  14.508  64.894  0.00  0.00    +0.102 A 
ATOM      6  C   UNL     1     -11.146  15.693  64.754  0.00  0.00    +0.057 A 
ATOM      7  C   UNL     1     -10.141  15.986  65.668  0.00  0.00    +0.138 A 
ENDROOT
BRANCH   3   8
ATOM      8  C   UNL     1      -9.794  12.700  67.313  0.00  0.00    +0.145 C 
BRANCH   8   9
ATOM      9  S   UNL     1     -10.811  12.200  68.765  0.00  0.00    +0.107 S 
ATOM     10  O   UNL     1     -12.035  11.577  68.030  0.00  0.00    -0.248 OA
BRANCH   9  11
ATOM     11  C   UNL     1     -11.480  13.810  69.257  0.00  0.00    +0.221 A 
ATOM     12  N   UNL     1     -10.814  14.671  70.066  0.00  0.00    -0.218 NA
ATOM     13  C   UNL     1     -11.663  15.268  70.914  0.00  0.00    +0.101 A 
ATOM     14  C   UNL     1     -12.942  14.886  70.531  0.00  0.00    +0.101 A 
ATOM     15  C   UNL     1     -14.036  15.189  71.331  0.00  0.00    +0.021 A 
ATOM     16  C   UNL     1     -13.808  15.357  72.682  0.00  0.00    +0.002 A 
ATOM     17  C   UNL     1     -12.551  15.805  73.053  0.00  0.00    +0.002 A 
ATOM     18  C   UNL     1     -11.563  15.988  72.094  0.00  0.00    +0.021 A 
ATOM     19  N   UNL     1     -12.771  14.134  69.423  0.00  0.00    -0.218 NA
ENDBRANCH   9  11
ENDBRANCH   8   9
ENDBRANCH   3   8
BRANCH   7  20
ATOM     20  O   UNL     1      -9.597  17.266  65.763  0.00  0.00    -0.467 OA
BRANCH  20  21
ATOM     21  C   UNL     1     -10.347  18.374  66.200  0.00  0.00    +0.308 C 
BRANCH  21  22
ATOM     22  C   UNL     1     -10.125  18.631  67.678  0.00  0.00    +0.438 C 
ATOM     23  F   UNL     1     -10.580  19.907  67.978  0.00  0.00    -0.166 F 
ATOM     24  F   UNL     1     -10.800  17.672  68.419  0.00  0.00    -0.166 F 
ATOM     25  F   UNL     1      -8.791  18.521  67.983  0.00  0.00    -0.166 F 
ENDBRANCH  21  22
ENDBRANCH  20  21
ENDBRANCH   7  20
TORSDOF 6
ENDMDL
MODEL 9
REMARK VINA RESULT:      -6.6      3.100      3.700
REMARK  Name = 
REMARK  6 active torsions:
REMARK  status: ('A' for Active; 'I' for Inactive)
REMARK    1  A    between atoms: C_3  and  O_4
REMARK    2  A    between atoms: O_4  and  C_5
REMARK    3  A    between atoms: C_5  and  C_6
REMARK    4  A    between atoms: C_13  and  C_14
REMARK    5  A    between atoms: C_14  and  S_15
REMARK    6  A    between atoms: S_15  and  C_17
REMARK                            x       y       z     vdW  Elec       q    Type
REMARK                         _______ _______ _______ _____ _____    ______ ____
ROOT
ATOM      1  C   UNL     1     -10.918  11.015  68.436  0.00  0.00    +0.035 C 
ATOM      2  C   UNL     1     -11.390  11.977  68.970  0.00  0.00    +0.027 A 
ATOM      3  C   UNL     1     -11.398  13.229  68.365  0.00  0.00    +0.072 A 
ATOM      4  N   UNL     1     -11.864  14.334  68.997  0.00  0.00    -0.247 NA
ATOM      5  C   UNL     1     -12.441  14.277  70.205  0.00  0.00    +0.102 A 
ATOM      6  C   UNL     1     -12.481  13.053  70.860  0.00  0.00    +0.057 A 
ATOM      7  C   UNL     1     -12.073  11.913  70.179  0.00  0.00    +0.138 A 
ENDROOT
BRANCH   3   8
ATOM      8  C   UNL     1     -10.435  13.465  67.257  0.00  0.00    +0.145 C 
BRANCH   8   9
ATOM      9  S   UNL     1     -11.240  14.464  65.936  0.00  0.00    +0.107 S 
ATOM     10  O   UNL     1     -10.727  13.703  64.677  0.00  0.00    -0.248 OA
BRANCH   9  11
ATOM     11  C   UNL     1     -10.160  15.919  65.932  0.00  0.00    +0.221 A 
ATOM     12  N   UNL     1      -9.233  16.154  66.893  0.00  0.00    -0.218 NA
ATOM     13  C   UNL     1      -9.188  17.459  67.191  0.00  0.00    +0.101 A 
ATOM     14  C   UNL     1     -10.012  18.104  66.277  0.00  0.00    +0.101 A 
ATOM     15  C   UNL     1     -10.326  19.448  66.438  0.00  0.00    +0.021 A 
ATOM     16  C   UNL     1     -10.286  19.960  67.719  0.00  0.00    +0.002 A 
ATOM     17  C   UNL     1      -9.411  19.357  68.607  0.00  0.00    +0.002 A 
ATOM     18  C   UNL     1      -8.683  18.238  68.220  0.00  0.00    +0.021 A 
ATOM     19  N   UNL     1     -10.441  17.135  65.442  0.00  0.00    -0.218 NA
ENDBRANCH   9  11
ENDBRANCH   8   9
ENDBRANCH   3   8
BRANCH   7  20
ATOM     20  O   UNL     1     -12.357  10.638  70.663  0.00  0.00    -0.467 OA
BRANCH  20  21
ATOM     21  C   UNL     1     -13.079  10.426  71.854  0.00  0.00    +0.308 C 
BRANCH  21  22
ATOM     22  C   UNL     1     -13.250   8.945  72.129  0.00  0.00    +0.438 C 
ATOM     23  F   UNL     1     -12.187   8.515  72.911  0.00  0.00    -0.166 F 
ATOM     24  F   UNL     1     -14.461   8.733  72.773  0.00  0.00    -0.166 F 
ATOM     25  F   UNL     1     -13.284   8.244  70.950  0.00  0.00    -0.166 F 
ENDBRANCH  21  22
ENDBRANCH  20  21
ENDBRANCH   7  20
TORSDOF 6
ENDMDL
