MODEL 1
REMARK VINA RESULT:      -8.3      0.000      0.000
REMARK  Name = 
REMARK  2 active torsions:
REMARK  status: ('A' for Active; 'I' for Inactive)
REMARK    1  A    between atoms: C_27  and  C_28
REMARK    2  A    between atoms: C_28  and  C_30
REMARK                            x       y       z     vdW  Elec       q    Type
REMARK                         _______ _______ _______ _____ _____    ______ ____
ROOT
ATOM      1  C   UNL     1     -11.382  13.810  69.500  0.00  0.00    +0.061 C 
ATOM      2  C   UNL     1     -11.390  13.266  68.918  0.00  0.00    +0.188 C 
ATOM      3  O   UNL     1     -12.295  13.655  67.956  0.00  0.00    -0.330 OA
ATOM      4  C   UNL     1     -11.588  13.978  66.852  0.00  0.00    +0.173 C 
ATOM      5  C   UNL     1     -10.479  12.763  66.885  0.00  0.00    +0.149 C 
ATOM      6  C   UNL     1      -9.194  13.699  66.419  0.00  0.00    +0.033 C 
ATOM      7  C   UNL     1      -9.544  14.886  67.452  0.00  0.00    +0.008 C 
ATOM      8  C   UNL     1      -8.810  16.151  66.605  0.00  0.00    +0.036 C 
ATOM      9  C   UNL     1      -9.000  17.120  67.871  0.00  0.00    +0.168 C 
ATOM     10  C   UNL     1     -10.564  17.005  68.316  0.00  0.00    +0.182 C 
ATOM     11  C   UNL     1     -11.198  16.517  66.871  0.00  0.00    +0.038 C 
ATOM     12  O   UNL     1     -10.889  18.460  68.000  0.00  0.00    -0.220 OA
ATOM     13  F   UNL     1      -8.416  16.558  68.965  0.00  0.00    -0.237 F 
ATOM     14  C   UNL     1      -8.547  18.393  67.434  0.00  0.00    +0.066 C 
ATOM     15  C   UNL     1      -7.070  18.161  67.265  0.00  0.00    -0.003 C 
ATOM     16  C   UNL     1      -6.435  19.278  66.891  0.00  0.00    +0.036 C 
ATOM     17  C   UNL     1      -6.876  20.600  67.348  0.00  0.00    +0.195 C 
ATOM     18  C   UNL     1      -8.001  20.602  68.294  0.00  0.00    +0.038 C 
ATOM     19  O   UNL     1      -6.136  21.618  67.194  0.00  0.00    -0.287 OA
ATOM     20  C   UNL     1      -6.696  17.062  66.126  0.00  0.00    +0.180 C 
ATOM     21  F   UNL     1      -5.308  16.880  66.694  0.00  0.00    -0.233 F 
ATOM     22  C   UNL     1      -9.165  18.821  66.138  0.00  0.00    +0.011 C 
ATOM     23  C   UNL     1      -8.594  19.432  68.492  0.00  0.00    -0.017 C 
ATOM     24  C   UNL     1      -7.278  15.780  67.003  0.00  0.00    +0.042 C 
ATOM     25  C   UNL     1     -10.897  15.152  66.603  0.00  0.00    +0.034 C 
ATOM     26  C   UNL     1     -10.508  15.113  65.115  0.00  0.00    +0.003 C 
ATOM     27  O   UNL     1     -10.197  12.928  68.363  0.00  0.00    -0.334 OA
ATOM     28  C   UNL     1     -12.062  12.117  69.666  0.00  0.00    +0.061 C 
ENDROOT
BRANCH   4  29
ATOM     29  C   UNL     1     -12.385  13.545  65.653  0.00  0.00    +0.210 C 
ATOM     30  O   UNL     1     -13.466  14.063  65.375  0.00  0.00    -0.291 OA
BRANCH  29  31
ATOM     31  C   UNL     1     -12.086  12.277  64.913  0.00  0.00    +0.248 C 
ATOM     32  O   UNL     1     -12.814  12.188  63.717  0.00  0.00    -0.212 OA
ENDBRANCH  29  31
ENDBRANCH   4  29
TORSDOF 2
ENDMDL
MODEL 2
REMARK VINA RESULT:      -8.1      1.785      3.511
REMARK  Name = 
REMARK  2 active torsions:
REMARK  status: ('A' for Active; 'I' for Inactive)
REMARK    1  A    between atoms: C_27  and  C_28
REMARK    2  A    between atoms: C_28  and  C_30
REMARK                            x       y       z     vdW  Elec       q    Type
REMARK                         _______ _______ _______ _____ _____    ______ ____
ROOT
ATOM      1  C   UNL     1     -10.951  13.966  64.896  0.00  0.00    +0.061 C 
ATOM      2  C   UNL     1     -11.391  13.666  65.489  0.00  0.00    +0.188 C 
ATOM      3  O   UNL     1     -10.580  12.918  66.313  0.00  0.00    -0.330 OA
ATOM      4  C   UNL     1     -10.493  13.574  67.489  0.00  0.00    +0.173 C 
ATOM      5  C   UNL     1     -12.059  14.057  67.637  0.00  0.00    +0.149 C 
ATOM      6  C   UNL     1     -11.712  15.561  68.238  0.00  0.00    +0.033 C 
ATOM      7  C   UNL     1     -10.578  15.861  67.133  0.00  0.00    +0.008 C 
ATOM      8  C   UNL     1      -9.671  16.971  68.029  0.00  0.00    +0.036 C 
ATOM      9  C   UNL     1      -8.821  17.345  66.719  0.00  0.00    +0.168 C 
ATOM     10  C   UNL     1      -8.306  15.938  66.079  0.00  0.00    +0.182 C 
ATOM     11  C   UNL     1      -8.362  15.008  67.443  0.00  0.00    +0.038 C 
ATOM     12  O   UNL     1      -6.828  16.232  66.305  0.00  0.00    -0.220 OA
ATOM     13  F   UNL     1      -9.665  17.745  65.728  0.00  0.00    -0.237 F 
ATOM     14  C   UNL     1      -7.823  18.249  67.173  0.00  0.00    +0.066 C 
ATOM     15  C   UNL     1      -8.637  19.460  67.540  0.00  0.00    -0.003 C 
ATOM     16  C   UNL     1      -7.862  20.467  67.959  0.00  0.00    +0.036 C 
ATOM     17  C   UNL     1      -6.520  20.681  67.408  0.00  0.00    +0.195 C 
ATOM     18  C   UNL     1      -6.126  19.771  66.324  0.00  0.00    +0.038 C 
ATOM     19  O   UNL     1      -5.897  21.764  67.626  0.00  0.00    -0.287 OA
ATOM     20  C   UNL     1      -9.693  19.208  68.751  0.00  0.00    +0.180 C 
ATOM     21  F   UNL     1     -10.487  20.437  68.374  0.00  0.00    -0.233 F 
ATOM     22  C   UNL     1      -7.070  17.740  68.364  0.00  0.00    +0.011 C 
ATOM     23  C   UNL     1      -6.951  18.760  66.087  0.00  0.00    -0.017 C 
ATOM     24  C   UNL     1     -10.681  18.231  67.845  0.00  0.00    +0.042 C 
ATOM     25  C   UNL     1      -9.700  14.669  67.790  0.00  0.00    +0.034 C 
ATOM     26  C   UNL     1      -9.775  14.846  69.316  0.00  0.00    +0.003 C 
ATOM     27  O   UNL     1     -12.150  14.536  66.204  0.00  0.00    -0.334 OA
ATOM     28  C   UNL     1     -12.210  12.651  64.696  0.00  0.00    +0.061 C 
ENDROOT
BRANCH   4  29
ATOM     29  C   UNL     1     -10.451  12.548  68.587  0.00  0.00    +0.210 C 
ATOM     30  O   UNL     1      -9.457  11.849  68.780  0.00  0.00    -0.291 OA
BRANCH  29  31
ATOM     31  C   UNL     1     -11.688  12.093  69.299  0.00  0.00    +0.248 C 
ATOM     32  O   UNL     1     -12.193  10.902  68.758  0.00  0.00    -0.212 OA
ENDBRANCH  29  31
ENDBRANCH   4  29
TORSDOF 2
ENDMDL
MODEL 3
REMARK VINA RESULT:      -7.6      1.646      2.046
REMARK  Name = 
REMARK  2 active torsions:
REMARK  status: ('A' for Active; 'I' for Inactive)
REMARK    1  A    between atoms: C_27  and  C_28
REMARK    2  A    between atoms: C_28  and  C_30
REMARK                            x       y       z     vdW  Elec       q    Type
REMARK                         _______ _______ _______ _____ _____    ______ ____
ROOT
ATOM      1  C   UNL     1     -11.281  16.434  69.980  0.00  0.00    +0.061 C 
ATOM      2  C   UNL     1     -11.288  15.675  69.738  0.00  0.00    +0.188 C 
ATOM      3  O   UNL     1     -11.807  15.618  68.464  0.00  0.00    -0.330 OA
ATOM      4  C   UNL     1     -10.800  15.264  67.638  0.00  0.00    +0.173 C 
ATOM      5  C   UNL     1     -10.077  14.124  68.578  0.00  0.00    +0.149 C 
ATOM      6  C   UNL     1      -8.524  14.558  68.198  0.00  0.00    +0.033 C 
ATOM      7  C   UNL     1      -8.797  16.133  68.409  0.00  0.00    +0.008 C 
ATOM      8  C   UNL     1      -7.585  16.714  67.383  0.00  0.00    +0.036 C 
ATOM      9  C   UNL     1      -7.819  18.203  67.938  0.00  0.00    +0.168 C 
ATOM     10  C   UNL     1      -9.420  18.491  67.839  0.00  0.00    +0.182 C 
ATOM     11  C   UNL     1      -9.795  17.411  66.646  0.00  0.00    +0.038 C 
ATOM     12  O   UNL     1      -9.281  19.613  66.817  0.00  0.00    -0.220 OA
ATOM     13  F   UNL     1      -7.675  18.211  69.292  0.00  0.00    -0.237 F 
ATOM     14  C   UNL     1      -6.967  19.027  67.155  0.00  0.00    +0.066 C 
ATOM     15  C   UNL     1      -5.601  18.589  67.609  0.00  0.00    -0.003 C 
ATOM     16  C   UNL     1      -4.633  19.292  67.010  0.00  0.00    +0.036 C 
ATOM     17  C   UNL     1      -4.820  20.702  66.652  0.00  0.00    +0.195 C 
ATOM     18  C   UNL     1      -6.099  21.297  67.062  0.00  0.00    +0.038 C 
ATOM     19  O   UNL     1      -3.830  21.419  66.313  0.00  0.00    -0.287 OA
ATOM     20  C   UNL     1      -5.258  17.034  67.279  0.00  0.00    +0.180 C 
ATOM     21  F   UNL     1      -4.138  17.019  68.294  0.00  0.00    -0.233 F 
ATOM     22  C   UNL     1      -7.129  18.804  65.682  0.00  0.00    +0.011 C 
ATOM     23  C   UNL     1      -6.999  20.456  67.552  0.00  0.00    -0.017 C 
ATOM     24  C   UNL     1      -6.338  16.437  68.389  0.00  0.00    +0.042 C 
ATOM     25  C   UNL     1      -9.795  16.074  67.135  0.00  0.00    +0.034 C 
ATOM     26  C   UNL     1      -9.086  15.250  66.046  0.00  0.00    +0.003 C 
ATOM     27  O   UNL     1     -10.123  14.981  69.824  0.00  0.00    -0.334 OA
ATOM     28  C   UNL     1     -12.387  15.137  70.649  0.00  0.00    +0.061 C 
ENDROOT
BRANCH   4  29
ATOM     29  C   UNL     1     -11.372  14.372  66.571  0.00  0.00    +0.210 C 
ATOM     30  O   UNL     1     -11.914  14.832  65.567  0.00  0.00    -0.291 OA
BRANCH  29  31
ATOM     31  C   UNL     1     -11.600  12.909  66.795  0.00  0.00    +0.248 C 
ATOM     32  O   UNL     1     -12.354  12.335  65.761  0.00  0.00    -0.212 OA
ENDBRANCH  29  31
ENDBRANCH   4  29
TORSDOF 2
ENDMDL
MODEL 4
REMARK VINA RESULT:      -7.6      3.603      6.100
REMARK  Name = 
REMARK  2 active torsions:
REMARK  status: ('A' for Active; 'I' for Inactive)
REMARK    1  A    between atoms: C_27  and  C_28
REMARK    2  A    between atoms: C_28  and  C_30
REMARK                            x       y       z     vdW  Elec       q    Type
REMARK                         _______ _______ _______ _____ _____    ______ ____
ROOT
ATOM      1  C   UNL     1      -7.417   9.893  69.309  0.00  0.00    +0.061 C 
ATOM      2  C   UNL     1      -7.882   9.253  69.405  0.00  0.00    +0.188 C 
ATOM      3  O   UNL     1      -8.814   9.520  70.383  0.00  0.00    -0.330 OA
ATOM      4  C   UNL     1     -10.019   9.583  69.779  0.00  0.00    +0.173 C 
ATOM      5  C   UNL     1      -9.857   8.321  68.736  0.00  0.00    +0.149 C 
ATOM      6  C   UNL     1     -10.610   9.064  67.461  0.00  0.00    +0.033 C 
ATOM      7  C   UNL     1      -9.794  10.442  67.641  0.00  0.00    +0.008 C 
ATOM      8  C   UNL     1     -10.930  11.475  66.934  0.00  0.00    +0.036 C 
ATOM      9  C   UNL     1      -9.859  12.671  66.942  0.00  0.00    +0.168 C 
ATOM     10  C   UNL     1      -9.259  12.750  68.456  0.00  0.00    +0.182 C 
ATOM     11  C   UNL     1     -10.520  12.049  69.261  0.00  0.00    +0.038 C 
ATOM     12  O   UNL     1      -9.815  14.140  68.737  0.00  0.00    -0.220 OA
ATOM     13  F   UNL     1      -8.737  12.281  66.278  0.00  0.00    -0.237 F 
ATOM     14  C   UNL     1     -10.572  13.807  66.472  0.00  0.00    +0.066 C 
ATOM     15  C   UNL     1     -10.829  13.446  65.035  0.00  0.00    -0.003 C 
ATOM     16  C   UNL     1     -11.465  14.428  64.386  0.00  0.00    +0.036 C 
ATOM     17  C   UNL     1     -11.229  15.838  64.709  0.00  0.00    +0.195 C 
ATOM     18  C   UNL     1     -10.202  16.093  65.728  0.00  0.00    +0.038 C 
ATOM     19  O   UNL     1     -11.643  16.756  63.938  0.00  0.00    -0.287 OA
ATOM     20  C   UNL     1     -11.767  12.132  64.838  0.00  0.00    +0.180 C 
ATOM     21  F   UNL     1     -11.305  11.961  63.409  0.00  0.00    -0.233 F 
ATOM     22  C   UNL     1     -11.863  14.030  67.199  0.00  0.00    +0.011 C 
ATOM     23  C   UNL     1      -9.731  15.024  66.357  0.00  0.00    -0.017 C 
ATOM     24  C   UNL     1     -10.612  11.078  65.390  0.00  0.00    +0.042 C 
ATOM     25  C   UNL     1     -10.550  10.640  69.059  0.00  0.00    +0.034 C 
ATOM     26  C   UNL     1     -12.033  10.300  68.829  0.00  0.00    +0.003 C 
ATOM     27  O   UNL     1      -8.470   8.736  68.294  0.00  0.00    -0.334 OA
ATOM     28  C   UNL     1      -6.871   8.312  70.053  0.00  0.00    +0.061 C 
ENDROOT
BRANCH   4  29
ATOM     29  C   UNL     1     -11.035   8.993  70.718  0.00  0.00    +0.210 C 
ATOM     30  O   UNL     1     -11.470   9.625  71.679  0.00  0.00    -0.291 OA
BRANCH  29  31
ATOM     31  C   UNL     1     -11.345   7.528  70.736  0.00  0.00    +0.248 C 
ATOM     32  O   UNL     1     -12.673   7.281  71.114  0.00  0.00    -0.212 OA
ENDBRANCH  29  31
ENDBRANCH   4  29
TORSDOF 2
ENDMDL
MODEL 5
REMARK VINA RESULT:      -7.3      3.191      7.046
REMARK  Name = 
REMARK  2 active torsions:
REMARK  status: ('A' for Active; 'I' for Inactive)
REMARK    1  A    between atoms: C_27  and  C_28
REMARK    2  A    between atoms: C_28  and  C_30
REMARK                            x       y       z     vdW  Elec       q    Type
REMARK                         _______ _______ _______ _____ _____    ______ ____
ROOT
ATOM      1  C   UNL     1     -11.914  13.987  69.937  0.00  0.00    +0.061 C 
ATOM      2  C   UNL     1     -11.860  14.731  69.657  0.00  0.00    +0.188 C 
ATOM      3  O   UNL     1     -10.574  15.186  69.842  0.00  0.00    -0.330 OA
ATOM      4  C   UNL     1     -10.014  15.306  68.620  0.00  0.00    +0.173 C 
ATOM      5  C   UNL     1     -11.294  15.942  67.805  0.00  0.00    +0.149 C 
ATOM      6  C   UNL     1     -11.055  15.069  66.418  0.00  0.00    +0.033 C 
ATOM      7  C   UNL     1     -10.844  13.676  67.200  0.00  0.00    +0.008 C 
ATOM      8  C   UNL     1      -9.900  12.898  66.033  0.00  0.00    +0.036 C 
ATOM      9  C   UNL     1     -10.045  11.511  66.829  0.00  0.00    +0.168 C 
ATOM     10  C   UNL     1      -9.645  11.818  68.379  0.00  0.00    +0.182 C 
ATOM     11  C   UNL     1      -8.701  13.152  68.132  0.00  0.00    +0.038 C 
ATOM     12  O   UNL     1      -8.419  10.914  68.371  0.00  0.00    -0.220 OA
ATOM     13  F   UNL     1     -11.365  11.218  66.994  0.00  0.00    -0.237 F 
ATOM     14  C   UNL     1      -9.225  10.592  66.122  0.00  0.00    +0.066 C 
ATOM     15  C   UNL     1      -9.966  10.443  64.821  0.00  0.00    -0.003 C 
ATOM     16  C   UNL     1      -9.367   9.563  64.010  0.00  0.00    +0.036 C 
ATOM     17  C   UNL     1      -8.661   8.391  64.539  0.00  0.00    +0.195 C 
ATOM     18  C   UNL     1      -8.725   8.215  65.996  0.00  0.00    +0.038 C 
ATOM     19  O   UNL     1      -8.312   7.445  63.769  0.00  0.00    -0.287 OA
ATOM     20  C   UNL     1     -10.069  11.814  63.954  0.00  0.00    +0.180 C 
ATOM     21  F   UNL     1     -11.213  11.263  63.134  0.00  0.00    -0.233 F 
ATOM     22  C   UNL     1      -7.839  11.110  65.882  0.00  0.00    +0.011 C 
ATOM     23  C   UNL     1      -9.262   9.218  66.678  0.00  0.00    -0.017 C 
ATOM     24  C   UNL     1     -11.116  12.546  65.013  0.00  0.00    +0.042 C 
ATOM     25  C   UNL     1      -9.487  14.299  67.828  0.00  0.00    +0.034 C 
ATOM     26  C   UNL     1      -8.742  15.001  66.680  0.00  0.00    +0.003 C 
ATOM     27  O   UNL     1     -12.280  14.951  68.384  0.00  0.00    -0.334 OA
ATOM     28  C   UNL     1     -12.701  15.450  70.709  0.00  0.00    +0.061 C 
ENDROOT
BRANCH   4  29
ATOM     29  C   UNL     1      -9.116  16.512  68.642  0.00  0.00    +0.210 C 
ATOM     30  O   UNL     1      -7.986  16.468  69.125  0.00  0.00    -0.291 OA
BRANCH  29  31
ATOM     31  C   UNL     1      -9.632  17.893  68.375  0.00  0.00    +0.248 C 
ATOM     32  O   UNL     1      -8.705  18.877  68.749  0.00  0.00    -0.212 OA
ENDBRANCH  29  31
ENDBRANCH   4  29
TORSDOF 2
ENDMDL
MODEL 6
REMARK VINA RESULT:      -7.2      2.074      7.215
REMARK  Name = 
REMARK  2 active torsions:
REMARK  status: ('A' for Active; 'I' for Inactive)
REMARK    1  A    between atoms: C_27  and  C_28
REMARK    2  A    between atoms: C_28  and  C_30
REMARK                            x       y       z     vdW  Elec       q    Type
REMARK                         _______ _______ _______ _____ _____    ______ ____
ROOT
ATOM      1  C   UNL     1      -5.144  17.818  69.912  0.00  0.00    +0.061 C 
ATOM      2  C   UNL     1      -5.295  18.552  69.642  0.00  0.00    +0.188 C 
ATOM      3  O   UNL     1      -4.957  18.615  68.308  0.00  0.00    -0.330 OA
ATOM      4  C   UNL     1      -6.104  18.752  67.612  0.00  0.00    +0.173 C 
ATOM      5  C   UNL     1      -6.884  19.816  68.596  0.00  0.00    +0.149 C 
ATOM      6  C   UNL     1      -8.378  19.116  68.445  0.00  0.00    +0.033 C 
ATOM      7  C   UNL     1      -7.822  17.622  68.677  0.00  0.00    +0.008 C 
ATOM      8  C   UNL     1      -9.038  16.793  67.846  0.00  0.00    +0.036 C 
ATOM      9  C   UNL     1      -8.491  15.397  68.421  0.00  0.00    +0.168 C 
ATOM     10  C   UNL     1      -6.890  15.364  68.119  0.00  0.00    +0.182 C 
ATOM     11  C   UNL     1      -6.854  16.417  66.847  0.00  0.00    +0.038 C 
ATOM     12  O   UNL     1      -6.968  14.175  67.169  0.00  0.00    -0.220 OA
ATOM     13  F   UNL     1      -8.460  15.447  69.781  0.00  0.00    -0.237 F 
ATOM     14  C   UNL     1      -9.286  14.402  67.792  0.00  0.00    +0.066 C 
ATOM     15  C   UNL     1     -10.637  14.641  68.407  0.00  0.00    -0.003 C 
ATOM     16  C   UNL     1     -11.542  13.757  67.971  0.00  0.00    +0.036 C 
ATOM     17  C   UNL     1     -11.169  12.376  67.645  0.00  0.00    +0.195 C 
ATOM     18  C   UNL     1      -9.767  12.020  67.903  0.00  0.00    +0.038 C 
ATOM     19  O   UNL     1     -12.059  11.490  67.470  0.00  0.00    -0.287 OA
ATOM     20  C   UNL     1     -11.273  16.098  68.067  0.00  0.00    +0.180 C 
ATOM     21  F   UNL     1     -12.243  15.994  69.221  0.00  0.00    -0.233 F 
ATOM     22  C   UNL     1      -9.350  14.558  66.303  0.00  0.00    +0.011 C 
ATOM     23  C   UNL     1      -8.965  13.023  68.235  0.00  0.00    -0.017 C 
ATOM     24  C   UNL     1     -10.178  16.926  68.998  0.00  0.00    +0.042 C 
ATOM     25  C   UNL     1      -7.016  17.763  67.279  0.00  0.00    +0.034 C 
ATOM     26  C   UNL     1      -7.983  18.396  66.265  0.00  0.00    +0.003 C 
ATOM     27  O   UNL     1      -6.539  19.053  69.857  0.00  0.00    -0.334 OA
ATOM     28  C   UNL     1      -4.195  19.313  70.376  0.00  0.00    +0.061 C 
ENDROOT
BRANCH   4  29
ATOM     29  C   UNL     1      -5.829  19.659  66.445  0.00  0.00    +0.210 C 
ATOM     30  O   UNL     1      -5.264  19.253  65.431  0.00  0.00    -0.291 OA
BRANCH  29  31
ATOM     31  C   UNL     1      -5.931  21.150  66.553  0.00  0.00    +0.248 C 
ATOM     32  O   UNL     1      -4.668  21.760  66.565  0.00  0.00    -0.212 OA
ENDBRANCH  29  31
ENDBRANCH   4  29
TORSDOF 2
ENDMDL
MODEL 7
REMARK VINA RESULT:      -7.1      3.446      7.625
REMARK  Name = 
REMARK  2 active torsions:
REMARK  status: ('A' for Active; 'I' for Inactive)
REMARK    1  A    between atoms: C_27  and  C_28
REMARK    2  A    between atoms: C_28  and  C_30
REMARK                            x       y       z     vdW  Elec       q    Type
REMARK                         _______ _______ _______ _____ _____    ______ ____
ROOT
ATOM      1  C   UNL     1      -8.356  14.788  66.891  0.00  0.00    +0.061 C 
ATOM      2  C   UNL     1      -9.042  15.158  66.728  0.00  0.00    +0.188 C 
ATOM      3  O   UNL     1      -9.511  14.715  65.511  0.00  0.00    -0.330 OA
ATOM      4  C   UNL     1     -10.628  13.997  65.752  0.00  0.00    +0.173 C 
ATOM      5  C   UNL     1     -11.310  14.950  66.907  0.00  0.00    +0.149 C 
ATOM      6  C   UNL     1     -11.847  13.702  67.855  0.00  0.00    +0.033 C 
ATOM      7  C   UNL     1     -10.449  12.903  67.785  0.00  0.00    +0.008 C 
ATOM      8  C   UNL     1     -11.058  11.350  68.057  0.00  0.00    +0.036 C 
ATOM      9  C   UNL     1      -9.565  10.787  68.238  0.00  0.00    +0.168 C 
ATOM     10  C   UNL     1      -8.713  11.302  66.948  0.00  0.00    +0.182 C 
ATOM     11  C   UNL     1      -9.965  11.518  65.892  0.00  0.00    +0.038 C 
ATOM     12  O   UNL     1      -8.457   9.903  66.402  0.00  0.00    -0.220 OA
ATOM     13  F   UNL     1      -8.931  11.488  69.218  0.00  0.00    -0.237 F 
ATOM     14  C   UNL     1      -9.716   9.383  68.392  0.00  0.00    +0.066 C 
ATOM     15  C   UNL     1     -10.398   9.283  69.729  0.00  0.00    -0.003 C 
ATOM     16  C   UNL     1     -10.595   8.009  70.088  0.00  0.00    +0.036 C 
ATOM     17  C   UNL     1      -9.646   6.953  69.719  0.00  0.00    +0.195 C 
ATOM     18  C   UNL     1      -8.444   7.402  69.004  0.00  0.00    +0.038 C 
ATOM     19  O   UNL     1      -9.709   5.809  70.262  0.00  0.00    -0.287 OA
ATOM     20  C   UNL     1     -11.872   9.967  69.775  0.00  0.00    +0.180 C 
ATOM     21  F   UNL     1     -11.848  10.024  71.285  0.00  0.00    -0.233 F 
ATOM     22  C   UNL     1     -10.562   8.765  67.321  0.00  0.00    +0.011 C 
ATOM     23  C   UNL     1      -8.434   8.674  68.626  0.00  0.00    -0.017 C 
ATOM     24  C   UNL     1     -11.288  11.515  69.658  0.00  0.00    +0.042 C 
ATOM     25  C   UNL     1     -10.712  12.689  66.202  0.00  0.00    +0.034 C 
ATOM     26  C   UNL     1     -12.186  12.276  66.044  0.00  0.00    +0.003 C 
ATOM     27  O   UNL     1     -10.016  15.114  67.675  0.00  0.00    -0.334 OA
ATOM     28  C   UNL     1      -8.507  16.564  66.469  0.00  0.00    +0.061 C 
ENDROOT
BRANCH   4  29
ATOM     29  C   UNL     1     -11.591  14.253  64.626  0.00  0.00    +0.210 C 
ATOM     30  O   UNL     1     -11.583  13.572  63.602  0.00  0.00    -0.291 OA
BRANCH  29  31
ATOM     31  C   UNL     1     -12.391  15.515  64.536  0.00  0.00    +0.248 C 
ATOM     32  O   UNL     1     -11.687  16.533  63.875  0.00  0.00    -0.212 OA
ENDBRANCH  29  31
ENDBRANCH   4  29
TORSDOF 2
ENDMDL
MODEL 8
REMARK VINA RESULT:      -7.1      3.914      7.180
REMARK  Name = 
REMARK  2 active torsions:
REMARK  status: ('A' for Active; 'I' for Inactive)
REMARK    1  A    between atoms: C_27  and  C_28
REMARK    2  A    between atoms: C_28  and  C_30
REMARK                            x       y       z     vdW  Elec       q    Type
REMARK                         _______ _______ _______ _____ _____    ______ ____
ROOT
ATOM      1  C   UNL     1     -10.805  14.526  69.467  0.00  0.00    +0.061 C 
ATOM      2  C   UNL     1     -11.261  14.764  68.859  0.00  0.00    +0.188 C 
ATOM      3  O   UNL     1     -10.459  15.331  67.894  0.00  0.00    -0.330 OA
ATOM      4  C   UNL     1     -10.476  14.507  66.826  0.00  0.00    +0.173 C 
ATOM      5  C   UNL     1     -12.072  14.107  66.827  0.00  0.00    +0.149 C 
ATOM      6  C   UNL     1     -11.842  12.513  66.439  0.00  0.00    +0.033 C 
ATOM      7  C   UNL     1     -10.666  12.306  67.521  0.00  0.00    +0.008 C 
ATOM      8  C   UNL     1      -9.874  11.023  66.756  0.00  0.00    +0.036 C 
ATOM      9  C   UNL     1      -8.972  10.790  68.064  0.00  0.00    +0.168 C 
ATOM     10  C   UNL     1      -8.345  12.241  68.463  0.00  0.00    +0.182 C 
ATOM     11  C   UNL     1      -8.427  12.964  66.980  0.00  0.00    +0.038 C 
ATOM     12  O   UNL     1      -6.901  11.825  68.212  0.00  0.00    -0.220 OA
ATOM     13  F   UNL     1      -9.778  10.592  69.143  0.00  0.00    -0.237 F 
ATOM     14  C   UNL     1      -8.053   9.769  67.702  0.00  0.00    +0.066 C 
ATOM     15  C   UNL     1      -8.952   8.572  67.558  0.00  0.00    -0.003 C 
ATOM     16  C   UNL     1      -8.259   7.468  67.256  0.00  0.00    +0.036 C 
ATOM     17  C   UNL     1      -6.901   7.252  67.767  0.00  0.00    +0.195 C 
ATOM     18  C   UNL     1      -6.396   8.283  68.684  0.00  0.00    +0.038 C 
ATOM     19  O   UNL     1      -6.352   6.112  67.682  0.00  0.00    -0.287 OA
ATOM     20  C   UNL     1     -10.060   8.711  66.376  0.00  0.00    +0.180 C 
ATOM     21  F   UNL     1     -10.897   7.601  66.968  0.00  0.00    -0.233 F 
ATOM     22  C   UNL     1      -7.342  10.052  66.413  0.00  0.00    +0.011 C 
ATOM     23  C   UNL     1      -7.150   9.368  68.808  0.00  0.00    -0.017 C 
ATOM     24  C   UNL     1     -10.940   9.869  67.174  0.00  0.00    +0.042 C 
ATOM     25  C   UNL     1      -9.762  13.332  66.653  0.00  0.00    +0.034 C 
ATOM     26  C   UNL     1      -9.934  12.941  65.175  0.00  0.00    +0.003 C 
ATOM     27  O   UNL     1     -12.107  13.848  68.318  0.00  0.00    -0.334 OA
ATOM     28  C   UNL     1     -11.977  15.932  69.531  0.00  0.00    +0.061 C 
ENDROOT
BRANCH   4  29
ATOM     29  C   UNL     1     -10.440  15.359  65.587  0.00  0.00    +0.210 C 
ATOM     30  O   UNL     1      -9.550  16.186  65.398  0.00  0.00    -0.291 OA
BRANCH  29  31
ATOM     31  C   UNL     1     -11.619  15.483  64.673  0.00  0.00    +0.248 C 
ATOM     32  O   UNL     1     -11.579  16.672  63.929  0.00  0.00    -0.212 OA
ENDBRANCH  29  31
ENDBRANCH   4  29
TORSDOF 2
ENDMDL
MODEL 9
REMARK VINA RESULT:      -7.0      2.736      7.923
REMARK  Name = 
REMARK  2 active torsions:
REMARK  status: ('A' for Active; 'I' for Inactive)
REMARK    1  A    between atoms: C_27  and  C_28
REMARK    2  A    between atoms: C_28  and  C_30
REMARK                            x       y       z     vdW  Elec       q    Type
REMARK                         _______ _______ _______ _____ _____    ______ ____
ROOT
ATOM      1  C   UNL     1      -4.450  20.596  66.502  0.00  0.00    +0.061 C 
ATOM      2  C   UNL     1      -3.942  20.540  67.113  0.00  0.00    +0.188 C 
ATOM      3  O   UNL     1      -4.540  21.055  68.241  0.00  0.00    -0.330 OA
ATOM      4  C   UNL     1      -4.760  20.023  69.082  0.00  0.00    +0.173 C 
ATOM      5  C   UNL     1      -3.349  19.204  68.868  0.00  0.00    +0.149 C 
ATOM      6  C   UNL     1      -4.031  17.694  68.889  0.00  0.00    +0.033 C 
ATOM      7  C   UNL     1      -5.221  18.099  67.880  0.00  0.00    +0.008 C 
ATOM      8  C   UNL     1      -6.349  16.943  68.381  0.00  0.00    +0.036 C 
ATOM      9  C   UNL     1      -7.285  17.301  67.127  0.00  0.00    +0.168 C 
ATOM     10  C   UNL     1      -7.464  18.921  67.126  0.00  0.00    +0.182 C 
ATOM     11  C   UNL     1      -7.169  19.205  68.726  0.00  0.00    +0.038 C 
ATOM     12  O   UNL     1      -8.966  18.879  67.381  0.00  0.00    -0.220 OA
ATOM     13  F   UNL     1      -6.575  17.155  65.974  0.00  0.00    -0.237 F 
ATOM     14  C   UNL     1      -8.459  16.523  67.309  0.00  0.00    +0.066 C 
ATOM     15  C   UNL     1      -7.946  15.124  67.100  0.00  0.00    -0.003 C 
ATOM     16  C   UNL     1      -8.930  14.221  67.187  0.00  0.00    +0.036 C 
ATOM     17  C   UNL     1     -10.293  14.527  66.743  0.00  0.00    +0.195 C 
ATOM     18  C   UNL     1     -10.480  15.851  66.134  0.00  0.00    +0.038 C 
ATOM     19  O   UNL     1     -11.150  13.603  66.601  0.00  0.00    -0.287 OA
ATOM     20  C   UNL     1      -6.842  14.652  68.196  0.00  0.00    +0.180 C 
ATOM     21  F   UNL     1      -6.365  13.533  67.299  0.00  0.00    -0.233 F 
ATOM     22  C   UNL     1      -9.052  16.669  68.677  0.00  0.00    +0.011 C 
ATOM     23  C   UNL     1      -9.445  16.676  66.210  0.00  0.00    -0.017 C 
ATOM     24  C   UNL     1      -5.666  15.675  67.627  0.00  0.00    +0.042 C 
ATOM     25  C   UNL     1      -5.783  19.091  69.030  0.00  0.00    +0.034 C 
ATOM     26  C   UNL     1      -5.727  18.317  70.358  0.00  0.00    +0.003 C 
ATOM     27  O   UNL     1      -3.397  19.319  67.360  0.00  0.00    -0.334 OA
ATOM     28  C   UNL     1      -2.920  21.587  66.680  0.00  0.00    +0.061 C 
ENDROOT
BRANCH   4  29
ATOM     29  C   UNL     1      -4.542  20.520  70.485  0.00  0.00    +0.210 C 
ATOM     30  O   UNL     1      -5.371  21.224  71.057  0.00  0.00    -0.291 OA
BRANCH  29  31
ATOM     31  C   UNL     1      -3.201  20.460  71.151  0.00  0.00    +0.248 C 
ATOM     32  O   UNL     1      -3.310  20.156  72.516  0.00  0.00    -0.212 OA
ENDBRANCH  29  31
ENDBRANCH   4  29
TORSDOF 2
ENDMDL
