MODEL 1
REMARK VINA RESULT:      -8.6      0.000      0.000
REMARK  Name = 
REMARK  4 active torsions:
REMARK  status: ('A' for Active; 'I' for Inactive)
REMARK    1  A    between atoms: C_2  and  C_3
REMARK    2  A    between atoms: C_2  and  C_21
REMARK    3  A    between atoms: C_5  and  C_6
REMARK    4  A    between atoms: C_16  and  C_17
REMARK                            x       y       z     vdW  Elec       q    Type
REMARK                         _______ _______ _______ _____ _____    ______ ____
ROOT
ATOM      1  C   UNL     1     -11.550  13.098  68.565  0.00  0.00    +0.012 A 
ATOM      2  C   UNL     1     -11.905  14.142  69.376  0.00  0.00    +0.016 A 
ATOM      3  C   UNL     1     -11.371  15.372  69.116  0.00  0.00    +0.001 A 
ATOM      4  C   UNL     1     -11.193  16.292  70.142  0.00  0.00    +0.000 A 
ATOM      5  C   UNL     1     -11.832  16.057  71.354  0.00  0.00    +0.005 A 
ATOM      6  C   UNL     1     -12.523  14.875  71.582  0.00  0.00    +0.089 A 
ATOM      7  C   UNL     1     -12.282  13.857  70.682  0.00  0.00    +0.085 A 
ATOM      8  N   UNL     1     -12.514  12.563  71.015  0.00  0.00    -0.241 NA
ATOM      9  C   UNL     1     -11.973  11.562  70.276  0.00  0.00    +0.152 A 
ATOM     10  C   UNL     1     -11.602  11.813  68.957  0.00  0.00    +0.021 A 
ENDROOT
BRANCH   6  11
ATOM     11  C   UNL     1     -13.529  14.690  72.636  0.00  0.00    +0.420 C 
ATOM     12  F   UNL     1     -14.422  13.672  72.377  0.00  0.00    -0.166 F 
ATOM     13  F   UNL     1     -14.232  15.867  72.831  0.00  0.00    -0.166 F 
ATOM     14  F   UNL     1     -12.896  14.357  73.821  0.00  0.00    -0.166 F 
ENDBRANCH   6  11
BRANCH   9  15
ATOM     15  C   UNL     1     -12.244  10.146  70.678  0.00  0.00    +0.435 C 
ATOM     16  F   UNL     1     -13.582   9.855  70.726  0.00  0.00    -0.164 F 
ATOM     17  F   UNL     1     -11.646   9.898  71.894  0.00  0.00    -0.164 F 
ATOM     18  F   UNL     1     -11.611   9.361  69.715  0.00  0.00    -0.164 F 
ENDBRANCH   9  15
BRANCH   1  20
ATOM     19  O   UNL     1     -12.236  12.108  66.600  0.00  0.00    -0.217 OA
ATOM     20  C   UNL     1     -11.569  13.441  66.972  0.00  0.00    +0.190 C 
BRANCH  20  21
ATOM     21  C   UNL     1      -9.963  12.779  66.739  0.00  0.00    +0.107 C 
ATOM     22  N   UNL     1     -10.074  12.700  65.172  0.00  0.00    -0.217 NA
ATOM     23  C   UNL     1     -10.946  13.641  64.665  0.00  0.00    +0.089 C 
ATOM     24  C   UNL     1     -10.614  15.083  64.785  0.00  0.00    +0.019 C 
ATOM     25  C   UNL     1     -10.114  15.264  66.188  0.00  0.00    +0.003 C 
ATOM     26  C   UNL     1      -9.210  14.240  66.691  0.00  0.00    +0.020 C 
ENDBRANCH  20  21
ENDBRANCH   1  20
TORSDOF 4
ENDMDL
MODEL 2
REMARK VINA RESULT:      -7.6      3.408      5.122
REMARK  Name = 
REMARK  4 active torsions:
REMARK  status: ('A' for Active; 'I' for Inactive)
REMARK    1  A    between atoms: C_2  and  C_3
REMARK    2  A    between atoms: C_2  and  C_21
REMARK    3  A    between atoms: C_5  and  C_6
REMARK    4  A    between atoms: C_16  and  C_17
REMARK                            x       y       z     vdW  Elec       q    Type
REMARK                         _______ _______ _______ _____ _____    ______ ____
ROOT
ATOM      1  C   UNL     1     -10.493  14.733  67.881  0.00  0.00    +0.012 A 
ATOM      2  C   UNL     1      -9.957  15.875  67.351  0.00  0.00    +0.016 A 
ATOM      3  C   UNL     1      -8.993  15.751  66.391  0.00  0.00    +0.001 A 
ATOM      4  C   UNL     1      -8.029  16.740  66.232  0.00  0.00    +0.000 A 
ATOM      5  C   UNL     1      -8.239  17.968  66.848  0.00  0.00    +0.005 A 
ATOM      6  C   UNL     1      -9.313  18.165  67.704  0.00  0.00    +0.089 A 
ATOM      7  C   UNL     1      -9.955  17.022  68.134  0.00  0.00    +0.085 A 
ATOM      8  N   UNL     1     -10.691  17.021  69.273  0.00  0.00    -0.241 NA
ATOM      9  C   UNL     1     -11.033  15.849  69.863  0.00  0.00    +0.152 A 
ATOM     10  C   UNL     1     -11.062  14.684  69.098  0.00  0.00    +0.021 A 
ENDROOT
BRANCH   6  11
ATOM     11  C   UNL     1      -9.840  19.482  68.088  0.00  0.00    +0.420 C 
ATOM     12  F   UNL     1      -9.849  19.699  69.449  0.00  0.00    -0.166 F 
ATOM     13  F   UNL     1     -11.125  19.639  67.598  0.00  0.00    -0.166 F 
ATOM     14  F   UNL     1      -9.040  20.473  67.544  0.00  0.00    -0.166 F 
ENDBRANCH   6  11
BRANCH   9  15
ATOM     15  C   UNL     1     -11.838  15.886  71.124  0.00  0.00    +0.435 C 
ATOM     16  F   UNL     1     -11.590  17.003  71.878  0.00  0.00    -0.164 F 
ATOM     17  F   UNL     1     -11.594  14.742  71.852  0.00  0.00    -0.164 F 
ATOM     18  F   UNL     1     -13.170  15.863  70.714  0.00  0.00    -0.164 F 
ENDBRANCH   9  15
BRANCH   1  20
ATOM     19  O   UNL     1     -12.380  13.881  66.869  0.00  0.00    -0.217 OA
ATOM     20  C   UNL     1     -10.874  13.590  66.784  0.00  0.00    +0.190 C 
BRANCH  20  21
ATOM     21  C   UNL     1     -10.977  12.344  68.012  0.00  0.00    +0.107 C 
ATOM     22  N   UNL     1     -11.502  11.231  67.034  0.00  0.00    -0.217 NA
ATOM     23  C   UNL     1     -11.090  11.445  65.734  0.00  0.00    +0.089 C 
ATOM     24  C   UNL     1      -9.646  11.359  65.403  0.00  0.00    +0.019 C 
ATOM     25  C   UNL     1      -8.938  12.097  66.501  0.00  0.00    +0.003 C 
ATOM     26  C   UNL     1      -9.414  11.857  67.855  0.00  0.00    +0.020 C 
ENDBRANCH  20  21
ENDBRANCH   1  20
TORSDOF 4
ENDMDL
MODEL 3
REMARK VINA RESULT:      -7.6      3.153      6.300
REMARK  Name = 
REMARK  4 active torsions:
REMARK  status: ('A' for Active; 'I' for Inactive)
REMARK    1  A    between atoms: C_2  and  C_3
REMARK    2  A    between atoms: C_2  and  C_21
REMARK    3  A    between atoms: C_5  and  C_6
REMARK    4  A    between atoms: C_16  and  C_17
REMARK                            x       y       z     vdW  Elec       q    Type
REMARK                         _______ _______ _______ _____ _____    ______ ____
ROOT
ATOM      1  C   UNL     1     -11.832  10.969  69.671  0.00  0.00    +0.012 A 
ATOM      2  C   UNL     1     -11.632  11.086  68.322  0.00  0.00    +0.016 A 
ATOM      3  C   UNL     1     -10.953  10.088  67.682  0.00  0.00    +0.001 A 
ATOM      4  C   UNL     1     -10.223  10.361  66.531  0.00  0.00    +0.000 A 
ATOM      5  C   UNL     1     -10.437  11.575  65.890  0.00  0.00    +0.005 A 
ATOM      6  C   UNL     1     -11.259  12.545  66.447  0.00  0.00    +0.089 A 
ATOM      7  C   UNL     1     -11.587  12.362  67.775  0.00  0.00    +0.085 A 
ATOM      8  N   UNL     1     -11.981  13.405  68.546  0.00  0.00    -0.241 NA
ATOM      9  C   UNL     1     -11.976  13.292  69.898  0.00  0.00    +0.152 A 
ATOM     10  C   UNL     1     -12.039  12.026  70.477  0.00  0.00    +0.021 A 
ENDROOT
BRANCH   6  11
ATOM     11  C   UNL     1     -11.849  13.664  65.700  0.00  0.00    +0.420 C 
ATOM     12  F   UNL     1     -11.527  14.903  66.213  0.00  0.00    -0.166 F 
ATOM     13  F   UNL     1     -13.227  13.535  65.667  0.00  0.00    -0.166 F 
ATOM     14  F   UNL     1     -11.376  13.649  64.400  0.00  0.00    -0.166 F 
ENDBRANCH   6  11
BRANCH   9  15
ATOM     15  C   UNL     1     -12.410  14.466  70.719  0.00  0.00    +0.435 C 
ATOM     16  F   UNL     1     -12.702  15.566  69.957  0.00  0.00    -0.164 F 
ATOM     17  F   UNL     1     -11.430  14.759  71.643  0.00  0.00    -0.164 F 
ATOM     18  F   UNL     1     -13.543  14.038  71.409  0.00  0.00    -0.164 F 
ENDBRANCH   9  15
BRANCH   1  20
ATOM     19  O   UNL     1     -13.469  10.057  71.013  0.00  0.00    -0.217 OA
ATOM     20  C   UNL     1     -12.323   9.494  70.158  0.00  0.00    +0.190 C 
BRANCH  20  21
ATOM     21  C   UNL     1     -11.217   9.498  71.518  0.00  0.00    +0.107 C 
ATOM     22  N   UNL     1     -11.916   8.304  72.266  0.00  0.00    -0.217 NA
ATOM     23  C   UNL     1     -12.564   7.452  71.394  0.00  0.00    +0.089 C 
ATOM     24  C   UNL     1     -11.769   6.663  70.420  0.00  0.00    +0.019 C 
ATOM     25  C   UNL     1     -10.758   7.618  69.857  0.00  0.00    +0.003 C 
ATOM     26  C   UNL     1     -10.110   8.510  70.808  0.00  0.00    +0.020 C 
ENDBRANCH  20  21
ENDBRANCH   1  20
TORSDOF 4
ENDMDL
MODEL 4
REMARK VINA RESULT:      -7.4      3.226      5.532
REMARK  Name = 
REMARK  4 active torsions:
REMARK  status: ('A' for Active; 'I' for Inactive)
REMARK    1  A    between atoms: C_2  and  C_3
REMARK    2  A    between atoms: C_2  and  C_21
REMARK    3  A    between atoms: C_5  and  C_6
REMARK    4  A    between atoms: C_16  and  C_17
REMARK                            x       y       z     vdW  Elec       q    Type
REMARK                         _______ _______ _______ _____ _____    ______ ____
ROOT
ATOM      1  C   UNL     1     -10.215  16.371  68.057  0.00  0.00    +0.012 A 
ATOM      2  C   UNL     1     -10.170  15.201  67.348  0.00  0.00    +0.016 A 
ATOM      3  C   UNL     1      -9.889  15.267  66.013  0.00  0.00    +0.001 A 
ATOM      4  C   UNL     1     -10.373  14.295  65.145  0.00  0.00    +0.000 A 
ATOM      5  C   UNL     1     -10.880  13.121  65.689  0.00  0.00    +0.005 A 
ATOM      6  C   UNL     1     -11.021  12.971  67.061  0.00  0.00    +0.089 A 
ATOM      7  C   UNL     1     -10.926  14.129  67.805  0.00  0.00    +0.085 A 
ATOM      8  N   UNL     1     -11.470  14.211  69.044  0.00  0.00    -0.241 NA
ATOM      9  C   UNL     1     -11.669  15.421  69.623  0.00  0.00    +0.152 A 
ATOM     10  C   UNL     1     -10.912  16.512  69.199  0.00  0.00    +0.021 A 
ENDROOT
BRANCH   6  11
ATOM     11  C   UNL     1     -11.170  11.679  67.745  0.00  0.00    +0.420 C 
ATOM     12  F   UNL     1     -12.332  11.572  68.480  0.00  0.00    -0.166 F 
ATOM     13  F   UNL     1     -10.088  11.458  68.580  0.00  0.00    -0.166 F 
ATOM     14  F   UNL     1     -11.213  10.664  66.805  0.00  0.00    -0.166 F 
ENDBRANCH   6  11
BRANCH   9  15
ATOM     15  C   UNL     1     -12.280  15.473  70.988  0.00  0.00    +0.435 C 
ATOM     16  F   UNL     1     -13.643  15.614  70.954  0.00  0.00    -0.164 F 
ATOM     17  F   UNL     1     -11.701  16.499  71.704  0.00  0.00    -0.164 F 
ATOM     18  F   UNL     1     -11.931  14.269  71.596  0.00  0.00    -0.164 F 
ENDBRANCH   9  15
BRANCH   1  20
ATOM     19  O   UNL     1      -8.170  16.935  68.958  0.00  0.00    -0.217 OA
ATOM     20  C   UNL     1      -8.992  17.401  67.746  0.00  0.00    +0.190 C 
BRANCH  20  21
ATOM     21  C   UNL     1      -9.746  18.687  68.666  0.00  0.00    +0.107 C 
ATOM     22  N   UNL     1      -8.506  19.652  68.596  0.00  0.00    -0.217 NA
ATOM     23  C   UNL     1      -7.735  19.425  67.473  0.00  0.00    +0.089 C 
ATOM     24  C   UNL     1      -8.303  19.704  66.130  0.00  0.00    +0.019 C 
ATOM     25  C   UNL     1      -9.694  19.145  66.158  0.00  0.00    +0.003 C 
ATOM     26  C   UNL     1     -10.468  19.391  67.367  0.00  0.00    +0.020 C 
ENDBRANCH  20  21
ENDBRANCH   1  20
TORSDOF 4
ENDMDL
MODEL 5
REMARK VINA RESULT:      -7.4      1.953      4.495
REMARK  Name = 
REMARK  4 active torsions:
REMARK  status: ('A' for Active; 'I' for Inactive)
REMARK    1  A    between atoms: C_2  and  C_3
REMARK    2  A    between atoms: C_2  and  C_21
REMARK    3  A    between atoms: C_5  and  C_6
REMARK    4  A    between atoms: C_16  and  C_17
REMARK                            x       y       z     vdW  Elec       q    Type
REMARK                         _______ _______ _______ _____ _____    ______ ____
ROOT
ATOM      1  C   UNL     1     -11.020  14.091  69.012  0.00  0.00    +0.012 A 
ATOM      2  C   UNL     1     -10.798  12.764  68.763  0.00  0.00    +0.016 A 
ATOM      3  C   UNL     1     -10.375  12.403  67.516  0.00  0.00    +0.001 A 
ATOM      4  C   UNL     1     -10.675  11.145  67.008  0.00  0.00    +0.000 A 
ATOM      5  C   UNL     1     -11.141  10.176  67.888  0.00  0.00    +0.005 A 
ATOM      6  C   UNL     1     -11.424  10.485  69.211  0.00  0.00    +0.089 A 
ATOM      7  C   UNL     1     -11.509  11.831  69.507  0.00  0.00    +0.085 A 
ATOM      8  N   UNL     1     -12.195  12.264  70.593  0.00  0.00    -0.241 NA
ATOM      9  C   UNL     1     -12.557  13.568  70.694  0.00  0.00    +0.152 A 
ATOM     10  C   UNL     1     -11.850  14.529  69.975  0.00  0.00    +0.021 A 
ENDROOT
BRANCH   6  11
ATOM     11  C   UNL     1     -11.541   9.496  70.290  0.00  0.00    +0.420 C 
ATOM     12  F   UNL     1     -12.808   9.409  70.827  0.00  0.00    -0.166 F 
ATOM     13  F   UNL     1     -10.643   9.790  71.302  0.00  0.00    -0.166 F 
ATOM     14  F   UNL     1     -11.245   8.238  69.794  0.00  0.00    -0.166 F 
ENDBRANCH   6  11
BRANCH   9  15
ATOM     15  C   UNL     1     -13.320  14.009  71.903  0.00  0.00    +0.435 C 
ATOM     16  F   UNL     1     -14.388  14.810  71.593  0.00  0.00    -0.164 F 
ATOM     17  F   UNL     1     -12.463  14.653  72.770  0.00  0.00    -0.164 F 
ATOM     18  F   UNL     1     -13.756  12.835  72.516  0.00  0.00    -0.164 F 
ENDBRANCH   9  15
BRANCH   1  20
ATOM     19  O   UNL     1      -9.803  15.900  69.759  0.00  0.00    -0.217 OA
ATOM     20  C   UNL     1      -9.858  15.089  68.456  0.00  0.00    +0.190 C 
BRANCH  20  21
ATOM     21  C   UNL     1     -11.034  16.179  67.748  0.00  0.00    +0.107 C 
ATOM     22  N   UNL     1     -10.045  17.396  67.639  0.00  0.00    -0.217 NA
ATOM     23  C   UNL     1      -8.731  16.989  67.521  0.00  0.00    +0.089 C 
ATOM     24  C   UNL     1      -8.303  16.251  66.306  0.00  0.00    +0.019 C 
ATOM     25  C   UNL     1      -9.383  15.243  66.045  0.00  0.00    +0.003 C 
ATOM     26  C   UNL     1     -10.754  15.709  66.198  0.00  0.00    +0.020 C 
ENDBRANCH  20  21
ENDBRANCH   1  20
TORSDOF 4
ENDMDL
MODEL 6
REMARK VINA RESULT:      -7.2      3.371      4.911
REMARK  Name = 
REMARK  4 active torsions:
REMARK  status: ('A' for Active; 'I' for Inactive)
REMARK    1  A    between atoms: C_2  and  C_3
REMARK    2  A    between atoms: C_2  and  C_21
REMARK    3  A    between atoms: C_5  and  C_6
REMARK    4  A    between atoms: C_16  and  C_17
REMARK                            x       y       z     vdW  Elec       q    Type
REMARK                         _______ _______ _______ _____ _____    ______ ____
ROOT
ATOM      1  C   UNL     1     -10.671  10.997  68.080  0.00  0.00    +0.012 A 
ATOM      2  C   UNL     1     -11.145  11.134  69.357  0.00  0.00    +0.016 A 
ATOM      3  C   UNL     1     -11.308  10.005  70.108  0.00  0.00    +0.001 A 
ATOM      4  C   UNL     1     -12.269   9.960  71.111  0.00  0.00    +0.000 A 
ATOM      5  C   UNL     1     -12.840  11.157  71.527  0.00  0.00    +0.005 A 
ATOM      6  C   UNL     1     -12.559  12.350  70.875  0.00  0.00    +0.089 A 
ATOM      7  C   UNL     1     -11.948  12.230  69.643  0.00  0.00    +0.085 A 
ATOM      8  N   UNL     1     -12.022  13.227  68.728  0.00  0.00    -0.241 NA
ATOM      9  C   UNL     1     -11.720  12.983  67.428  0.00  0.00    +0.152 A 
ATOM     10  C   UNL     1     -10.902  11.901  67.110  0.00  0.00    +0.021 A 
ENDROOT
BRANCH   6  11
ATOM     11  C   UNL     1     -12.786  13.684  71.447  0.00  0.00    +0.420 C 
ATOM     12  F   UNL     1     -13.740  14.419  70.775  0.00  0.00    -0.166 F 
ATOM     13  F   UNL     1     -11.600  14.398  71.467  0.00  0.00    -0.166 F 
ATOM     14  F   UNL     1     -13.242  13.555  72.747  0.00  0.00    -0.166 F 
ENDBRANCH   6  11
BRANCH   9  15
ATOM     15  C   UNL     1     -11.821  14.105  66.443  0.00  0.00    +0.435 C 
ATOM     16  F   UNL     1     -13.044  14.162  65.827  0.00  0.00    -0.164 F 
ATOM     17  F   UNL     1     -10.811  13.984  65.513  0.00  0.00    -0.164 F 
ATOM     18  F   UNL     1     -11.595  15.266  67.180  0.00  0.00    -0.164 F 
ENDBRANCH   9  15
BRANCH   1  20
ATOM     19  O   UNL     1      -8.528  11.035  67.232  0.00  0.00    -0.217 OA
ATOM     20  C   UNL     1      -9.404   9.984  67.931  0.00  0.00    +0.190 C 
BRANCH  20  21
ATOM     21  C   UNL     1      -9.993   9.359  66.403  0.00  0.00    +0.107 C 
ATOM     22  N   UNL     1      -8.643   8.651  66.016  0.00  0.00    -0.217 NA
ATOM     23  C   UNL     1      -7.908   8.291  67.127  0.00  0.00    +0.089 C 
ATOM     24  C   UNL     1      -8.439   7.255  68.048  0.00  0.00    +0.019 C 
ATOM     25  C   UNL     1      -9.889   7.590  68.236  0.00  0.00    +0.003 C 
ATOM     26  C   UNL     1     -10.624   7.982  67.042  0.00  0.00    +0.020 C 
ENDBRANCH  20  21
ENDBRANCH   1  20
TORSDOF 4
ENDMDL
MODEL 7
REMARK VINA RESULT:      -7.2      3.511      6.853
REMARK  Name = 
REMARK  4 active torsions:
REMARK  status: ('A' for Active; 'I' for Inactive)
REMARK    1  A    between atoms: C_2  and  C_3
REMARK    2  A    between atoms: C_2  and  C_21
REMARK    3  A    between atoms: C_5  and  C_6
REMARK    4  A    between atoms: C_16  and  C_17
REMARK                            x       y       z     vdW  Elec       q    Type
REMARK                         _______ _______ _______ _____ _____    ______ ____
ROOT
ATOM      1  C   UNL     1     -11.344  10.623  69.033  0.00  0.00    +0.012 A 
ATOM      2  C   UNL     1     -11.211  10.411  67.687  0.00  0.00    +0.016 A 
ATOM      3  C   UNL     1     -10.594   9.265  67.273  0.00  0.00    +0.001 A 
ATOM      4  C   UNL     1      -9.916   9.230  66.060  0.00  0.00    +0.000 A 
ATOM      5  C   UNL     1     -10.130  10.267  65.159  0.00  0.00    +0.005 A 
ATOM      6  C   UNL     1     -10.895  11.371  65.505  0.00  0.00    +0.089 A 
ATOM      7  C   UNL     1     -11.159  11.519  66.852  0.00  0.00    +0.085 A 
ATOM      8  N   UNL     1     -11.484  12.729  67.371  0.00  0.00    -0.241 NA
ATOM      9  C   UNL     1     -11.413  12.937  68.709  0.00  0.00    +0.152 A 
ATOM     10  C   UNL     1     -11.481  11.847  69.573  0.00  0.00    +0.021 A 
ENDROOT
BRANCH   6  11
ATOM     11  C   UNL     1     -11.492  12.305  64.541  0.00  0.00    +0.420 C 
ATOM     12  F   UNL     1     -10.893  13.547  64.529  0.00  0.00    -0.166 F 
ATOM     13  F   UNL     1     -12.842  12.460  64.806  0.00  0.00    -0.166 F 
ATOM     14  F   UNL     1     -11.352  11.796  63.262  0.00  0.00    -0.166 F 
ENDBRANCH   6  11
BRANCH   9  15
ATOM     15  C   UNL     1     -11.771  14.288  69.246  0.00  0.00    +0.435 C 
ATOM     16  F   UNL     1     -12.107  15.178  68.260  0.00  0.00    -0.164 F 
ATOM     17  F   UNL     1     -10.722  14.768  70.000  0.00  0.00    -0.164 F 
ATOM     18  F   UNL     1     -12.854  14.073  70.097  0.00  0.00    -0.164 F 
ENDBRANCH   9  15
BRANCH   1  20
ATOM     19  O   UNL     1     -12.858  10.139  70.702  0.00  0.00    -0.217 OA
ATOM     20  C   UNL     1     -11.850   9.324  69.877  0.00  0.00    +0.190 C 
BRANCH  20  21
ATOM     21  C   UNL     1     -10.594   9.531  71.083  0.00  0.00    +0.107 C 
ATOM     22  N   UNL     1     -11.286   8.616  72.159  0.00  0.00    -0.217 NA
ATOM     23  C   UNL     1     -12.093   7.656  71.583  0.00  0.00    +0.089 C 
ATOM     24  C   UNL     1     -11.478   6.589  70.754  0.00  0.00    +0.019 C 
ATOM     25  C   UNL     1     -10.473   7.284  69.884  0.00  0.00    +0.003 C 
ATOM     26  C   UNL     1      -9.654   8.302  70.526  0.00  0.00    +0.020 C 
ENDBRANCH  20  21
ENDBRANCH   1  20
TORSDOF 4
ENDMDL
MODEL 8
REMARK VINA RESULT:      -7.1      5.565      7.376
REMARK  Name = 
REMARK  4 active torsions:
REMARK  status: ('A' for Active; 'I' for Inactive)
REMARK    1  A    between atoms: C_2  and  C_3
REMARK    2  A    between atoms: C_2  and  C_21
REMARK    3  A    between atoms: C_5  and  C_6
REMARK    4  A    between atoms: C_16  and  C_17
REMARK                            x       y       z     vdW  Elec       q    Type
REMARK                         _______ _______ _______ _____ _____    ______ ____
ROOT
ATOM      1  C   UNL     1      -9.933  15.935  66.102  0.00  0.00    +0.012 A 
ATOM      2  C   UNL     1      -8.636  15.681  66.459  0.00  0.00    +0.016 A 
ATOM      3  C   UNL     1      -8.309  14.411  66.840  0.00  0.00    +0.001 A 
ATOM      4  C   UNL     1      -7.262  14.191  67.728  0.00  0.00    +0.000 A 
ATOM      5  C   UNL     1      -6.383  15.237  67.979  0.00  0.00    +0.005 A 
ATOM      6  C   UNL     1      -6.612  16.505  67.463  0.00  0.00    +0.089 A 
ATOM      7  C   UNL     1      -7.879  16.730  66.965  0.00  0.00    +0.085 A 
ATOM      8  N   UNL     1      -8.372  17.989  66.854  0.00  0.00    -0.241 NA
ATOM      9  C   UNL     1      -9.704  18.186  66.690  0.00  0.00    +0.152 A 
ATOM     10  C   UNL     1     -10.486  17.159  66.167  0.00  0.00    +0.021 A 
ENDROOT
BRANCH   6  11
ATOM     11  C   UNL     1      -5.587  17.550  67.339  0.00  0.00    +0.420 C 
ATOM     12  F   UNL     1      -5.814  18.647  68.143  0.00  0.00    -0.166 F 
ATOM     13  F   UNL     1      -5.494  17.969  66.022  0.00  0.00    -0.166 F 
ATOM     14  F   UNL     1      -4.359  17.038  67.723  0.00  0.00    -0.166 F 
ENDBRANCH   6  11
BRANCH   9  15
ATOM     15  C   UNL     1     -10.213  19.589  66.580  0.00  0.00    +0.435 C 
ATOM     16  F   UNL     1     -10.798  19.847  65.368  0.00  0.00    -0.164 F 
ATOM     17  F   UNL     1      -9.178  20.467  66.818  0.00  0.00    -0.164 F 
ATOM     18  F   UNL     1     -11.145  19.728  67.608  0.00  0.00    -0.164 F 
ENDBRANCH   9  15
BRANCH   1  20
ATOM     19  O   UNL     1     -11.295  15.872  64.244  0.00  0.00    -0.217 OA
ATOM     20  C   UNL     1     -10.596  14.819  65.117  0.00  0.00    +0.190 C 
BRANCH  20  21
ATOM     21  C   UNL     1     -12.002  14.643  66.148  0.00  0.00    +0.107 C 
ATOM     22  N   UNL     1     -12.909  14.002  65.035  0.00  0.00    -0.217 NA
ATOM     23  C   UNL     1     -12.167  13.331  64.083  0.00  0.00    +0.089 C 
ATOM     24  C   UNL     1     -11.410  12.115  64.473  0.00  0.00    +0.019 C 
ATOM     25  C   UNL     1     -10.750  12.453  65.777  0.00  0.00    +0.003 C 
ATOM     26  C   UNL     1     -11.562  13.176  66.746  0.00  0.00    +0.020 C 
ENDBRANCH  20  21
ENDBRANCH   1  20
TORSDOF 4
ENDMDL
MODEL 9
REMARK VINA RESULT:      -6.9      4.544      6.516
REMARK  Name = 
REMARK  4 active torsions:
REMARK  status: ('A' for Active; 'I' for Inactive)
REMARK    1  A    between atoms: C_2  and  C_3
REMARK    2  A    between atoms: C_2  and  C_21
REMARK    3  A    between atoms: C_5  and  C_6
REMARK    4  A    between atoms: C_16  and  C_17
REMARK                            x       y       z     vdW  Elec       q    Type
REMARK                         _______ _______ _______ _____ _____    ______ ____
ROOT
ATOM      1  C   UNL     1      -9.220  15.327  66.542  0.00  0.00    +0.012 A 
ATOM      2  C   UNL     1     -10.003  14.845  65.527  0.00  0.00    +0.016 A 
ATOM      3  C   UNL     1     -10.985  15.654  65.031  0.00  0.00    +0.001 A 
ATOM      4  C   UNL     1     -12.133  15.105  64.472  0.00  0.00    +0.000 A 
ATOM      5  C   UNL     1     -12.128  13.750  64.160  0.00  0.00    +0.005 A 
ATOM      6  C   UNL     1     -11.059  12.938  64.513  0.00  0.00    +0.089 A 
ATOM      7  C   UNL     1     -10.178  13.471  65.432  0.00  0.00    +0.085 A 
ATOM      8  N   UNL     1      -9.383  12.669  66.183  0.00  0.00    -0.241 NA
ATOM      9  C   UNL     1      -8.780  13.158  67.295  0.00  0.00    +0.152 A 
ATOM     10  C   UNL     1      -8.573  14.531  67.412  0.00  0.00    +0.021 A 
ENDROOT
BRANCH   6  11
ATOM     11  C   UNL     1     -10.777  11.627  63.912  0.00  0.00    +0.420 C 
ATOM     12  F   UNL     1     -10.646  10.612  64.835  0.00  0.00    -0.166 F 
ATOM     13  F   UNL     1      -9.623  11.695  63.150  0.00  0.00    -0.166 F 
ATOM     14  F   UNL     1     -11.827  11.265  63.086  0.00  0.00    -0.166 F 
ENDBRANCH   6  11
BRANCH   9  15
ATOM     15  C   UNL     1      -7.917  12.242  68.105  0.00  0.00    +0.435 C 
ATOM     16  F   UNL     1      -7.156  12.909  69.029  0.00  0.00    -0.164 F 
ATOM     17  F   UNL     1      -7.118  11.505  67.256  0.00  0.00    -0.164 F 
ATOM     18  F   UNL     1      -8.797  11.368  68.740  0.00  0.00    -0.164 F 
ENDBRANCH   9  15
BRANCH   1  20
ATOM     19  O   UNL     1      -7.215  16.460  66.448  0.00  0.00    -0.217 OA
ATOM     20  C   UNL     1      -8.695  16.854  66.327  0.00  0.00    +0.190 C 
BRANCH  20  21
ATOM     21  C   UNL     1      -8.811  17.210  68.039  0.00  0.00    +0.107 C 
ATOM     22  N   UNL     1      -8.038  18.577  67.947  0.00  0.00    -0.217 NA
ATOM     23  C   UNL     1      -8.165  19.163  66.703  0.00  0.00    +0.089 C 
ATOM     24  C   UNL     1      -9.498  19.636  66.253  0.00  0.00    +0.019 C 
ATOM     25  C   UNL     1     -10.458  18.545  66.623  0.00  0.00    +0.003 C 
ATOM     26  C   UNL     1     -10.279  17.942  67.936  0.00  0.00    +0.020 C 
ENDBRANCH  20  21
ENDBRANCH   1  20
TORSDOF 4
ENDMDL
