MODEL 1
REMARK VINA RESULT:      -8.2      0.000      0.000
REMARK  Name = 
REMARK  7 active torsions:
REMARK  status: ('A' for Active; 'I' for Inactive)
REMARK    1  A    between atoms: N_2  and  C_4
REMARK    2  A    between atoms: C_4  and  C_5
REMARK    3  A    between atoms: C_6  and  C_7
REMARK    4  A    between atoms: N_9  and  C_10
REMARK    5  A    between atoms: C_15  and  O_16
REMARK    6  A    between atoms: O_16  and  C_17
REMARK    7  A    between atoms: N_26  and  C_27
REMARK                            x       y       z     vdW  Elec       q    Type
REMARK                         _______ _______ _______ _____ _____    ______ ____
ROOT
ATOM      1  C   UNL     1      -9.452  15.784  67.992  0.00  0.00    +0.108 A 
ATOM      2  C   UNL     1     -10.118  15.859  66.772  0.00  0.00    +0.155 A 
ATOM      3  C   UNL     1      -9.994  17.081  66.121  0.00  0.00    +0.057 A 
ATOM      4  C   UNL     1      -8.981  17.962  66.491  0.00  0.00    +0.089 A 
ATOM      5  N   UNL     1      -8.886  19.189  65.948  0.00  0.00    -0.224 NA
ATOM      6  C   UNL     1      -7.761  19.898  66.163  0.00  0.00    +0.200 A 
ATOM      7  N   UNL     1      -6.684  19.316  66.746  0.00  0.00    -0.207 NA
ATOM      8  C   UNL     1      -6.745  18.023  67.157  0.00  0.00    +0.155 A 
ATOM      9  N   UNL     1      -5.653  17.426  67.869  0.00  0.00    -0.194 NA
ATOM     10  C   UNL     1      -8.044  17.629  67.465  0.00  0.00    +0.053 A 
ATOM     11  C   UNL     1      -8.326  16.550  68.275  0.00  0.00    +0.024 A 
ENDROOT
BRANCH   9  12
ATOM     12  C   UNL     1      -5.096  18.216  68.927  0.00  0.00    +0.073 A 
ATOM     13  C   UNL     1      -3.965  18.958  68.668  0.00  0.00    +0.030 A 
ATOM     14  C   UNL     1      -3.793  20.176  69.310  0.00  0.00    +0.086 A 
ATOM     15 CL   UNL     1      -2.211  20.935  69.320  0.00  0.00    -0.080 Cl
ATOM     16  C   UNL     1      -4.742  20.641  70.202  0.00  0.00    +0.151 A 
ATOM     17  F   UNL     1      -4.517  21.843  70.801  0.00  0.00    -0.203 F 
ATOM     18  C   UNL     1      -5.697  19.765  70.704  0.00  0.00    +0.032 A 
ATOM     19  C   UNL     1      -5.991  18.685  69.882  0.00  0.00    +0.019 A 
ENDBRANCH   9  12
BRANCH   1  21
ATOM     20  C   UNL     1     -11.121  15.660  69.778  0.00  0.00    +0.269 C 
ATOM     21  N   UNL     1     -10.111  15.005  68.999  0.00  0.00    -0.172 NA
ATOM     22  O   UNL     1     -11.726  16.587  69.157  0.00  0.00    -0.268 OA
BRANCH  20  24
ATOM     23  C   UNL     1     -12.453  15.628  71.759  0.00  0.00    -0.004 C 
ATOM     24  C   UNL     1     -11.255  15.521  71.214  0.00  0.00    +0.057 C 
BRANCH  23  25
ATOM     25  C   UNL     1     -12.873  14.911  72.995  0.00  0.00    +0.099 C 
BRANCH  25  27
ATOM     26  C   UNL     1     -13.610  13.005  72.233  0.00  0.00    +0.090 C 
ATOM     27  N   UNL     1     -14.023  14.102  72.633  0.00  0.00    -0.267 NA
ATOM     28  C   UNL     1     -14.821  14.805  71.662  0.00  0.00    +0.090 C 
ENDBRANCH  25  27
ENDBRANCH  23  25
ENDBRANCH  20  24
ENDBRANCH   1  21
BRANCH   2  29
ATOM     29  O   UNL     1     -10.256  14.633  66.154  0.00  0.00    -0.475 OA
BRANCH  29  30
ATOM     30  C   UNL     1     -11.222  14.616  64.938  0.00  0.00    +0.198 C 
ATOM     31  C   UNL     1     -12.421  13.893  65.838  0.00  0.00    +0.185 C 
ATOM     32  O   UNL     1     -12.990  13.096  64.879  0.00  0.00    -0.350 OA
ATOM     33  C   UNL     1     -12.044  12.678  63.985  0.00  0.00    +0.146 C 
ATOM     34  C   UNL     1     -10.693  13.113  64.457  0.00  0.00    +0.078 C 
ENDBRANCH  29  30
ENDBRANCH   2  29
TORSDOF 7
ENDMDL
MODEL 2
REMARK VINA RESULT:      -7.8      5.953      9.650
REMARK  Name = 
REMARK  7 active torsions:
REMARK  status: ('A' for Active; 'I' for Inactive)
REMARK    1  A    between atoms: N_2  and  C_4
REMARK    2  A    between atoms: C_4  and  C_5
REMARK    3  A    between atoms: C_6  and  C_7
REMARK    4  A    between atoms: N_9  and  C_10
REMARK    5  A    between atoms: C_15  and  O_16
REMARK    6  A    between atoms: O_16  and  C_17
REMARK    7  A    between atoms: N_26  and  C_27
REMARK                            x       y       z     vdW  Elec       q    Type
REMARK                         _______ _______ _______ _____ _____    ______ ____
ROOT
ATOM      1  C   UNL     1     -11.779  11.828  69.642  0.00  0.00    +0.108 A 
ATOM      2  C   UNL     1     -12.603  12.188  70.705  0.00  0.00    +0.155 A 
ATOM      3  C   UNL     1     -12.987  11.131  71.522  0.00  0.00    +0.057 A 
ATOM      4  C   UNL     1     -12.283   9.931  71.478  0.00  0.00    +0.089 A 
ATOM      5  N   UNL     1     -12.681   8.857  72.184  0.00  0.00    -0.224 NA
ATOM      6  C   UNL     1     -11.836   7.812  72.290  0.00  0.00    +0.200 A 
ATOM      7  N   UNL     1     -10.555   7.920  71.861  0.00  0.00    -0.207 NA
ATOM      8  C   UNL     1     -10.122   9.069  71.281  0.00  0.00    +0.155 A 
ATOM      9  N   UNL     1      -8.803   9.162  70.728  0.00  0.00    -0.194 NA
ATOM     10  C   UNL     1     -11.157   9.775  70.674  0.00  0.00    +0.053 A 
ATOM     11  C   UNL     1     -10.943  10.717  69.690  0.00  0.00    +0.024 A 
ENDROOT
BRANCH   9  12
ATOM     12  C   UNL     1      -8.391   8.057  69.914  0.00  0.00    +0.073 A 
ATOM     13  C   UNL     1      -8.644   8.106  68.561  0.00  0.00    +0.030 A 
ATOM     14  C   UNL     1      -7.747   7.515  67.683  0.00  0.00    +0.086 A 
ATOM     15 CL   UNL     1      -8.232   7.204  66.026  0.00  0.00    -0.080 Cl
ATOM     16  C   UNL     1      -6.612   6.881  68.157  0.00  0.00    +0.151 A 
ATOM     17  F   UNL     1      -5.770   6.320  67.247  0.00  0.00    -0.203 F 
ATOM     18  C   UNL     1      -6.527   6.549  69.504  0.00  0.00    +0.032 A 
ATOM     19  C   UNL     1      -7.277   7.351  70.355  0.00  0.00    +0.019 A 
ENDBRANCH   9  12
BRANCH   1  21
ATOM     20  C   UNL     1     -11.053  13.610  68.130  0.00  0.00    +0.269 C 
ATOM     21  N   UNL     1     -11.988  12.566  68.432  0.00  0.00    -0.172 NA
ATOM     22  O   UNL     1      -9.886  13.398  68.582  0.00  0.00    -0.268 OA
BRANCH  20  24
ATOM     23  C   UNL     1     -10.597  15.931  67.804  0.00  0.00    -0.004 C 
ATOM     24  C   UNL     1     -11.429  14.920  67.638  0.00  0.00    +0.057 C 
BRANCH  23  25
ATOM     25  C   UNL     1     -10.489  17.084  66.867  0.00  0.00    +0.099 C 
BRANCH  25  27
ATOM     26  C   UNL     1     -10.629  19.260  66.905  0.00  0.00    +0.090 C 
ATOM     27  N   UNL     1     -10.735  18.280  67.654  0.00  0.00    -0.267 NA
ATOM     28  C   UNL     1      -9.833  18.313  68.776  0.00  0.00    +0.090 C 
ENDBRANCH  25  27
ENDBRANCH  23  25
ENDBRANCH  20  24
ENDBRANCH   1  21
BRANCH   2  29
ATOM     29  O   UNL     1     -12.414  13.491  71.119  0.00  0.00    -0.475 OA
BRANCH  29  30
ATOM     30  C   UNL     1     -13.188  13.890  72.404  0.00  0.00    +0.198 C 
ATOM     31  C   UNL     1     -14.162  14.936  71.551  0.00  0.00    +0.185 C 
ATOM     32  O   UNL     1     -14.330  15.922  72.488  0.00  0.00    -0.350 OA
ATOM     33  C   UNL     1     -13.213  16.033  73.268  0.00  0.00    +0.146 C 
ATOM     34  C   UNL     1     -12.141  15.145  72.722  0.00  0.00    +0.078 C 
ENDBRANCH  29  30
ENDBRANCH   2  29
TORSDOF 7
ENDMDL
MODEL 3
REMARK VINA RESULT:      -7.6      2.869      3.187
REMARK  Name = 
REMARK  7 active torsions:
REMARK  status: ('A' for Active; 'I' for Inactive)
REMARK    1  A    between atoms: N_2  and  C_4
REMARK    2  A    between atoms: C_4  and  C_5
REMARK    3  A    between atoms: C_6  and  C_7
REMARK    4  A    between atoms: N_9  and  C_10
REMARK    5  A    between atoms: C_15  and  O_16
REMARK    6  A    between atoms: O_16  and  C_17
REMARK    7  A    between atoms: N_26  and  C_27
REMARK                            x       y       z     vdW  Elec       q    Type
REMARK                         _______ _______ _______ _____ _____    ______ ____
ROOT
ATOM      1  C   UNL     1     -10.028  15.119  67.893  0.00  0.00    +0.108 A 
ATOM      2  C   UNL     1     -10.572  15.525  66.678  0.00  0.00    +0.155 A 
ATOM      3  C   UNL     1      -9.842  16.506  66.017  0.00  0.00    +0.057 A 
ATOM      4  C   UNL     1      -8.516  16.740  66.373  0.00  0.00    +0.089 A 
ATOM      5  N   UNL     1      -7.807  17.741  65.821  0.00  0.00    -0.224 NA
ATOM      6  C   UNL     1      -6.475  17.768  66.023  0.00  0.00    +0.200 A 
ATOM      7  N   UNL     1      -5.847  16.714  66.602  0.00  0.00    -0.207 NA
ATOM      8  C   UNL     1      -6.562  15.639  67.022  0.00  0.00    +0.155 A 
ATOM      9  N   UNL     1      -5.928  14.566  67.730  0.00  0.00    -0.194 NA
ATOM     10  C   UNL     1      -7.875  15.973  67.342  0.00  0.00    +0.053 A 
ATOM     11  C   UNL     1      -8.666  15.195  68.162  0.00  0.00    +0.024 A 
ENDROOT
BRANCH   9  12
ATOM     12  C   UNL     1      -5.032  14.957  68.778  0.00  0.00    +0.073 A 
ATOM     13  C   UNL     1      -5.439  14.799  70.084  0.00  0.00    +0.030 A 
ATOM     14  C   UNL     1      -4.497  14.486  71.054  0.00  0.00    +0.086 A 
ATOM     15 CL   UNL     1      -4.900  14.681  72.750  0.00  0.00    -0.080 Cl
ATOM     16  C   UNL     1      -3.164  14.334  70.716  0.00  0.00    +0.151 A 
ATOM     17  F   UNL     1      -2.287  14.026  71.711  0.00  0.00    -0.203 F 
ATOM     18  C   UNL     1      -2.711  14.806  69.490  0.00  0.00    +0.032 A 
ATOM     19  C   UNL     1      -3.675  14.865  68.492  0.00  0.00    +0.019 A 
ENDBRANCH   9  12
BRANCH   1  21
ATOM     20  C   UNL     1     -11.234  15.784  69.916  0.00  0.00    +0.269 C 
ATOM     21  N   UNL     1     -10.984  14.794  68.910  0.00  0.00    -0.172 NA
ATOM     22  O   UNL     1     -11.079  16.977  69.510  0.00  0.00    -0.268 OA
BRANCH  20  24
ATOM     23  C   UNL     1     -12.516  15.649  71.925  0.00  0.00    -0.004 C 
ATOM     24  C   UNL     1     -11.348  15.492  71.330  0.00  0.00    +0.057 C 
BRANCH  23  25
ATOM     25  C   UNL     1     -12.976  14.836  73.086  0.00  0.00    +0.099 C 
BRANCH  25  27
ATOM     26  C   UNL     1     -13.620  12.953  72.195  0.00  0.00    +0.090 C 
ATOM     27  N   UNL     1     -14.082  14.024  72.610  0.00  0.00    -0.267 NA
ATOM     28  C   UNL     1     -14.823  14.755  71.614  0.00  0.00    +0.090 C 
ENDBRANCH  25  27
ENDBRANCH  23  25
ENDBRANCH  20  24
ENDBRANCH   1  21
BRANCH   2  29
ATOM     29  O   UNL     1     -11.329  14.545  66.068  0.00  0.00    -0.475 OA
BRANCH  29  30
ATOM     30  C   UNL     1     -10.667  13.878  64.832  0.00  0.00    +0.198 C 
ATOM     31  C   UNL     1     -12.144  13.671  64.092  0.00  0.00    +0.185 C 
ATOM     32  O   UNL     1     -11.924  12.477  63.455  0.00  0.00    -0.350 OA
ATOM     33  C   UNL     1     -11.073  11.697  64.186  0.00  0.00    +0.146 C 
ATOM     34  C   UNL     1     -10.803  12.359  65.499  0.00  0.00    +0.078 C 
ENDBRANCH  29  30
ENDBRANCH   2  29
TORSDOF 7
ENDMDL
MODEL 4
REMARK VINA RESULT:      -7.6      3.859      5.451
REMARK  Name = 
REMARK  7 active torsions:
REMARK  status: ('A' for Active; 'I' for Inactive)
REMARK    1  A    between atoms: N_2  and  C_4
REMARK    2  A    between atoms: C_4  and  C_5
REMARK    3  A    between atoms: C_6  and  C_7
REMARK    4  A    between atoms: N_9  and  C_10
REMARK    5  A    between atoms: C_15  and  O_16
REMARK    6  A    between atoms: O_16  and  C_17
REMARK    7  A    between atoms: N_26  and  C_27
REMARK                            x       y       z     vdW  Elec       q    Type
REMARK                         _______ _______ _______ _____ _____    ______ ____
ROOT
ATOM      1  C   UNL     1     -10.306  11.699  66.131  0.00  0.00    +0.108 A 
ATOM      2  C   UNL     1     -10.877  11.271  64.936  0.00  0.00    +0.155 A 
ATOM      3  C   UNL     1     -11.662  12.224  64.297  0.00  0.00    +0.057 A 
ATOM      4  C   UNL     1     -11.539  13.567  64.644  0.00  0.00    +0.089 A 
ATOM      5  N   UNL     1     -12.345  14.506  64.115  0.00  0.00    -0.224 NA
ATOM      6  C   UNL     1     -12.026  15.801  64.302  0.00  0.00    +0.200 A 
ATOM      7  N   UNL     1     -10.829  16.143  64.840  0.00  0.00    -0.207 NA
ATOM      8  C   UNL     1      -9.958  15.179  65.236  0.00  0.00    +0.155 A 
ATOM      9  N   UNL     1      -8.736  15.522  65.903  0.00  0.00    -0.194 NA
ATOM     10  C   UNL     1     -10.603  13.995  65.582  0.00  0.00    +0.053 A 
ATOM     11  C   UNL     1     -10.025  13.037  66.386  0.00  0.00    +0.024 A 
ENDROOT
BRANCH   9  12
ATOM     12  C   UNL     1      -8.852  16.492  66.951  0.00  0.00    +0.073 A 
ATOM     13  C   UNL     1      -8.224  17.708  66.796  0.00  0.00    +0.030 A 
ATOM     14  C   UNL     1      -8.807  18.845  67.336  0.00  0.00    +0.086 A 
ATOM     15 CL   UNL     1      -7.854  20.308  67.512  0.00  0.00    -0.080 Cl
ATOM     16  C   UNL     1     -10.003  18.763  68.025  0.00  0.00    +0.151 A 
ATOM     17  F   UNL     1     -10.526  19.913  68.533  0.00  0.00    -0.203 F 
ATOM     18  C   UNL     1     -10.458  17.523  68.459  0.00  0.00    +0.032 A 
ATOM     19  C   UNL     1     -10.016  16.441  67.710  0.00  0.00    +0.019 A 
ENDBRANCH   9  12
BRANCH   1  21
ATOM     20  C   UNL     1     -11.089  10.803  68.271  0.00  0.00    +0.269 C 
ATOM     21  N   UNL     1     -10.202  10.695  67.149  0.00  0.00    -0.172 NA
ATOM     22  O   UNL     1     -12.200  11.351  67.994  0.00  0.00    -0.268 OA
BRANCH  20  24
ATOM     23  C   UNL     1     -11.488   9.950  70.464  0.00  0.00    -0.004 C 
ATOM     24  C   UNL     1     -10.684  10.605  69.647  0.00  0.00    +0.057 C 
BRANCH  23  25
ATOM     25  C   UNL     1     -11.018   9.121  71.610  0.00  0.00    +0.099 C 
BRANCH  25  27
ATOM     26  C   UNL     1     -12.370   7.435  71.318  0.00  0.00    +0.090 C 
ATOM     27  N   UNL     1     -12.174   8.385  72.089  0.00  0.00    -0.267 NA
ATOM     28  C   UNL     1     -13.300   9.275  72.202  0.00  0.00    +0.090 C 
ENDBRANCH  25  27
ENDBRANCH  23  25
ENDBRANCH  20  24
ENDBRANCH   1  21
BRANCH   2  29
ATOM     29  O   UNL     1     -10.142  10.288  64.306  0.00  0.00    -0.475 OA
BRANCH  29  30
ATOM     30  C   UNL     1      -9.030  10.807  63.354  0.00  0.00    +0.198 C 
ATOM     31  C   UNL     1      -9.256   9.529  62.313  0.00  0.00    +0.185 C 
ATOM     32  O   UNL     1      -7.966   9.331  61.896  0.00  0.00    -0.350 OA
ATOM     33  C   UNL     1      -7.089   9.639  62.899  0.00  0.00    +0.146 C 
ATOM     34  C   UNL     1      -7.855   9.936  64.148  0.00  0.00    +0.078 C 
ENDBRANCH  29  30
ENDBRANCH   2  29
TORSDOF 7
ENDMDL
MODEL 5
REMARK VINA RESULT:      -7.6      4.430      8.319
REMARK  Name = 
REMARK  7 active torsions:
REMARK  status: ('A' for Active; 'I' for Inactive)
REMARK    1  A    between atoms: N_2  and  C_4
REMARK    2  A    between atoms: C_4  and  C_5
REMARK    3  A    between atoms: C_6  and  C_7
REMARK    4  A    between atoms: N_9  and  C_10
REMARK    5  A    between atoms: C_15  and  O_16
REMARK    6  A    between atoms: O_16  and  C_17
REMARK    7  A    between atoms: N_26  and  C_27
REMARK                            x       y       z     vdW  Elec       q    Type
REMARK                         _______ _______ _______ _____ _____    ______ ____
ROOT
ATOM      1  C   UNL     1      -8.473  15.104  67.083  0.00  0.00    +0.108 A 
ATOM      2  C   UNL     1      -8.926  16.020  66.137  0.00  0.00    +0.155 A 
ATOM      3  C   UNL     1      -9.937  15.544  65.310  0.00  0.00    +0.057 A 
ATOM      4  C   UNL     1     -10.660  14.414  65.682  0.00  0.00    +0.089 A 
ATOM      5  N   UNL     1     -11.581  13.870  64.866  0.00  0.00    -0.224 NA
ATOM      6  C   UNL     1     -12.410  12.935  65.370  0.00  0.00    +0.200 A 
ATOM      7  N   UNL     1     -12.438  12.690  66.703  0.00  0.00    -0.207 NA
ATOM      8  C   UNL     1     -11.600  13.356  67.538  0.00  0.00    +0.155 A 
ATOM      9  N   UNL     1     -11.543  13.034  68.934  0.00  0.00    -0.194 NA
ATOM     10  C   UNL     1     -10.437  13.772  66.897  0.00  0.00    +0.053 A 
ATOM     11  C   UNL     1      -9.278  14.083  67.577  0.00  0.00    +0.024 A 
ENDROOT
BRANCH   9  12
ATOM     12  C   UNL     1     -11.483  11.637  69.247  0.00  0.00    +0.073 A 
ATOM     13  C   UNL     1     -10.316  10.953  68.985  0.00  0.00    +0.030 A 
ATOM     14  C   UNL     1      -9.938   9.914  69.823  0.00  0.00    +0.086 A 
ATOM     15 CL   UNL     1      -8.705   8.781  69.297  0.00  0.00    -0.080 Cl
ATOM     16  C   UNL     1     -10.722   9.564  70.907  0.00  0.00    +0.151 A 
ATOM     17  F   UNL     1     -10.299   8.535  71.692  0.00  0.00    -0.203 F 
ATOM     18  C   UNL     1     -12.033  10.020  70.979  0.00  0.00    +0.032 A 
ATOM     19  C   UNL     1     -12.278  11.209  70.304  0.00  0.00    +0.019 A 
ENDBRANCH   9  12
BRANCH   1  21
ATOM     20  C   UNL     1      -6.673  15.929  68.522  0.00  0.00    +0.269 C 
ATOM     21  N   UNL     1      -7.071  15.171  67.372  0.00  0.00    -0.172 NA
ATOM     22  O   UNL     1      -7.542  15.947  69.448  0.00  0.00    -0.268 OA
BRANCH  20  24
ATOM     23  C   UNL     1      -5.603  17.941  67.811  0.00  0.00    -0.004 C 
ATOM     24  C   UNL     1      -5.550  16.843  68.543  0.00  0.00    +0.057 C 
BRANCH  23  25
ATOM     25  C   UNL     1      -4.932  19.220  68.176  0.00  0.00    +0.099 C 
BRANCH  25  27
ATOM     26  C   UNL     1      -6.443  20.768  67.903  0.00  0.00    +0.090 C 
ATOM     27  N   UNL     1      -5.946  20.059  68.788  0.00  0.00    -0.267 NA
ATOM     28  C   UNL     1      -5.362  20.812  69.867  0.00  0.00    +0.090 C 
ENDBRANCH  25  27
ENDBRANCH  23  25
ENDBRANCH  20  24
ENDBRANCH   1  21
BRANCH   2  29
ATOM     29  O   UNL     1      -8.769  17.332  66.535  0.00  0.00    -0.475 OA
BRANCH  29  30
ATOM     30  C   UNL     1     -10.088  18.077  66.877  0.00  0.00    +0.198 C 
ATOM     31  C   UNL     1      -9.553  19.466  66.133  0.00  0.00    +0.185 C 
ATOM     32  O   UNL     1     -10.121  20.407  66.952  0.00  0.00    -0.350 OA
ATOM     33  C   UNL     1     -10.187  19.942  68.236  0.00  0.00    +0.146 C 
ATOM     34  C   UNL     1      -9.475  18.630  68.322  0.00  0.00    +0.078 C 
ENDBRANCH  29  30
ENDBRANCH   2  29
TORSDOF 7
ENDMDL
MODEL 6
REMARK VINA RESULT:      -7.5      2.956      6.464
REMARK  Name = 
REMARK  7 active torsions:
REMARK  status: ('A' for Active; 'I' for Inactive)
REMARK    1  A    between atoms: N_2  and  C_4
REMARK    2  A    between atoms: C_4  and  C_5
REMARK    3  A    between atoms: C_6  and  C_7
REMARK    4  A    between atoms: N_9  and  C_10
REMARK    5  A    between atoms: C_15  and  O_16
REMARK    6  A    between atoms: O_16  and  C_17
REMARK    7  A    between atoms: N_26  and  C_27
REMARK                            x       y       z     vdW  Elec       q    Type
REMARK                         _______ _______ _______ _____ _____    ______ ____
ROOT
ATOM      1  C   UNL     1     -10.514  16.489  68.793  0.00  0.00    +0.108 A 
ATOM      2  C   UNL     1     -11.708  15.777  68.878  0.00  0.00    +0.155 A 
ATOM      3  C   UNL     1     -11.738  14.608  68.127  0.00  0.00    +0.057 A 
ATOM      4  C   UNL     1     -10.547  14.046  67.673  0.00  0.00    +0.089 A 
ATOM      5  N   UNL     1     -10.541  12.969  66.867  0.00  0.00    -0.224 NA
ATOM      6  C   UNL     1      -9.373  12.332  66.659  0.00  0.00    +0.200 A 
ATOM      7  N   UNL     1      -8.277  12.652  67.391  0.00  0.00    -0.207 NA
ATOM      8  C   UNL     1      -8.338  13.648  68.312  0.00  0.00    +0.155 A 
ATOM      9  N   UNL     1      -7.163  14.069  69.018  0.00  0.00    -0.194 NA
ATOM     10  C   UNL     1      -9.310  14.594  68.002  0.00  0.00    +0.053 A 
ATOM     11  C   UNL     1      -9.298  15.875  68.514  0.00  0.00    +0.024 A 
ENDROOT
BRANCH   9  12
ATOM     12  C   UNL     1      -5.991  14.259  68.216  0.00  0.00    +0.073 A 
ATOM     13  C   UNL     1      -5.694  15.530  67.775  0.00  0.00    +0.030 A 
ATOM     14  C   UNL     1      -4.365  15.907  67.640  0.00  0.00    +0.086 A 
ATOM     15 CL   UNL     1      -3.960  17.339  66.711  0.00  0.00    -0.080 Cl
ATOM     16  C   UNL     1      -3.349  15.019  67.941  0.00  0.00    +0.151 A 
ATOM     17  F   UNL     1      -2.065  15.446  67.788  0.00  0.00    -0.203 F 
ATOM     18  C   UNL     1      -3.637  13.665  68.063  0.00  0.00    +0.032 A 
ATOM     19  C   UNL     1      -4.942  13.375  68.440  0.00  0.00    +0.019 A 
ENDBRANCH   9  12
BRANCH   1  21
ATOM     20  C   UNL     1     -10.365  18.632  67.619  0.00  0.00    +0.269 C 
ATOM     21  N   UNL     1     -10.653  17.915  68.827  0.00  0.00    -0.172 NA
ATOM     22  O   UNL     1     -10.602  17.969  66.563  0.00  0.00    -0.268 OA
BRANCH  20  24
ATOM     23  C   UNL     1      -8.319  19.830  67.896  0.00  0.00    -0.004 C 
ATOM     24  C   UNL     1      -9.597  19.859  67.567  0.00  0.00    +0.057 C 
BRANCH  23  25
ATOM     25  C   UNL     1      -7.287  20.733  67.313  0.00  0.00    +0.099 C 
BRANCH  25  27
ATOM     26  C   UNL     1      -5.133  20.905  67.603  0.00  0.00    +0.090 C 
ATOM     27  N   UNL     1      -6.178  20.751  68.249  0.00  0.00    -0.267 NA
ATOM     28  C   UNL     1      -6.193  19.548  69.040  0.00  0.00    +0.090 C 
ENDBRANCH  25  27
ENDBRANCH  23  25
ENDBRANCH  20  24
ENDBRANCH   1  21
BRANCH   2  29
ATOM     29  O   UNL     1     -12.376  15.980  70.069  0.00  0.00    -0.475 OA
BRANCH  29  30
ATOM     30  C   UNL     1     -12.142  14.887  71.147  0.00  0.00    +0.198 C 
ATOM     31  C   UNL     1     -13.772  14.787  71.468  0.00  0.00    +0.185 C 
ATOM     32  O   UNL     1     -13.733  14.543  72.817  0.00  0.00    -0.350 OA
ATOM     33  C   UNL     1     -12.656  15.167  73.382  0.00  0.00    +0.146 C 
ATOM     34  C   UNL     1     -11.987  16.023  72.355  0.00  0.00    +0.078 C 
ENDBRANCH  29  30
ENDBRANCH   2  29
TORSDOF 7
ENDMDL
MODEL 7
REMARK VINA RESULT:      -7.4      6.380     10.258
REMARK  Name = 
REMARK  7 active torsions:
REMARK  status: ('A' for Active; 'I' for Inactive)
REMARK    1  A    between atoms: N_2  and  C_4
REMARK    2  A    between atoms: C_4  and  C_5
REMARK    3  A    between atoms: C_6  and  C_7
REMARK    4  A    between atoms: N_9  and  C_10
REMARK    5  A    between atoms: C_15  and  O_16
REMARK    6  A    between atoms: O_16  and  C_17
REMARK    7  A    between atoms: N_26  and  C_27
REMARK                            x       y       z     vdW  Elec       q    Type
REMARK                         _______ _______ _______ _____ _____    ______ ____
ROOT
ATOM      1  C   UNL     1     -10.481  12.341  68.023  0.00  0.00    +0.108 A 
ATOM      2  C   UNL     1     -10.800  13.468  68.775  0.00  0.00    +0.155 A 
ATOM      3  C   UNL     1     -11.745  13.249  69.771  0.00  0.00    +0.057 A 
ATOM      4  C   UNL     1     -12.018  11.951  70.192  0.00  0.00    +0.089 A 
ATOM      5  N   UNL     1     -12.990  11.692  71.086  0.00  0.00    -0.224 NA
ATOM      6  C   UNL     1     -13.048  10.462  71.631  0.00  0.00    +0.200 A 
ATOM      7  N   UNL     1     -12.043   9.575  71.429  0.00  0.00    -0.207 NA
ATOM      8  C   UNL     1     -10.988   9.904  70.639  0.00  0.00    +0.155 A 
ATOM      9  N   UNL     1      -9.971   8.941  70.331  0.00  0.00    -0.194 NA
ATOM     10  C   UNL     1     -11.325  10.857  69.682  0.00  0.00    +0.053 A 
ATOM     11  C   UNL     1     -10.592  11.050  68.530  0.00  0.00    +0.024 A 
ENDROOT
BRANCH   9  12
ATOM     12  C   UNL     1     -10.441   7.644  69.946  0.00  0.00    +0.073 A 
ATOM     13  C   UNL     1     -10.512   7.339  68.605  0.00  0.00    +0.030 A 
ATOM     14  C   UNL     1     -10.272   6.036  68.193  0.00  0.00    +0.086 A 
ATOM     15 CL   UNL     1     -10.747   5.536  66.579  0.00  0.00    -0.080 Cl
ATOM     16  C   UNL     1      -9.967   5.052  69.115  0.00  0.00    +0.151 A 
ATOM     17  F   UNL     1      -9.742   3.792  68.649  0.00  0.00    -0.203 F 
ATOM     18  C   UNL     1     -10.216   5.277  70.463  0.00  0.00    +0.032 A 
ATOM     19  C   UNL     1     -10.202   6.612  70.848  0.00  0.00    +0.019 A 
ENDBRANCH   9  12
BRANCH   1  21
ATOM     20  C   UNL     1     -11.233  12.237  65.696  0.00  0.00    +0.269 C 
ATOM     21  N   UNL     1     -10.211  12.590  66.638  0.00  0.00    -0.172 NA
ATOM     22  O   UNL     1     -12.410  12.314  66.165  0.00  0.00    -0.268 OA
BRANCH  20  24
ATOM     23  C   UNL     1      -9.755  11.150  64.168  0.00  0.00    -0.004 C 
ATOM     24  C   UNL     1     -10.980  11.563  64.439  0.00  0.00    +0.057 C 
BRANCH  23  25
ATOM     25  C   UNL     1      -9.444   9.954  63.335  0.00  0.00    +0.099 C 
BRANCH  25  27
ATOM     26  C   UNL     1      -8.100   8.237  63.356  0.00  0.00    +0.090 C 
ATOM     27  N   UNL     1      -8.451   9.188  64.067  0.00  0.00    -0.267 NA
ATOM     28  C   UNL     1      -8.993   8.786  65.339  0.00  0.00    +0.090 C 
ENDBRANCH  25  27
ENDBRANCH  23  25
ENDBRANCH  20  24
ENDBRANCH   1  21
BRANCH   2  29
ATOM     29  O   UNL     1      -9.773  14.387  68.836  0.00  0.00    -0.475 OA
BRANCH  29  30
ATOM     30  C   UNL     1     -10.141  15.741  69.503  0.00  0.00    +0.198 C 
ATOM     31  C   UNL     1     -11.135  16.152  68.233  0.00  0.00    +0.185 C 
ATOM     32  O   UNL     1     -10.924  17.505  68.196  0.00  0.00    -0.350 OA
ATOM     33  C   UNL     1      -9.645  17.798  68.577  0.00  0.00    +0.146 C 
ATOM     34  C   UNL     1      -8.879  16.526  68.753  0.00  0.00    +0.078 C 
ENDBRANCH  29  30
ENDBRANCH   2  29
TORSDOF 7
ENDMDL
MODEL 8
REMARK VINA RESULT:      -7.3      6.033      7.968
REMARK  Name = 
REMARK  7 active torsions:
REMARK  status: ('A' for Active; 'I' for Inactive)
REMARK    1  A    between atoms: N_2  and  C_4
REMARK    2  A    between atoms: C_4  and  C_5
REMARK    3  A    between atoms: C_6  and  C_7
REMARK    4  A    between atoms: N_9  and  C_10
REMARK    5  A    between atoms: C_15  and  O_16
REMARK    6  A    between atoms: O_16  and  C_17
REMARK    7  A    between atoms: N_26  and  C_27
REMARK                            x       y       z     vdW  Elec       q    Type
REMARK                         _______ _______ _______ _____ _____    ______ ____
ROOT
ATOM      1  C   UNL     1      -9.539   9.764  67.211  0.00  0.00    +0.108 A 
ATOM      2  C   UNL     1      -9.181   9.623  65.873  0.00  0.00    +0.155 A 
ATOM      3  C   UNL     1     -10.002  10.303  64.981  0.00  0.00    +0.057 A 
ATOM      4  C   UNL     1     -10.835  11.318  65.443  0.00  0.00    +0.089 A 
ATOM      5  N   UNL     1     -11.710  11.935  64.628  0.00  0.00    -0.224 NA
ATOM      6  C   UNL     1     -12.310  13.059  65.066  0.00  0.00    +0.200 A 
ATOM      7  N   UNL     1     -11.900  13.652  66.214  0.00  0.00    -0.207 NA
ATOM      8  C   UNL     1     -10.908  13.095  66.956  0.00  0.00    +0.155 A 
ATOM      9  N   UNL     1     -10.536  13.652  68.223  0.00  0.00    -0.194 NA
ATOM     10  C   UNL     1     -10.828  11.717  66.777  0.00  0.00    +0.053 A 
ATOM     11  C   UNL     1     -10.218  10.879  67.687  0.00  0.00    +0.024 A 
ENDROOT
BRANCH   9  12
ATOM     12  C   UNL     1     -11.622  13.992  69.095  0.00  0.00    +0.073 A 
ATOM     13  C   UNL     1     -12.081  13.038  69.976  0.00  0.00    +0.030 A 
ATOM     14  C   UNL     1     -12.562  13.438  71.215  0.00  0.00    +0.086 A 
ATOM     15 CL   UNL     1     -13.514  12.321  72.177  0.00  0.00    -0.080 Cl
ATOM     16  C   UNL     1     -12.583  14.776  71.564  0.00  0.00    +0.151 A 
ATOM     17  F   UNL     1     -13.066  15.106  72.793  0.00  0.00    -0.203 F 
ATOM     18  C   UNL     1     -12.434  15.742  70.576  0.00  0.00    +0.032 A 
ATOM     19  C   UNL     1     -11.725  15.331  69.455  0.00  0.00    +0.019 A 
ENDBRANCH   9  12
BRANCH   1  21
ATOM     20  C   UNL     1     -10.318   7.569  67.963  0.00  0.00    +0.269 C 
ATOM     21  N   UNL     1      -9.326   8.602  68.023  0.00  0.00    -0.172 NA
ATOM     22  O   UNL     1     -10.912   7.494  66.844  0.00  0.00    -0.268 OA
BRANCH  20  24
ATOM     23  C   UNL     1     -11.068   7.553  70.230  0.00  0.00    -0.004 C 
ATOM     24  C   UNL     1     -10.834   6.872  69.124  0.00  0.00    +0.057 C 
BRANCH  23  25
ATOM     25  C   UNL     1     -12.132   7.208  71.213  0.00  0.00    +0.099 C 
BRANCH  25  27
ATOM     26  C   UNL     1     -13.532   8.653  72.054  0.00  0.00    +0.090 C 
ATOM     27  N   UNL     1     -12.324   8.383  72.044  0.00  0.00    -0.267 NA
ATOM     28  C   UNL     1     -11.499   9.458  71.557  0.00  0.00    +0.090 C 
ENDBRANCH  25  27
ENDBRANCH  23  25
ENDBRANCH  20  24
ENDBRANCH   1  21
BRANCH   2  29
ATOM     29  O   UNL     1      -7.834   9.382  65.695  0.00  0.00    -0.475 OA
BRANCH  29  30
ATOM     30  C   UNL     1      -6.917  10.624  65.861  0.00  0.00    +0.198 C 
ATOM     31  C   UNL     1      -6.035  10.214  64.510  0.00  0.00    +0.185 C 
ATOM     32  O   UNL     1      -4.791  10.636  64.903  0.00  0.00    -0.350 OA
ATOM     33  C   UNL     1      -4.644  10.491  66.254  0.00  0.00    +0.146 C 
ATOM     34  C   UNL     1      -5.837   9.780  66.806  0.00  0.00    +0.078 C 
ENDBRANCH  29  30
ENDBRANCH   2  29
TORSDOF 7
ENDMDL
MODEL 9
REMARK VINA RESULT:      -7.2      6.942      9.842
REMARK  Name = 
REMARK  7 active torsions:
REMARK  status: ('A' for Active; 'I' for Inactive)
REMARK    1  A    between atoms: N_2  and  C_4
REMARK    2  A    between atoms: C_4  and  C_5
REMARK    3  A    between atoms: C_6  and  C_7
REMARK    4  A    between atoms: N_9  and  C_10
REMARK    5  A    between atoms: C_15  and  O_16
REMARK    6  A    between atoms: O_16  and  C_17
REMARK    7  A    between atoms: N_26  and  C_27
REMARK                            x       y       z     vdW  Elec       q    Type
REMARK                         _______ _______ _______ _____ _____    ______ ____
ROOT
ATOM      1  C   UNL     1     -10.283  10.615  68.010  0.00  0.00    +0.108 A 
ATOM      2  C   UNL     1     -10.216  10.771  66.628  0.00  0.00    +0.155 A 
ATOM      3  C   UNL     1      -9.469   9.799  65.973  0.00  0.00    +0.057 A 
ATOM      4  C   UNL     1      -9.173   8.602  66.619  0.00  0.00    +0.089 A 
ATOM      5  N   UNL     1      -8.376   7.677  66.053  0.00  0.00    -0.224 NA
ATOM      6  C   UNL     1      -8.321   6.452  66.611  0.00  0.00    +0.200 A 
ATOM      7  N   UNL     1      -9.187   6.108  67.596  0.00  0.00    -0.207 NA
ATOM      8  C   UNL     1     -10.091   7.010  68.058  0.00  0.00    +0.155 A 
ATOM      9  N   UNL     1     -10.941   6.696  69.169  0.00  0.00    -0.194 NA
ATOM     10  C   UNL     1      -9.657   8.322  67.894  0.00  0.00    +0.053 A 
ATOM     11  C   UNL     1     -10.164   9.374  68.626  0.00  0.00    +0.024 A 
ENDROOT
BRANCH   9  12
ATOM     12  C   UNL     1     -10.296   6.081  70.290  0.00  0.00    +0.073 A 
ATOM     13  C   UNL     1     -10.414   6.677  71.526  0.00  0.00    +0.030 A 
ATOM     14  C   UNL     1     -10.455   5.879  72.661  0.00  0.00    +0.086 A 
ATOM     15 CL   UNL     1     -10.195   6.603  74.239  0.00  0.00    -0.080 Cl
ATOM     16  C   UNL     1     -10.376   4.503  72.557  0.00  0.00    +0.151 A 
ATOM     17  F   UNL     1     -10.421   3.774  73.706  0.00  0.00    -0.203 F 
ATOM     18  C   UNL     1      -9.934   3.931  71.370  0.00  0.00    +0.032 A 
ATOM     19  C   UNL     1     -10.149   4.699  70.233  0.00  0.00    +0.019 A 
ENDBRANCH   9  12
BRANCH   1  21
ATOM     20  C   UNL     1     -11.540  12.223  69.361  0.00  0.00    +0.269 C 
ATOM     21  N   UNL     1     -10.297  11.836  68.760  0.00  0.00    -0.172 NA
ATOM     22  O   UNL     1     -12.282  11.243  69.679  0.00  0.00    -0.268 OA
BRANCH  20  24
ATOM     23  C   UNL     1     -12.509  14.104  70.467  0.00  0.00    -0.004 C 
ATOM     24  C   UNL     1     -12.065  13.573  69.343  0.00  0.00    +0.057 C 
BRANCH  23  25
ATOM     25  C   UNL     1     -12.455  15.559  70.781  0.00  0.00    +0.099 C 
BRANCH  25  27
ATOM     26  C   UNL     1     -12.946  15.683  72.902  0.00  0.00    +0.090 C 
ATOM     27  N   UNL     1     -13.472  15.803  71.788  0.00  0.00    -0.267 NA
ATOM     28  C   UNL     1     -14.583  14.910  71.578  0.00  0.00    +0.090 C 
ENDBRANCH  25  27
ENDBRANCH  23  25
ENDBRANCH  20  24
ENDBRANCH   1  21
BRANCH   2  29
ATOM     29  O   UNL     1     -11.310  11.428  66.103  0.00  0.00    -0.475 OA
BRANCH  29  30
ATOM     30  C   UNL     1     -10.974  12.646  65.200  0.00  0.00    +0.198 C 
ATOM     31  C   UNL     1     -12.429  13.372  65.556  0.00  0.00    +0.185 C 
ATOM     32  O   UNL     1     -12.694  13.974  64.353  0.00  0.00    -0.350 OA
ATOM     33  C   UNL     1     -12.195  13.223  63.325  0.00  0.00    +0.146 C 
ATOM     34  C   UNL     1     -11.671  11.932  63.868  0.00  0.00    +0.078 C 
ENDBRANCH  29  30
ENDBRANCH   2  29
TORSDOF 7
ENDMDL
