MODEL 1
REMARK VINA RESULT:      -5.9      0.000      0.000
REMARK  Name = 
REMARK  3 active torsions:
REMARK  status: ('A' for Active; 'I' for Inactive)
REMARK    1  A    between atoms: N_6  and  C_7
REMARK    2  A    between atoms: C_7  and  C_8
REMARK    3  A    between atoms: C_8  and  C_10
REMARK                            x       y       z     vdW  Elec       q    Type
REMARK                         _______ _______ _______ _____ _____    ______ ____
ROOT
ATOM      1  C   UNL     1     -10.543  13.796  65.417  0.00  0.00    +0.137 C 
ATOM      2  N   UNL     1     -10.882  14.794  66.374  0.00  0.00    -0.263 N 
ATOM      3  C   UNL     1     -10.654  16.107  66.136  0.00  0.00    +0.335 A 
ATOM      4  O   UNL     1     -10.246  16.450  65.005  0.00  0.00    -0.246 OA
ATOM      5  N   UNL     1     -10.444  16.989  67.134  0.00  0.00    -0.245 N 
ATOM      6  C   UNL     1     -10.553  18.399  66.867  0.00  0.00    +0.138 C 
ATOM      7  C   UNL     1     -10.669  16.571  68.404  0.00  0.00    +0.283 A 
ATOM      8  O   UNL     1     -10.550  17.347  69.372  0.00  0.00    -0.265 OA
ATOM      9  C   UNL     1     -11.210  15.314  68.646  0.00  0.00    +0.153 A 
ATOM     10  N   UNL     1     -11.937  14.781  69.653  0.00  0.00    -0.301 N 
ATOM     11  C   UNL     1     -11.986  13.473  69.407  0.00  0.00    +0.180 A 
ATOM     12  N   UNL     1     -11.391  13.202  68.220  0.00  0.00    -0.206 NA
ATOM     13  C   UNL     1     -11.075  14.380  67.635  0.00  0.00    +0.170 A 
ENDROOT
BRANCH  10  14
ATOM     14  C   UNL     1     -12.665  15.596  70.621  0.00  0.00    +0.143 C 
BRANCH  14  15
ATOM     15  C   UNL     1     -11.928  15.110  72.052  0.00  0.00    +0.207 C 
ATOM     16  O   UNL     1     -11.960  16.559  72.594  0.00  0.00    -0.218 OA
BRANCH  15  17
ATOM     17  C   UNL     1     -13.418  14.772  72.755  0.00  0.00    +0.217 C 
ATOM     18  O   UNL     1     -14.195  15.812  72.217  0.00  0.00    -0.218 OA
ENDBRANCH  15  17
ENDBRANCH  14  15
ENDBRANCH  10  14
TORSDOF 3
ENDMDL
MODEL 2
REMARK VINA RESULT:      -5.8      2.325      5.866
REMARK  Name = 
REMARK  3 active torsions:
REMARK  status: ('A' for Active; 'I' for Inactive)
REMARK    1  A    between atoms: N_6  and  C_7
REMARK    2  A    between atoms: C_7  and  C_8
REMARK    3  A    between atoms: C_8  and  C_10
REMARK                            x       y       z     vdW  Elec       q    Type
REMARK                         _______ _______ _______ _____ _____    ______ ____
ROOT
ATOM      1  C   UNL     1     -12.652  15.571  71.303  0.00  0.00    +0.137 C 
ATOM      2  N   UNL     1     -12.348  14.675  70.240  0.00  0.00    -0.263 N 
ATOM      3  C   UNL     1     -12.417  13.334  70.405  0.00  0.00    +0.335 A 
ATOM      4  O   UNL     1     -12.872  12.884  71.480  0.00  0.00    -0.246 OA
ATOM      5  N   UNL     1     -11.665  12.483  69.678  0.00  0.00    -0.245 N 
ATOM      6  C   UNL     1     -12.013  11.087  69.637  0.00  0.00    +0.138 C 
ATOM      7  C   UNL     1     -10.977  12.990  68.626  0.00  0.00    +0.283 A 
ATOM      8  O   UNL     1     -10.305  12.254  67.877  0.00  0.00    -0.265 OA
ATOM      9  C   UNL     1     -11.144  14.317  68.249  0.00  0.00    +0.153 A 
ATOM     10  N   UNL     1     -10.999  14.989  67.085  0.00  0.00    -0.301 N 
ATOM     11  C   UNL     1     -11.111  16.279  67.400  0.00  0.00    +0.180 A 
ATOM     12  N   UNL     1     -11.421  16.411  68.713  0.00  0.00    -0.206 NA
ATOM     13  C   UNL     1     -11.642  15.173  69.213  0.00  0.00    +0.170 A 
ENDROOT
BRANCH  10  14
ATOM     14  C   UNL     1     -10.969  14.325  65.786  0.00  0.00    +0.143 C 
BRANCH  14  15
ATOM     15  C   UNL     1     -12.610  14.069  65.530  0.00  0.00    +0.207 C 
ATOM     16  O   UNL     1     -12.528  14.741  64.139  0.00  0.00    -0.218 OA
BRANCH  15  17
ATOM     17  C   UNL     1     -12.313  12.555  64.860  0.00  0.00    +0.217 C 
ATOM     18  O   UNL     1     -12.863  12.732  63.579  0.00  0.00    -0.218 OA
ENDBRANCH  15  17
ENDBRANCH  14  15
ENDBRANCH  10  14
TORSDOF 3
ENDMDL
MODEL 3
REMARK VINA RESULT:      -5.8      2.449      6.080
REMARK  Name = 
REMARK  3 active torsions:
REMARK  status: ('A' for Active; 'I' for Inactive)
REMARK    1  A    between atoms: N_6  and  C_7
REMARK    2  A    between atoms: C_7  and  C_8
REMARK    3  A    between atoms: C_8  and  C_10
REMARK                            x       y       z     vdW  Elec       q    Type
REMARK                         _______ _______ _______ _____ _____    ______ ____
ROOT
ATOM      1  C   UNL     1     -13.231  15.577  71.876  0.00  0.00    +0.137 C 
ATOM      2  N   UNL     1     -12.952  14.510  70.977  0.00  0.00    -0.263 N 
ATOM      3  C   UNL     1     -13.077  13.216  71.357  0.00  0.00    +0.335 A 
ATOM      4  O   UNL     1     -13.558  12.965  72.484  0.00  0.00    -0.246 OA
ATOM      5  N   UNL     1     -12.351  12.231  70.790  0.00  0.00    -0.245 N 
ATOM      6  C   UNL     1     -12.754  10.861  70.972  0.00  0.00    +0.138 C 
ATOM      7  C   UNL     1     -11.634  12.533  69.680  0.00  0.00    +0.283 A 
ATOM      8  O   UNL     1     -10.985  11.661  69.072  0.00  0.00    -0.265 OA
ATOM      9  C   UNL     1     -11.746  13.786  69.090  0.00  0.00    +0.153 A 
ATOM     10  N   UNL     1     -11.563  14.254  67.835  0.00  0.00    -0.301 N 
ATOM     11  C   UNL     1     -11.627  15.581  67.934  0.00  0.00    +0.180 A 
ATOM     12  N   UNL     1     -11.944  15.936  69.203  0.00  0.00    -0.206 NA
ATOM     13  C   UNL     1     -12.218  14.806  69.894  0.00  0.00    +0.170 A 
ENDROOT
BRANCH  10  14
ATOM     14  C   UNL     1     -11.547  13.386  66.662  0.00  0.00    +0.143 C 
BRANCH  14  15
ATOM     15  C   UNL     1     -11.624  14.527  65.430  0.00  0.00    +0.207 C 
ATOM     16  O   UNL     1     -10.117  14.350  65.131  0.00  0.00    -0.218 OA
BRANCH  15  17
ATOM     17  C   UNL     1     -12.027  13.347  64.302  0.00  0.00    +0.217 C 
ATOM     18  O   UNL     1     -13.156  12.781  64.919  0.00  0.00    -0.218 OA
ENDBRANCH  15  17
ENDBRANCH  14  15
ENDBRANCH  10  14
TORSDOF 3
ENDMDL
MODEL 4
REMARK VINA RESULT:      -5.7      2.420      5.669
REMARK  Name = 
REMARK  3 active torsions:
REMARK  status: ('A' for Active; 'I' for Inactive)
REMARK    1  A    between atoms: N_6  and  C_7
REMARK    2  A    between atoms: C_7  and  C_8
REMARK    3  A    between atoms: C_8  and  C_10
REMARK                            x       y       z     vdW  Elec       q    Type
REMARK                         _______ _______ _______ _____ _____    ______ ____
ROOT
ATOM      1  C   UNL     1     -10.077  17.916  68.583  0.00  0.00    +0.137 C 
ATOM      2  N   UNL     1     -10.774  16.698  68.346  0.00  0.00    -0.263 N 
ATOM      3  C   UNL     1     -11.324  15.990  69.361  0.00  0.00    +0.335 A 
ATOM      4  O   UNL     1     -11.315  16.483  70.510  0.00  0.00    -0.246 OA
ATOM      5  N   UNL     1     -11.497  14.655  69.290  0.00  0.00    -0.245 N 
ATOM      6  C   UNL     1     -12.382  14.005  70.220  0.00  0.00    +0.138 C 
ATOM      7  C   UNL     1     -11.295  14.055  68.091  0.00  0.00    +0.283 A 
ATOM      8  O   UNL     1     -11.490  12.833  67.938  0.00  0.00    -0.265 OA
ATOM      9  C   UNL     1     -11.036  14.815  66.957  0.00  0.00    +0.153 A 
ATOM     10  N   UNL     1     -11.224  14.624  65.633  0.00  0.00    -0.301 N 
ATOM     11  C   UNL     1     -10.590  15.629  65.032  0.00  0.00    +0.180 A 
ATOM     12  N   UNL     1     -10.102  16.490  65.958  0.00  0.00    -0.206 NA
ATOM     13  C   UNL     1     -10.550  16.092  67.171  0.00  0.00    +0.170 A 
ENDROOT
BRANCH  10  14
ATOM     14  C   UNL     1     -12.144  13.624  65.101  0.00  0.00    +0.143 C 
BRANCH  14  15
ATOM     15  C   UNL     1     -11.173  12.895  63.939  0.00  0.00    +0.207 C 
ATOM     16  O   UNL     1     -10.735  11.805  64.946  0.00  0.00    -0.218 OA
BRANCH  15  17
ATOM     17  C   UNL     1     -12.452  11.943  63.404  0.00  0.00    +0.217 C 
ATOM     18  O   UNL     1     -13.407  12.221  64.396  0.00  0.00    -0.218 OA
ENDBRANCH  15  17
ENDBRANCH  14  15
ENDBRANCH  10  14
TORSDOF 3
ENDMDL
MODEL 5
REMARK VINA RESULT:      -5.7      2.046      4.988
REMARK  Name = 
REMARK  3 active torsions:
REMARK  status: ('A' for Active; 'I' for Inactive)
REMARK    1  A    between atoms: N_6  and  C_7
REMARK    2  A    between atoms: C_7  and  C_8
REMARK    3  A    between atoms: C_8  and  C_10
REMARK                            x       y       z     vdW  Elec       q    Type
REMARK                         _______ _______ _______ _____ _____    ______ ____
ROOT
ATOM      1  C   UNL     1     -11.304  11.691  66.418  0.00  0.00    +0.137 C 
ATOM      2  N   UNL     1     -11.177  12.859  67.222  0.00  0.00    -0.263 N 
ATOM      3  C   UNL     1     -11.578  12.873  68.514  0.00  0.00    +0.335 A 
ATOM      4  O   UNL     1     -11.957  11.802  69.038  0.00  0.00    -0.246 OA
ATOM      5  N   UNL     1     -11.980  14.006  69.127  0.00  0.00    -0.245 N 
ATOM      6  C   UNL     1     -12.062  14.043  70.564  0.00  0.00    +0.138 C 
ATOM      7  C   UNL     1     -11.780  15.179  68.478  0.00  0.00    +0.283 A 
ATOM      8  O   UNL     1     -12.075  16.269  69.006  0.00  0.00    -0.265 OA
ATOM      9  C   UNL     1     -11.078  15.211  67.279  0.00  0.00    +0.153 A 
ATOM     10  N   UNL     1     -10.348  16.152  66.641  0.00  0.00    -0.301 N 
ATOM     11  C   UNL     1     -10.092  15.650  65.434  0.00  0.00    +0.180 A 
ATOM     12  N   UNL     1     -10.562  14.382  65.350  0.00  0.00    -0.206 NA
ATOM     13  C   UNL     1     -11.008  14.022  66.575  0.00  0.00    +0.170 A 
ENDROOT
BRANCH  10  14
ATOM     14  C   UNL     1      -9.812  17.330  67.316  0.00  0.00    +0.143 C 
BRANCH  14  15
ATOM     15  C   UNL     1     -10.365  18.549  66.298  0.00  0.00    +0.207 C 
ATOM     16  O   UNL     1     -11.041  19.274  67.485  0.00  0.00    -0.218 OA
BRANCH  15  17
ATOM     17  C   UNL     1      -8.949  19.430  66.514  0.00  0.00    +0.217 C 
ATOM     18  O   UNL     1      -8.044  18.639  65.786  0.00  0.00    -0.218 OA
ENDBRANCH  15  17
ENDBRANCH  14  15
ENDBRANCH  10  14
TORSDOF 3
ENDMDL
MODEL 6
REMARK VINA RESULT:      -5.7      3.480      5.562
REMARK  Name = 
REMARK  3 active torsions:
REMARK  status: ('A' for Active; 'I' for Inactive)
REMARK    1  A    between atoms: N_6  and  C_7
REMARK    2  A    between atoms: C_7  and  C_8
REMARK    3  A    between atoms: C_8  and  C_10
REMARK                            x       y       z     vdW  Elec       q    Type
REMARK                         _______ _______ _______ _____ _____    ______ ____
ROOT
ATOM      1  C   UNL     1     -10.247  19.184  66.354  0.00  0.00    +0.137 C 
ATOM      2  N   UNL     1     -10.231  17.800  66.685  0.00  0.00    -0.263 N 
ATOM      3  C   UNL     1      -9.576  17.342  67.778  0.00  0.00    +0.335 A 
ATOM      4  O   UNL     1      -9.077  18.172  68.570  0.00  0.00    -0.246 OA
ATOM      5  N   UNL     1      -9.082  16.089  67.843  0.00  0.00    -0.245 N 
ATOM      6  C   UNL     1      -8.711  15.541  69.122  0.00  0.00    +0.138 C 
ATOM      7  C   UNL     1      -9.434  15.220  66.865  0.00  0.00    +0.283 A 
ATOM      8  O   UNL     1      -9.061  14.031  66.891  0.00  0.00    -0.265 OA
ATOM      9  C   UNL     1     -10.366  15.584  65.900  0.00  0.00    +0.153 A 
ATOM     10  N   UNL     1     -11.229  14.898  65.120  0.00  0.00    -0.301 N 
ATOM     11  C   UNL     1     -11.714  15.786  64.254  0.00  0.00    +0.180 A 
ATOM     12  N   UNL     1     -11.245  17.024  64.547  0.00  0.00    -0.206 NA
ATOM     13  C   UNL     1     -10.552  16.941  65.706  0.00  0.00    +0.170 A 
ENDROOT
BRANCH  10  14
ATOM     14  C   UNL     1     -11.641  13.528  65.410  0.00  0.00    +0.143 C 
BRANCH  14  15
ATOM     15  C   UNL     1     -10.873  12.702  64.163  0.00  0.00    +0.207 C 
ATOM     16  O   UNL     1     -10.793  11.419  65.023  0.00  0.00    -0.218 OA
BRANCH  15  17
ATOM     17  C   UNL     1     -12.348  12.223  63.514  0.00  0.00    +0.217 C 
ATOM     18  O   UNL     1     -13.188  12.412  64.625  0.00  0.00    -0.218 OA
ENDBRANCH  15  17
ENDBRANCH  14  15
ENDBRANCH  10  14
TORSDOF 3
ENDMDL
MODEL 7
REMARK VINA RESULT:      -5.6      3.279      4.817
REMARK  Name = 
REMARK  3 active torsions:
REMARK  status: ('A' for Active; 'I' for Inactive)
REMARK    1  A    between atoms: N_6  and  C_7
REMARK    2  A    between atoms: C_7  and  C_8
REMARK    3  A    between atoms: C_8  and  C_10
REMARK                            x       y       z     vdW  Elec       q    Type
REMARK                         _______ _______ _______ _____ _____    ______ ____
ROOT
ATOM      1  C   UNL     1     -11.228  12.440  68.625  0.00  0.00    +0.137 C 
ATOM      2  N   UNL     1     -11.334  13.552  67.744  0.00  0.00    -0.263 N 
ATOM      3  C   UNL     1     -11.819  13.414  66.487  0.00  0.00    +0.335 A 
ATOM      4  O   UNL     1     -12.289  12.308  66.143  0.00  0.00    -0.246 OA
ATOM      5  N   UNL     1     -11.455  14.241  65.486  0.00  0.00    -0.245 N 
ATOM      6  C   UNL     1     -12.240  14.278  64.279  0.00  0.00    +0.138 C 
ATOM      7  C   UNL     1     -10.744  15.349  65.808  0.00  0.00    +0.283 A 
ATOM      8  O   UNL     1     -10.422  16.185  64.942  0.00  0.00    -0.265 OA
ATOM      9  C   UNL     1     -10.508  15.672  67.138  0.00  0.00    +0.153 A 
ATOM     10  N   UNL     1     -10.265  16.826  67.797  0.00  0.00    -0.301 N 
ATOM     11  C   UNL     1      -9.922  16.469  69.034  0.00  0.00    +0.180 A 
ATOM     12  N   UNL     1     -10.045  15.127  69.179  0.00  0.00    -0.206 NA
ATOM     13  C   UNL     1     -10.606  14.637  68.050  0.00  0.00    +0.170 A 
ENDROOT
BRANCH  10  14
ATOM     14  C   UNL     1     -10.575  18.138  67.236  0.00  0.00    +0.143 C 
BRANCH  14  15
ATOM     15  C   UNL     1      -9.134  18.951  67.533  0.00  0.00    +0.207 C 
ATOM     16  O   UNL     1      -8.611  18.599  66.120  0.00  0.00    -0.218 OA
BRANCH  15  17
ATOM     17  C   UNL     1      -9.786  20.397  66.974  0.00  0.00    +0.217 C 
ATOM     18  O   UNL     1     -10.633  19.919  65.960  0.00  0.00    -0.218 OA
ENDBRANCH  15  17
ENDBRANCH  14  15
ENDBRANCH  10  14
TORSDOF 3
ENDMDL
MODEL 8
REMARK VINA RESULT:      -5.5      2.882      4.392
REMARK  Name = 
REMARK  3 active torsions:
REMARK  status: ('A' for Active; 'I' for Inactive)
REMARK    1  A    between atoms: N_6  and  C_7
REMARK    2  A    between atoms: C_7  and  C_8
REMARK    3  A    between atoms: C_8  and  C_10
REMARK                            x       y       z     vdW  Elec       q    Type
REMARK                         _______ _______ _______ _____ _____    ______ ____
ROOT
ATOM      1  C   UNL     1     -10.482  13.020  67.142  0.00  0.00    +0.137 C 
ATOM      2  N   UNL     1     -10.862  12.689  68.473  0.00  0.00    -0.263 N 
ATOM      3  C   UNL     1     -10.761  11.423  68.942  0.00  0.00    +0.335 A 
ATOM      4  O   UNL     1     -10.212  10.559  68.224  0.00  0.00    -0.246 OA
ATOM      5  N   UNL     1     -11.560  10.958  69.924  0.00  0.00    -0.245 N 
ATOM      6  C   UNL     1     -11.197   9.751  70.620  0.00  0.00    +0.138 C 
ATOM      7  C   UNL     1     -12.340  11.852  70.580  0.00  0.00    +0.283 A 
ATOM      8  O   UNL     1     -13.062  11.502  71.534  0.00  0.00    -0.265 OA
ATOM      9  C   UNL     1     -12.223  13.212  70.322  0.00  0.00    +0.153 A 
ATOM     10  N   UNL     1     -12.473  14.330  71.038  0.00  0.00    -0.301 N 
ATOM     11  C   UNL     1     -12.353  15.341  70.179  0.00  0.00    +0.180 A 
ATOM     12  N   UNL     1     -11.936  14.879  68.974  0.00  0.00    -0.206 NA
ATOM     13  C   UNL     1     -11.658  13.562  69.109  0.00  0.00    +0.170 A 
ENDROOT
BRANCH  10  14
ATOM     14  C   UNL     1     -12.603  14.326  72.492  0.00  0.00    +0.143 C 
BRANCH  14  15
ATOM     15  C   UNL     1     -12.523  15.974  72.815  0.00  0.00    +0.207 C 
ATOM     16  O   UNL     1     -14.066  16.068  72.870  0.00  0.00    -0.218 OA
BRANCH  15  17
ATOM     17  C   UNL     1     -12.442  15.689  74.470  0.00  0.00    +0.217 C 
ATOM     18  O   UNL     1     -12.374  17.007  74.952  0.00  0.00    -0.218 OA
ENDBRANCH  15  17
ENDBRANCH  14  15
ENDBRANCH  10  14
TORSDOF 3
ENDMDL
MODEL 9
REMARK VINA RESULT:      -5.4      1.894      5.007
REMARK  Name = 
REMARK  3 active torsions:
REMARK  status: ('A' for Active; 'I' for Inactive)
REMARK    1  A    between atoms: N_6  and  C_7
REMARK    2  A    between atoms: C_7  and  C_8
REMARK    3  A    between atoms: C_8  and  C_10
REMARK                            x       y       z     vdW  Elec       q    Type
REMARK                         _______ _______ _______ _____ _____    ______ ____
ROOT
ATOM      1  C   UNL     1     -11.994  10.936  69.271  0.00  0.00    +0.137 C 
ATOM      2  N   UNL     1     -11.975  12.255  69.804  0.00  0.00    -0.263 N 
ATOM      3  C   UNL     1     -12.529  12.540  71.005  0.00  0.00    +0.335 A 
ATOM      4  O   UNL     1     -12.960  11.598  71.706  0.00  0.00    -0.246 OA
ATOM      5  N   UNL     1     -13.011  13.765  71.299  0.00  0.00    -0.245 N 
ATOM      6  C   UNL     1     -13.266  14.114  72.673  0.00  0.00    +0.138 C 
ATOM      7  C   UNL     1     -12.743  14.773  70.433  0.00  0.00    +0.283 A 
ATOM      8  O   UNL     1     -13.109  15.941  70.668  0.00  0.00    -0.265 OA
ATOM      9  C   UNL     1     -11.902  14.564  69.348  0.00  0.00    +0.153 A 
ATOM     10  N   UNL     1     -11.109  15.367  68.604  0.00  0.00    -0.301 N 
ATOM     11  C   UNL     1     -10.705  14.621  67.577  0.00  0.00    +0.180 A 
ATOM     12  N   UNL     1     -11.152  13.349  67.724  0.00  0.00    -0.206 NA
ATOM     13  C   UNL     1     -11.739  13.253  68.938  0.00  0.00    +0.170 A 
ENDROOT
BRANCH  10  14
ATOM     14  C   UNL     1     -10.668  16.682  69.058  0.00  0.00    +0.143 C 
BRANCH  14  15
ATOM     15  C   UNL     1     -10.077  17.324  67.620  0.00  0.00    +0.207 C 
ATOM     16  O   UNL     1     -10.944  18.593  67.797  0.00  0.00    -0.218 OA
BRANCH  15  17
ATOM     17  C   UNL     1      -8.787  18.045  68.422  0.00  0.00    +0.217 C 
ATOM     18  O   UNL     1      -9.369  19.269  68.791  0.00  0.00    -0.218 OA
ENDBRANCH  15  17
ENDBRANCH  14  15
ENDBRANCH  10  14
TORSDOF 3
ENDMDL
