MODEL 1
REMARK VINA RESULT:      -7.8      0.000      0.000
REMARK  Name = 
REMARK  10 active torsions:
REMARK  status: ('A' for Active; 'I' for Inactive)
REMARK    1  A    between atoms: C_2  and  O_3
REMARK    2  A    between atoms: O_3  and  C_4
REMARK    3  A    between atoms: C_4  and  C_6
REMARK    4  A    between atoms: C_6  and  C_7
REMARK    5  A    between atoms: C_6  and  N_15
REMARK    6  A    between atoms: C_7  and  C_8
REMARK    7  A    between atoms: C_8  and  C_9
REMARK    8  A    between atoms: N_15  and  C_16
REMARK    9  A    between atoms: N_25  and  C_26
REMARK   10  A    between atoms: C_26  and  C_27
REMARK                            x       y       z     vdW  Elec       q    Type
REMARK                         _______ _______ _______ _____ _____    ______ ____
ROOT
ATOM      1  C   UNL     1     -11.034  13.344  68.349  0.00  0.00    +0.150 C 
ATOM      2  C   UNL     1     -11.457  13.411  66.801  0.00  0.00    +0.246 C 
ATOM      3  O   UNL     1     -12.387  14.107  66.488  0.00  0.00    -0.273 OA
ATOM      4  N   UNL     1     -11.190  12.348  65.872  0.00  0.00    -0.247 N 
ATOM      5  C   UNL     1     -10.625  11.068  66.186  0.00  0.00    +0.050 A 
ATOM      6  C   UNL     1     -10.528  10.426  67.416  0.00  0.00    -0.008 A 
ATOM      7  C   UNL     1     -10.241   9.090  67.463  0.00  0.00    -0.003 A 
ATOM      8  C   UNL     1      -9.768   8.505  66.303  0.00  0.00    -0.000 A 
ATOM      9  C   UNL     1      -9.512   9.256  65.168  0.00  0.00    +0.001 A 
ATOM     10  C   UNL     1     -10.970  10.934  68.751  0.00  0.00    +0.030 C 
ATOM     11  C   UNL     1      -9.755  10.618  65.201  0.00  0.00    +0.015 A 
ATOM     12  C   UNL     1     -12.006  12.041  68.619  0.00  0.00    +0.031 C 
ENDROOT
BRANCH   1  13
ATOM     13  N   UNL     1     -12.140  14.348  68.851  0.00  0.00    -0.201 NA
BRANCH  13  14
ATOM     14  C   UNL     1     -11.416  14.775  70.190  0.00  0.00    +0.172 C 
BRANCH  14  15
ATOM     15  C   UNL     1     -12.781  15.112  70.976  0.00  0.00    +0.333 C 
ATOM     16  O   UNL     1     -13.560  14.218  71.276  0.00  0.00    -0.249 OA
BRANCH  15  17
ATOM     17  O   UNL     1     -12.420  15.945  72.048  0.00  0.00    -0.448 OA
BRANCH  17  19
ATOM     18  C   UNL     1     -12.422  15.515  74.427  0.00  0.00    +0.051 C 
ATOM     19  C   UNL     1     -13.221  15.962  73.227  0.00  0.00    +0.209 C 
ENDBRANCH  17  19
ENDBRANCH  15  17
ENDBRANCH  14  15
BRANCH  14  20
ATOM     20  C   UNL     1     -11.211  16.308  69.634  0.00  0.00    +0.033 C 
BRANCH  20  21
ATOM     21  C   UNL     1      -9.832  16.457  69.127  0.00  0.00    +0.028 C 
BRANCH  21  22
ATOM     22  C   UNL     1      -9.834  17.597  68.186  0.00  0.00    -0.022 A 
ATOM     23  C   UNL     1      -9.988  17.418  66.819  0.00  0.00    -0.004 A 
ATOM     24  C   UNL     1     -10.427  18.483  66.063  0.00  0.00    -0.000 A 
ATOM     25  C   UNL     1     -10.453  19.771  66.535  0.00  0.00    -0.000 A 
ATOM     26  C   UNL     1     -10.089  19.986  67.856  0.00  0.00    -0.000 A 
ATOM     27  C   UNL     1      -9.665  18.906  68.617  0.00  0.00    -0.004 A 
ENDBRANCH  21  22
ENDBRANCH  20  21
ENDBRANCH  14  20
ENDBRANCH  13  14
ENDBRANCH   1  13
BRANCH   4  28
ATOM     28  C   UNL     1     -10.938  12.880  64.587  0.00  0.00    +0.213 C 
BRANCH  28  29
ATOM     29  C   UNL     1     -12.033  12.944  63.626  0.00  0.00    +0.385 C 
ATOM     30  O   UNL     1     -12.993  11.926  63.755  0.00  0.00    -0.244 OA
ATOM     31  O   UNL     1     -12.586  14.027  63.252  0.00  0.00    -0.244 OA
ENDBRANCH  28  29
ENDBRANCH   4  28
TORSDOF 10
ENDMDL
MODEL 2
REMARK VINA RESULT:      -7.7      3.020      6.312
REMARK  Name = 
REMARK  10 active torsions:
REMARK  status: ('A' for Active; 'I' for Inactive)
REMARK    1  A    between atoms: C_2  and  O_3
REMARK    2  A    between atoms: O_3  and  C_4
REMARK    3  A    between atoms: C_4  and  C_6
REMARK    4  A    between atoms: C_6  and  C_7
REMARK    5  A    between atoms: C_6  and  N_15
REMARK    6  A    between atoms: C_7  and  C_8
REMARK    7  A    between atoms: C_8  and  C_9
REMARK    8  A    between atoms: N_15  and  C_16
REMARK    9  A    between atoms: N_25  and  C_26
REMARK   10  A    between atoms: C_26  and  C_27
REMARK                            x       y       z     vdW  Elec       q    Type
REMARK                         _______ _______ _______ _____ _____    ______ ____
ROOT
ATOM      1  C   UNL     1     -12.009  15.387  68.786  0.00  0.00    +0.150 C 
ATOM      2  C   UNL     1     -12.175  15.619  70.366  0.00  0.00    +0.246 C 
ATOM      3  O   UNL     1     -11.671  16.594  70.861  0.00  0.00    -0.273 OA
ATOM      4  N   UNL     1     -12.392  14.544  71.294  0.00  0.00    -0.247 N 
ATOM      5  C   UNL     1     -12.387  13.143  70.988  0.00  0.00    +0.050 A 
ATOM      6  C   UNL     1     -11.859  12.486  69.881  0.00  0.00    -0.008 A 
ATOM      7  C   UNL     1     -11.679  11.131  69.919  0.00  0.00    -0.003 A 
ATOM      8  C   UNL     1     -12.306  10.440  70.939  0.00  0.00    -0.000 A 
ATOM      9  C   UNL     1     -13.151  11.078  71.832  0.00  0.00    +0.001 A 
ATOM     10  C   UNL     1     -11.176  13.091  68.696  0.00  0.00    +0.030 C 
ATOM     11  C   UNL     1     -13.350  12.442  71.702  0.00  0.00    +0.015 A 
ATOM     12  C   UNL     1     -10.647  14.485  69.001  0.00  0.00    +0.031 C 
ENDROOT
BRANCH   1  13
ATOM     13  N   UNL     1     -11.172  16.697  68.528  0.00  0.00    -0.201 NA
BRANCH  13  14
ATOM     14  C   UNL     1      -9.833  15.984  68.085  0.00  0.00    +0.172 C 
BRANCH  14  15
ATOM     15  C   UNL     1      -8.882  17.213  68.511  0.00  0.00    +0.333 C 
ATOM     16  O   UNL     1      -7.839  17.427  67.908  0.00  0.00    -0.249 OA
BRANCH  15  17
ATOM     17  O   UNL     1      -9.720  18.333  68.629  0.00  0.00    -0.448 OA
BRANCH  17  19
ATOM     18  C   UNL     1      -9.942  20.229  67.145  0.00  0.00    +0.051 C 
ATOM     19  C   UNL     1      -9.210  19.629  68.321  0.00  0.00    +0.209 C 
ENDBRANCH  17  19
ENDBRANCH  15  17
ENDBRANCH  14  15
BRANCH  14  20
ATOM     20  C   UNL     1     -10.024  16.506  66.538  0.00  0.00    +0.033 C 
BRANCH  20  21
ATOM     21  C   UNL     1      -9.389  15.539  65.621  0.00  0.00    +0.028 C 
BRANCH  21  22
ATOM     22  C   UNL     1     -10.419  14.544  65.255  0.00  0.00    -0.022 A 
ATOM     23  C   UNL     1     -10.100  13.219  64.998  0.00  0.00    -0.004 A 
ATOM     24  C   UNL     1     -11.095  12.272  65.109  0.00  0.00    -0.000 A 
ATOM     25  C   UNL     1     -12.425  12.593  65.184  0.00  0.00    -0.000 A 
ATOM     26  C   UNL     1     -12.767  13.937  65.225  0.00  0.00    -0.000 A 
ATOM     27  C   UNL     1     -11.759  14.887  65.131  0.00  0.00    -0.004 A 
ENDBRANCH  21  22
ENDBRANCH  20  21
ENDBRANCH  14  20
ENDBRANCH  13  14
ENDBRANCH   1  13
BRANCH   4  28
ATOM     28  C   UNL     1     -13.213  14.980  72.358  0.00  0.00    +0.213 C 
BRANCH  28  29
ATOM     29  C   UNL     1     -12.583  15.464  73.580  0.00  0.00    +0.385 C 
ATOM     30  O   UNL     1     -13.124  16.656  74.092  0.00  0.00    -0.244 OA
ATOM     31  O   UNL     1     -12.203  14.708  74.530  0.00  0.00    -0.244 OA
ENDBRANCH  28  29
ENDBRANCH   4  28
TORSDOF 10
ENDMDL
MODEL 3
REMARK VINA RESULT:      -7.4      2.686      6.882
REMARK  Name = 
REMARK  10 active torsions:
REMARK  status: ('A' for Active; 'I' for Inactive)
REMARK    1  A    between atoms: C_2  and  O_3
REMARK    2  A    between atoms: O_3  and  C_4
REMARK    3  A    between atoms: C_4  and  C_6
REMARK    4  A    between atoms: C_6  and  C_7
REMARK    5  A    between atoms: C_6  and  N_15
REMARK    6  A    between atoms: C_7  and  C_8
REMARK    7  A    between atoms: C_8  and  C_9
REMARK    8  A    between atoms: N_15  and  C_16
REMARK    9  A    between atoms: N_25  and  C_26
REMARK   10  A    between atoms: C_26  and  C_27
REMARK                            x       y       z     vdW  Elec       q    Type
REMARK                         _______ _______ _______ _____ _____    ______ ____
ROOT
ATOM      1  C   UNL     1      -9.865  15.472  67.973  0.00  0.00    +0.150 C 
ATOM      2  C   UNL     1      -9.537  16.602  66.879  0.00  0.00    +0.246 C 
ATOM      3  O   UNL     1      -9.794  16.378  65.725  0.00  0.00    -0.273 OA
ATOM      4  N   UNL     1      -8.514  17.593  67.064  0.00  0.00    -0.247 N 
ATOM      5  C   UNL     1      -7.587  17.664  68.156  0.00  0.00    +0.050 A 
ATOM      6  C   UNL     1      -7.220  16.677  69.065  0.00  0.00    -0.008 A 
ATOM      7  C   UNL     1      -6.102  16.844  69.833  0.00  0.00    -0.003 A 
ATOM      8  C   UNL     1      -5.557  18.114  69.885  0.00  0.00    -0.000 A 
ATOM      9  C   UNL     1      -6.166  19.188  69.259  0.00  0.00    +0.001 A 
ATOM     10  C   UNL     1      -7.733  15.274  69.150  0.00  0.00    +0.030 C 
ATOM     11  C   UNL     1      -7.336  18.971  68.552  0.00  0.00    +0.015 A 
ATOM     12  C   UNL     1      -8.357  14.822  67.838  0.00  0.00    +0.031 C 
ENDROOT
BRANCH   1  13
ATOM     13  N   UNL     1     -10.467  14.439  66.946  0.00  0.00    -0.201 NA
BRANCH  13  14
ATOM     14  C   UNL     1     -10.519  13.202  67.929  0.00  0.00    +0.172 C 
BRANCH  14  15
ATOM     15  C   UNL     1     -11.348  12.263  66.915  0.00  0.00    +0.333 C 
ATOM     16  O   UNL     1     -12.063  11.368  67.344  0.00  0.00    -0.249 OA
BRANCH  15  17
ATOM     17  O   UNL     1     -11.988  13.129  66.014  0.00  0.00    -0.448 OA
BRANCH  17  19
ATOM     18  C   UNL     1     -11.741  12.753  63.639  0.00  0.00    +0.051 C 
ATOM     19  C   UNL     1     -12.622  12.596  64.854  0.00  0.00    +0.209 C 
ENDBRANCH  17  19
ENDBRANCH  15  17
ENDBRANCH  14  15
BRANCH  14  20
ATOM     20  C   UNL     1     -11.860  13.799  68.668  0.00  0.00    +0.033 C 
BRANCH  20  21
ATOM     21  C   UNL     1     -11.946  13.244  70.033  0.00  0.00    +0.028 C 
BRANCH  21  22
ATOM     22  C   UNL     1     -12.429  14.328  70.915  0.00  0.00    -0.022 A 
ATOM     23  C   UNL     1     -13.779  14.606  71.063  0.00  0.00    -0.004 A 
ATOM     24  C   UNL     1     -14.190  15.283  72.191  0.00  0.00    -0.000 A 
ATOM     25  C   UNL     1     -13.320  15.934  73.027  0.00  0.00    -0.000 A 
ATOM     26  C   UNL     1     -11.963  15.836  72.757  0.00  0.00    -0.000 A 
ATOM     27  C   UNL     1     -11.555  15.137  71.629  0.00  0.00    -0.004 A 
ENDBRANCH  21  22
ENDBRANCH  20  21
ENDBRANCH  14  20
ENDBRANCH  13  14
ENDBRANCH   1  13
BRANCH   4  28
ATOM     28  C   UNL     1      -8.896  18.806  66.448  0.00  0.00    +0.213 C 
BRANCH  28  29
ATOM     29  C   UNL     1     -10.302  19.195  66.474  0.00  0.00    +0.385 C 
ATOM     30  O   UNL     1     -10.773  19.621  67.727  0.00  0.00    -0.244 OA
ATOM     31  O   UNL     1     -10.876  19.843  65.542  0.00  0.00    -0.244 OA
ENDBRANCH  28  29
ENDBRANCH   4  28
TORSDOF 10
ENDMDL
MODEL 4
REMARK VINA RESULT:      -7.4      1.794      5.641
REMARK  Name = 
REMARK  10 active torsions:
REMARK  status: ('A' for Active; 'I' for Inactive)
REMARK    1  A    between atoms: C_2  and  O_3
REMARK    2  A    between atoms: O_3  and  C_4
REMARK    3  A    between atoms: C_4  and  C_6
REMARK    4  A    between atoms: C_6  and  C_7
REMARK    5  A    between atoms: C_6  and  N_15
REMARK    6  A    between atoms: C_7  and  C_8
REMARK    7  A    between atoms: C_8  and  C_9
REMARK    8  A    between atoms: N_15  and  C_16
REMARK    9  A    between atoms: N_25  and  C_26
REMARK   10  A    between atoms: C_26  and  C_27
REMARK                            x       y       z     vdW  Elec       q    Type
REMARK                         _______ _______ _______ _____ _____    ______ ____
ROOT
ATOM      1  C   UNL     1     -11.453  12.823  67.649  0.00  0.00    +0.150 C 
ATOM      2  C   UNL     1     -11.778  13.691  68.960  0.00  0.00    +0.246 C 
ATOM      3  O   UNL     1     -11.302  14.793  69.053  0.00  0.00    -0.273 OA
ATOM      4  N   UNL     1     -12.121  13.099  70.223  0.00  0.00    -0.247 N 
ATOM      5  C   UNL     1     -12.122  11.699  70.533  0.00  0.00    +0.050 A 
ATOM      6  C   UNL     1     -11.499  10.650  69.866  0.00  0.00    -0.008 A 
ATOM      7  C   UNL     1     -11.362   9.438  70.486  0.00  0.00    -0.003 A 
ATOM      8  C   UNL     1     -12.112   9.226  71.627  0.00  0.00    -0.000 A 
ATOM      9  C   UNL     1     -13.028  10.163  72.075  0.00  0.00    +0.001 A 
ATOM     10  C   UNL     1     -10.678  10.716  68.617  0.00  0.00    +0.030 C 
ATOM     11  C   UNL     1     -13.174  11.343  71.367  0.00  0.00    +0.015 A 
ATOM     12  C   UNL     1     -10.146  12.120  68.367  0.00  0.00    +0.031 C 
ENDROOT
BRANCH   1  13
ATOM     13  N   UNL     1     -10.557  13.920  66.959  0.00  0.00    -0.201 NA
BRANCH  13  14
ATOM     14  C   UNL     1     -11.721  14.655  66.181  0.00  0.00    +0.172 C 
BRANCH  14  15
ATOM     15  C   UNL     1     -11.844  13.529  65.034  0.00  0.00    +0.333 C 
ATOM     16  O   UNL     1     -12.743  13.585  64.206  0.00  0.00    -0.249 OA
BRANCH  15  17
ATOM     17  O   UNL     1     -10.560  13.390  64.483  0.00  0.00    -0.448 OA
BRANCH  17  19
ATOM     18  C   UNL     1     -10.344  10.985  64.596  0.00  0.00    +0.051 C 
ATOM     19  C   UNL     1     -10.238  12.220  63.735  0.00  0.00    +0.209 C 
ENDBRANCH  17  19
ENDBRANCH  15  17
ENDBRANCH  14  15
BRANCH  14  20
ATOM     20  C   UNL     1     -10.638  15.565  65.345  0.00  0.00    +0.033 C 
BRANCH  20  21
ATOM     21  C   UNL     1      -9.575  16.016  66.265  0.00  0.00    +0.028 C 
BRANCH  21  22
ATOM     22  C   UNL     1      -9.954  17.362  66.743  0.00  0.00    -0.022 A 
ATOM     23  C   UNL     1      -9.819  17.733  68.073  0.00  0.00    -0.004 A 
ATOM     24  C   UNL     1      -9.751  19.075  68.376  0.00  0.00    -0.000 A 
ATOM     25  C   UNL     1     -10.085  20.059  67.481  0.00  0.00    -0.000 A 
ATOM     26  C   UNL     1     -10.434  19.676  66.195  0.00  0.00    -0.000 A 
ATOM     27  C   UNL     1     -10.483  18.322  65.891  0.00  0.00    -0.004 A 
ENDBRANCH  21  22
ENDBRANCH  20  21
ENDBRANCH  14  20
ENDBRANCH  13  14
ENDBRANCH   1  13
BRANCH   4  28
ATOM     28  C   UNL     1     -13.038  13.925  70.912  0.00  0.00    +0.213 C 
BRANCH  28  29
ATOM     29  C   UNL     1     -12.566  14.697  72.056  0.00  0.00    +0.385 C 
ATOM     30  O   UNL     1     -13.161  14.357  73.283  0.00  0.00    -0.244 OA
ATOM     31  O   UNL     1     -11.353  15.035  72.233  0.00  0.00    -0.244 OA
ENDBRANCH  28  29
ENDBRANCH   4  28
TORSDOF 10
ENDMDL
MODEL 5
REMARK VINA RESULT:      -7.3      2.699      6.961
REMARK  Name = 
REMARK  10 active torsions:
REMARK  status: ('A' for Active; 'I' for Inactive)
REMARK    1  A    between atoms: C_2  and  O_3
REMARK    2  A    between atoms: O_3  and  C_4
REMARK    3  A    between atoms: C_4  and  C_6
REMARK    4  A    between atoms: C_6  and  C_7
REMARK    5  A    between atoms: C_6  and  N_15
REMARK    6  A    between atoms: C_7  and  C_8
REMARK    7  A    between atoms: C_8  and  C_9
REMARK    8  A    between atoms: N_15  and  C_16
REMARK    9  A    between atoms: N_25  and  C_26
REMARK   10  A    between atoms: C_26  and  C_27
REMARK                            x       y       z     vdW  Elec       q    Type
REMARK                         _______ _______ _______ _____ _____    ______ ____
ROOT
ATOM      1  C   UNL     1     -10.264  15.817  67.424  0.00  0.00    +0.150 C 
ATOM      2  C   UNL     1      -9.711  17.058  66.569  0.00  0.00    +0.246 C 
ATOM      3  O   UNL     1      -9.940  17.091  65.388  0.00  0.00    -0.273 OA
ATOM      4  N   UNL     1      -8.558  17.822  66.957  0.00  0.00    -0.247 N 
ATOM      5  C   UNL     1      -7.688  17.544  68.063  0.00  0.00    +0.050 A 
ATOM      6  C   UNL     1      -7.524  16.363  68.779  0.00  0.00    -0.008 A 
ATOM      7  C   UNL     1      -6.434  16.207  69.589  0.00  0.00    -0.003 A 
ATOM      8  C   UNL     1      -5.703  17.341  69.889  0.00  0.00    -0.000 A 
ATOM      9  C   UNL     1      -6.107  18.595  69.462  0.00  0.00    +0.001 A 
ATOM     10  C   UNL     1      -8.250  15.069  68.590  0.00  0.00    +0.030 C 
ATOM     11  C   UNL     1      -7.260  18.701  68.702  0.00  0.00    +0.015 A 
ATOM     12  C   UNL     1      -8.869  14.968  67.203  0.00  0.00    +0.031 C 
ENDROOT
BRANCH   1  13
ATOM     13  N   UNL     1     -10.964  15.097  66.210  0.00  0.00    -0.201 NA
BRANCH  13  14
ATOM     14  C   UNL     1     -11.115  13.678  66.890  0.00  0.00    +0.172 C 
BRANCH  14  15
ATOM     15  C   UNL     1     -12.457  13.289  66.088  0.00  0.00    +0.333 C 
ATOM     16  O   UNL     1     -13.041  14.127  65.415  0.00  0.00    -0.249 OA
BRANCH  15  17
ATOM     17  O   UNL     1     -12.172  12.097  65.404  0.00  0.00    -0.448 OA
BRANCH  17  19
ATOM     18  C   UNL     1     -10.645  12.061  63.530  0.00  0.00    +0.051 C 
ATOM     19  C   UNL     1     -12.085  12.105  63.981  0.00  0.00    +0.209 C 
ENDBRANCH  17  19
ENDBRANCH  15  17
ENDBRANCH  14  15
BRANCH  14  20
ATOM     20  C   UNL     1     -11.918  14.334  68.165  0.00  0.00    +0.033 C 
BRANCH  20  21
ATOM     21  C   UNL     1     -12.027  13.324  69.237  0.00  0.00    +0.028 C 
BRANCH  21  22
ATOM     22  C   UNL     1     -12.157  14.057  70.515  0.00  0.00    -0.022 A 
ATOM     23  C   UNL     1     -11.425  15.204  70.780  0.00  0.00    -0.004 A 
ATOM     24  C   UNL     1     -11.892  16.073  71.742  0.00  0.00    -0.000 A 
ATOM     25  C   UNL     1     -12.875  15.735  72.636  0.00  0.00    -0.000 A 
ATOM     26  C   UNL     1     -13.469  14.489  72.509  0.00  0.00    -0.000 A 
ATOM     27  C   UNL     1     -13.007  13.625  71.525  0.00  0.00    -0.004 A 
ENDBRANCH  21  22
ENDBRANCH  20  21
ENDBRANCH  14  20
ENDBRANCH  13  14
ENDBRANCH   1  13
BRANCH   4  28
ATOM     28  C   UNL     1      -8.717  19.172  66.571  0.00  0.00    +0.213 C 
BRANCH  28  29
ATOM     29  C   UNL     1      -9.952  19.863  66.924  0.00  0.00    +0.385 C 
ATOM     30  O   UNL     1     -10.812  20.125  65.844  0.00  0.00    -0.244 OA
ATOM     31  O   UNL     1     -10.625  19.621  67.976  0.00  0.00    -0.244 OA
ENDBRANCH  28  29
ENDBRANCH   4  28
TORSDOF 10
ENDMDL
MODEL 6
REMARK VINA RESULT:      -7.2      2.700      6.687
REMARK  Name = 
REMARK  10 active torsions:
REMARK  status: ('A' for Active; 'I' for Inactive)
REMARK    1  A    between atoms: C_2  and  O_3
REMARK    2  A    between atoms: O_3  and  C_4
REMARK    3  A    between atoms: C_4  and  C_6
REMARK    4  A    between atoms: C_6  and  C_7
REMARK    5  A    between atoms: C_6  and  N_15
REMARK    6  A    between atoms: C_7  and  C_8
REMARK    7  A    between atoms: C_8  and  C_9
REMARK    8  A    between atoms: N_15  and  C_16
REMARK    9  A    between atoms: N_25  and  C_26
REMARK   10  A    between atoms: C_26  and  C_27
REMARK                            x       y       z     vdW  Elec       q    Type
REMARK                         _______ _______ _______ _____ _____    ______ ____
ROOT
ATOM      1  C   UNL     1      -9.978  15.483  67.861  0.00  0.00    +0.150 C 
ATOM      2  C   UNL     1      -9.613  16.627  66.796  0.00  0.00    +0.246 C 
ATOM      3  O   UNL     1      -9.871  16.438  65.635  0.00  0.00    -0.273 OA
ATOM      4  N   UNL     1      -8.560  17.582  67.007  0.00  0.00    -0.247 N 
ATOM      5  C   UNL     1      -7.636  17.600  68.103  0.00  0.00    +0.050 A 
ATOM      6  C   UNL     1      -7.303  16.581  68.990  0.00  0.00    -0.008 A 
ATOM      7  C   UNL     1      -6.183  16.698  69.766  0.00  0.00    -0.003 A 
ATOM      8  C   UNL     1      -5.600  17.948  69.849  0.00  0.00    -0.000 A 
ATOM      9  C   UNL     1      -6.174  19.055  69.246  0.00  0.00    +0.001 A 
ATOM     10  C   UNL     1      -7.858  15.194  69.041  0.00  0.00    +0.030 C 
ATOM     11  C   UNL     1      -7.348  18.890  68.530  0.00  0.00    +0.015 A 
ATOM     12  C   UNL     1      -8.490  14.790  67.717  0.00  0.00    +0.031 C 
ENDROOT
BRANCH   1  13
ATOM     13  N   UNL     1     -10.607  14.492  66.809  0.00  0.00    -0.201 NA
BRANCH  13  14
ATOM     14  C   UNL     1     -10.731  13.245  67.772  0.00  0.00    +0.172 C 
BRANCH  14  15
ATOM     15  C   UNL     1     -11.786  12.462  66.839  0.00  0.00    +0.333 C 
ATOM     16  O   UNL     1     -11.622  12.411  65.627  0.00  0.00    -0.249 OA
BRANCH  15  17
ATOM     17  O   UNL     1     -11.994  11.213  67.445  0.00  0.00    -0.448 OA
BRANCH  17  19
ATOM     18  C   UNL     1     -10.998   9.891  69.207  0.00  0.00    +0.051 C 
ATOM     19  C   UNL     1     -10.873  10.404  67.793  0.00  0.00    +0.209 C 
ENDBRANCH  17  19
ENDBRANCH  15  17
ENDBRANCH  14  15
BRANCH  14  20
ATOM     20  C   UNL     1     -11.888  14.000  68.661  0.00  0.00    +0.033 C 
BRANCH  20  21
ATOM     21  C   UNL     1     -11.939  13.390  70.005  0.00  0.00    +0.028 C 
BRANCH  21  22
ATOM     22  C   UNL     1     -12.431  14.426  70.936  0.00  0.00    -0.022 A 
ATOM     23  C   UNL     1     -13.785  14.676  71.106  0.00  0.00    -0.004 A 
ATOM     24  C   UNL     1     -14.197  15.297  72.265  0.00  0.00    -0.000 A 
ATOM     25  C   UNL     1     -13.331  15.925  73.123  0.00  0.00    -0.000 A 
ATOM     26  C   UNL     1     -11.975  15.861  72.838  0.00  0.00    -0.000 A 
ATOM     27  C   UNL     1     -11.565  15.218  71.678  0.00  0.00    -0.004 A 
ENDBRANCH  21  22
ENDBRANCH  20  21
ENDBRANCH  14  20
ENDBRANCH  13  14
ENDBRANCH   1  13
BRANCH   4  28
ATOM     28  C   UNL     1      -8.904  18.820  66.417  0.00  0.00    +0.213 C 
BRANCH  28  29
ATOM     29  C   UNL     1     -10.291  19.264  66.473  0.00  0.00    +0.385 C 
ATOM     30  O   UNL     1     -10.718  19.709  67.736  0.00  0.00    -0.244 OA
ATOM     31  O   UNL     1     -10.860  19.935  65.554  0.00  0.00    -0.244 OA
ENDBRANCH  28  29
ENDBRANCH   4  28
TORSDOF 10
ENDMDL
MODEL 7
REMARK VINA RESULT:      -7.1      3.179      6.119
REMARK  Name = 
REMARK  10 active torsions:
REMARK  status: ('A' for Active; 'I' for Inactive)
REMARK    1  A    between atoms: C_2  and  O_3
REMARK    2  A    between atoms: O_3  and  C_4
REMARK    3  A    between atoms: C_4  and  C_6
REMARK    4  A    between atoms: C_6  and  C_7
REMARK    5  A    between atoms: C_6  and  N_15
REMARK    6  A    between atoms: C_7  and  C_8
REMARK    7  A    between atoms: C_8  and  C_9
REMARK    8  A    between atoms: N_15  and  C_16
REMARK    9  A    between atoms: N_25  and  C_26
REMARK   10  A    between atoms: C_26  and  C_27
REMARK                            x       y       z     vdW  Elec       q    Type
REMARK                         _______ _______ _______ _____ _____    ______ ____
ROOT
ATOM      1  C   UNL     1     -10.659  12.094  68.976  0.00  0.00    +0.150 C 
ATOM      2  C   UNL     1      -9.503  11.025  68.663  0.00  0.00    +0.246 C 
ATOM      3  O   UNL     1      -9.097  10.929  67.534  0.00  0.00    -0.273 OA
ATOM      4  N   UNL     1      -9.298   9.844  69.455  0.00  0.00    -0.247 N 
ATOM      5  C   UNL     1     -10.122   9.394  70.539  0.00  0.00    +0.050 A 
ATOM      6  C   UNL     1     -11.429   9.747  70.856  0.00  0.00    -0.008 A 
ATOM      7  C   UNL     1     -12.143   8.983  71.737  0.00  0.00    -0.003 A 
ATOM      8  C   UNL     1     -11.436   8.070  72.498  0.00  0.00    -0.000 A 
ATOM      9  C   UNL     1     -10.055   7.993  72.435  0.00  0.00    +0.001 A 
ATOM     10  C   UNL     1     -12.311  10.726  70.149  0.00  0.00    +0.030 C 
ATOM     11  C   UNL     1      -9.378   8.841  71.574  0.00  0.00    +0.015 A 
ATOM     12  C   UNL     1     -11.843  10.977  68.722  0.00  0.00    +0.031 C 
ENDROOT
BRANCH   1  13
ATOM     13  N   UNL     1     -10.770  12.634  67.499  0.00  0.00    -0.201 NA
BRANCH  13  14
ATOM     14  C   UNL     1     -12.056  13.526  67.718  0.00  0.00    +0.172 C 
BRANCH  14  15
ATOM     15  C   UNL     1     -11.870  14.361  66.352  0.00  0.00    +0.333 C 
ATOM     16  O   UNL     1     -10.755  14.704  65.983  0.00  0.00    -0.249 OA
BRANCH  15  17
ATOM     17  O   UNL     1     -12.618  13.685  65.375  0.00  0.00    -0.448 OA
BRANCH  17  19
ATOM     18  C   UNL     1     -12.229  12.101  63.591  0.00  0.00    +0.051 C 
ATOM     19  C   UNL     1     -12.084  13.527  64.063  0.00  0.00    +0.209 C 
ENDBRANCH  17  19
ENDBRANCH  15  17
ENDBRANCH  14  15
BRANCH  14  20
ATOM     20  C   UNL     1     -11.205  14.594  68.632  0.00  0.00    +0.033 C 
BRANCH  20  21
ATOM     21  C   UNL     1     -12.133  15.594  69.196  0.00  0.00    +0.028 C 
BRANCH  21  22
ATOM     22  C   UNL     1     -12.266  15.302  70.639  0.00  0.00    -0.022 A 
ATOM     23  C   UNL     1     -11.672  16.098  71.606  0.00  0.00    -0.004 A 
ATOM     24  C   UNL     1     -12.178  16.062  72.887  0.00  0.00    -0.000 A 
ATOM     25  C   UNL     1     -13.043  15.090  73.319  0.00  0.00    -0.000 A 
ATOM     26  C   UNL     1     -13.478  14.150  72.397  0.00  0.00    -0.000 A 
ATOM     27  C   UNL     1     -12.978  14.203  71.103  0.00  0.00    -0.004 A 
ENDBRANCH  21  22
ENDBRANCH  20  21
ENDBRANCH  14  20
ENDBRANCH  13  14
ENDBRANCH   1  13
BRANCH   4  28
ATOM     28  C   UNL     1      -7.922   9.525  69.501  0.00  0.00    +0.213 C 
BRANCH  28  29
ATOM     29  C   UNL     1      -7.444   8.366  68.755  0.00  0.00    +0.385 C 
ATOM     30  O   UNL     1      -8.434   7.680  68.031  0.00  0.00    -0.244 OA
ATOM     31  O   UNL     1      -6.336   8.332  68.130  0.00  0.00    -0.244 OA
ENDBRANCH  28  29
ENDBRANCH   4  28
TORSDOF 10
ENDMDL
MODEL 8
REMARK VINA RESULT:      -7.0      3.015      4.975
REMARK  Name = 
REMARK  10 active torsions:
REMARK  status: ('A' for Active; 'I' for Inactive)
REMARK    1  A    between atoms: C_2  and  O_3
REMARK    2  A    between atoms: O_3  and  C_4
REMARK    3  A    between atoms: C_4  and  C_6
REMARK    4  A    between atoms: C_6  and  C_7
REMARK    5  A    between atoms: C_6  and  N_15
REMARK    6  A    between atoms: C_7  and  C_8
REMARK    7  A    between atoms: C_8  and  C_9
REMARK    8  A    between atoms: N_15  and  C_16
REMARK    9  A    between atoms: N_25  and  C_26
REMARK   10  A    between atoms: C_26  and  C_27
REMARK                            x       y       z     vdW  Elec       q    Type
REMARK                         _______ _______ _______ _____ _____    ______ ____
ROOT
ATOM      1  C   UNL     1     -10.119  10.500  67.172  0.00  0.00    +0.150 C 
ATOM      2  C   UNL     1     -10.943  11.439  66.164  0.00  0.00    +0.246 C 
ATOM      3  O   UNL     1     -12.073  11.738  66.449  0.00  0.00    -0.273 OA
ATOM      4  N   UNL     1     -10.663  11.507  64.756  0.00  0.00    -0.247 N 
ATOM      5  C   UNL     1      -9.717  10.703  64.038  0.00  0.00    +0.050 A 
ATOM      6  C   UNL     1      -9.127   9.498  64.406  0.00  0.00    -0.008 A 
ATOM      7  C   UNL     1      -8.495   8.737  63.462  0.00  0.00    -0.003 A 
ATOM      8  C   UNL     1      -8.213   9.340  62.251  0.00  0.00    -0.000 A 
ATOM      9  C   UNL     1      -8.478  10.682  62.032  0.00  0.00    +0.001 A 
ATOM     10  C   UNL     1      -9.314   8.739  65.681  0.00  0.00    +0.030 C 
ATOM     11  C   UNL     1      -9.056  11.421  63.050  0.00  0.00    +0.015 A 
ATOM     12  C   UNL     1     -10.602   9.133  66.388  0.00  0.00    +0.031 C 
ENDROOT
BRANCH   1  13
ATOM     13  N   UNL     1     -11.275  10.369  68.236  0.00  0.00    -0.201 NA
BRANCH  13  14
ATOM     14  C   UNL     1     -10.506  11.051  69.437  0.00  0.00    +0.172 C 
BRANCH  14  15
ATOM     15  C   UNL     1     -10.779   9.844  70.470  0.00  0.00    +0.333 C 
ATOM     16  O   UNL     1     -11.755   9.870  71.208  0.00  0.00    -0.249 OA
BRANCH  15  17
ATOM     17  O   UNL     1     -10.648   8.659  69.729  0.00  0.00    -0.448 OA
BRANCH  17  19
ATOM     18  C   UNL     1     -11.610   6.516  70.301  0.00  0.00    +0.051 C 
ATOM     19  C   UNL     1     -10.412   7.427  70.408  0.00  0.00    +0.209 C 
ENDBRANCH  17  19
ENDBRANCH  15  17
ENDBRANCH  14  15
BRANCH  14  20
ATOM     20  C   UNL     1     -11.851  11.891  69.869  0.00  0.00    +0.033 C 
BRANCH  20  21
ATOM     21  C   UNL     1     -11.663  13.313  69.523  0.00  0.00    +0.028 C 
BRANCH  21  22
ATOM     22  C   UNL     1     -12.196  14.110  70.648  0.00  0.00    -0.022 A 
ATOM     23  C   UNL     1     -13.136  13.598  71.529  0.00  0.00    -0.004 A 
ATOM     24  C   UNL     1     -13.255  14.179  72.773  0.00  0.00    -0.000 A 
ATOM     25  C   UNL     1     -12.702  15.395  73.083  0.00  0.00    -0.000 A 
ATOM     26  C   UNL     1     -11.929  16.022  72.117  0.00  0.00    -0.000 A 
ATOM     27  C   UNL     1     -11.798  15.421  70.872  0.00  0.00    -0.004 A 
ENDBRANCH  21  22
ENDBRANCH  20  21
ENDBRANCH  14  20
ENDBRANCH  13  14
ENDBRANCH   1  13
BRANCH   4  28
ATOM     28  C   UNL     1     -10.915  12.812  64.275  0.00  0.00    +0.213 C 
BRANCH  28  29
ATOM     29  C   UNL     1     -12.086  13.038  63.437  0.00  0.00    +0.385 C 
ATOM     30  O   UNL     1     -12.943  11.931  63.308  0.00  0.00    -0.244 OA
ATOM     31  O   UNL     1     -12.757  14.119  63.431  0.00  0.00    -0.244 OA
ENDBRANCH  28  29
ENDBRANCH   4  28
TORSDOF 10
ENDMDL
MODEL 9
REMARK VINA RESULT:      -6.9      2.735      5.680
REMARK  Name = 
REMARK  10 active torsions:
REMARK  status: ('A' for Active; 'I' for Inactive)
REMARK    1  A    between atoms: C_2  and  O_3
REMARK    2  A    between atoms: O_3  and  C_4
REMARK    3  A    between atoms: C_4  and  C_6
REMARK    4  A    between atoms: C_6  and  C_7
REMARK    5  A    between atoms: C_6  and  N_15
REMARK    6  A    between atoms: C_7  and  C_8
REMARK    7  A    between atoms: C_8  and  C_9
REMARK    8  A    between atoms: N_15  and  C_16
REMARK    9  A    between atoms: N_25  and  C_26
REMARK   10  A    between atoms: C_26  and  C_27
REMARK                            x       y       z     vdW  Elec       q    Type
REMARK                         _______ _______ _______ _____ _____    ______ ____
ROOT
ATOM      1  C   UNL     1      -9.994  14.764  68.568  0.00  0.00    +0.150 C 
ATOM      2  C   UNL     1     -10.860  13.461  68.206  0.00  0.00    +0.246 C 
ATOM      3  O   UNL     1     -10.993  13.161  67.048  0.00  0.00    -0.273 OA
ATOM      4  N   UNL     1     -11.897  12.952  69.059  0.00  0.00    -0.247 N 
ATOM      5  C   UNL     1     -12.380  13.559  70.265  0.00  0.00    +0.050 A 
ATOM      6  C   UNL     1     -12.242  14.871  70.706  0.00  0.00    -0.008 A 
ATOM      7  C   UNL     1     -13.032  15.331  71.724  0.00  0.00    -0.003 A 
ATOM      8  C   UNL     1     -13.718  14.387  72.465  0.00  0.00    -0.000 A 
ATOM      9  C   UNL     1     -13.547  13.031  72.245  0.00  0.00    +0.001 A 
ATOM     10  C   UNL     1     -11.517  15.992  70.032  0.00  0.00    +0.030 C 
ATOM     11  C   UNL     1     -12.680  12.622  71.245  0.00  0.00    +0.015 A 
ATOM     12  C   UNL     1     -11.329  15.730  68.545  0.00  0.00    +0.031 C 
ENDROOT
BRANCH   1  13
ATOM     13  N   UNL     1      -9.635  15.126  67.076  0.00  0.00    -0.201 NA
BRANCH  13  14
ATOM     14  C   UNL     1      -9.356  16.663  67.314  0.00  0.00    +0.172 C 
BRANCH  14  15
ATOM     15  C   UNL     1      -9.749  17.102  65.815  0.00  0.00    +0.333 C 
ATOM     16  O   UNL     1     -10.486  16.398  65.136  0.00  0.00    -0.249 OA
BRANCH  15  17
ATOM     17  O   UNL     1     -10.147  18.446  65.892  0.00  0.00    -0.448 OA
BRANCH  17  19
ATOM     18  C   UNL     1      -9.915  20.367  67.341  0.00  0.00    +0.051 C 
ATOM     19  C   UNL     1     -10.522  18.998  67.152  0.00  0.00    +0.209 C 
ENDBRANCH  17  19
ENDBRANCH  15  17
ENDBRANCH  14  15
BRANCH  14  20
ATOM     20  C   UNL     1      -7.762  16.465  66.972  0.00  0.00    +0.033 C 
BRANCH  20  21
ATOM     21  C   UNL     1      -6.960  16.929  68.121  0.00  0.00    +0.028 C 
BRANCH  21  22
ATOM     22  C   UNL     1      -6.773  18.387  67.963  0.00  0.00    -0.022 A 
ATOM     23  C   UNL     1      -6.819  19.254  69.044  0.00  0.00    -0.004 A 
ATOM     24  C   UNL     1      -6.210  20.484  68.925  0.00  0.00    -0.000 A 
ATOM     25  C   UNL     1      -5.809  21.004  67.721  0.00  0.00    -0.000 A 
ATOM     26  C   UNL     1      -5.960  20.215  66.590  0.00  0.00    -0.000 A 
ATOM     27  C   UNL     1      -6.558  18.968  66.720  0.00  0.00    -0.004 A 
ENDBRANCH  21  22
ENDBRANCH  20  21
ENDBRANCH  14  20
ENDBRANCH  13  14
ENDBRANCH   1  13
BRANCH   4  28
ATOM     28  C   UNL     1     -11.953  11.543  68.966  0.00  0.00    +0.213 C 
BRANCH  28  29
ATOM     29  C   UNL     1     -10.707  10.786  69.000  0.00  0.00    +0.385 C 
ATOM     30  O   UNL     1     -10.413  10.187  70.236  0.00  0.00    -0.244 OA
ATOM     31  O   UNL     1     -10.296  10.052  68.045  0.00  0.00    -0.244 OA
ENDBRANCH  28  29
ENDBRANCH   4  28
TORSDOF 10
ENDMDL
