MODEL 1
REMARK VINA RESULT:      -8.0      0.000      0.000
REMARK  Name = 
REMARK  4 active torsions:
REMARK  status: ('A' for Active; 'I' for Inactive)
REMARK    1  A    between atoms: C_2  and  C_3
REMARK    2  A    between atoms: C_8  and  C_9
REMARK    3  A    between atoms: C_11  and  C_12
REMARK    4  A    between atoms: N_19  and  C_20
REMARK                            x       y       z     vdW  Elec       q    Type
REMARK                         _______ _______ _______ _____ _____    ______ ____
ROOT
ATOM      1  C   UNL     1     -11.356  12.692  68.041  0.00  0.00    +0.057 A 
ATOM      2  C   UNL     1     -12.148  13.558  68.785  0.00  0.00    +0.265 A 
ATOM      3  O   UNL     1     -12.153  14.765  68.395  0.00  0.00    -0.267 OA
ATOM      4  N   UNL     1     -12.461  13.353  70.069  0.00  0.00    -0.273 N 
ATOM      5  C   UNL     1     -12.281  12.104  70.563  0.00  0.00    +0.084 A 
ATOM      6  C   UNL     1     -11.780  11.072  69.778  0.00  0.00    +0.035 A 
ATOM      7  C   UNL     1     -11.336  11.379  68.497  0.00  0.00    +0.008 A 
ENDROOT
BRANCH   1   9
ATOM      8  C   UNL     1     -10.801  13.683  65.887  0.00  0.00    +0.069 A 
ATOM      9  C   UNL     1     -10.342  13.194  67.098  0.00  0.00    +0.014 A 
ATOM     10  C   UNL     1      -9.244  13.850  67.632  0.00  0.00    +0.001 A 
ATOM     11  C   UNL     1      -8.699  14.990  67.055  0.00  0.00    +0.000 A 
ATOM     12  C   UNL     1      -9.288  15.533  65.927  0.00  0.00    +0.001 A 
ATOM     13  C   UNL     1     -10.203  14.761  65.246  0.00  0.00    +0.010 A 
BRANCH   8  15
ATOM     14  N   UNL     1     -12.865  12.554  64.822  0.00  0.00    -0.191 NA
ATOM     15  C   UNL     1     -11.888  12.952  65.281  0.00  0.00    +0.100 C 
ENDBRANCH   8  15
ENDBRANCH   1   9
BRANCH   4  16
ATOM     16  C   UNL     1     -12.608  14.435  70.996  0.00  0.00    +0.067 A 
ATOM     17  C   UNL     1     -11.541  14.924  71.691  0.00  0.00    +0.018 A 
ATOM     18  C   UNL     1     -11.784  15.986  72.553  0.00  0.00    +0.001 A 
ATOM     19  C   UNL     1     -13.045  16.176  73.090  0.00  0.00    +0.000 A 
ATOM     20  C   UNL     1     -14.081  15.379  72.634  0.00  0.00    +0.001 A 
ATOM     21  C   UNL     1     -13.893  14.753  71.407  0.00  0.00    +0.018 A 
ENDBRANCH   4  16
BRANCH   6  22
ATOM     22  C   UNL     1     -11.265   9.905  70.503  0.00  0.00    +0.083 A 
ATOM     23  N   UNL     1      -9.944   9.665  70.354  0.00  0.00    -0.244 NA
ATOM     24  C   UNL     1      -9.299   8.919  71.279  0.00  0.00    +0.099 A 
ATOM     25  C   UNL     1      -9.995   8.013  72.058  0.00  0.00    +0.021 A 
ATOM     26  C   UNL     1     -11.331   8.298  72.295  0.00  0.00    +0.003 A 
ATOM     27  C   UNL     1     -11.913   9.309  71.545  0.00  0.00    +0.019 A 
ENDBRANCH   6  22
TORSDOF 4
ENDMDL
MODEL 2
REMARK VINA RESULT:      -8.0      1.862      2.785
REMARK  Name = 
REMARK  4 active torsions:
REMARK  status: ('A' for Active; 'I' for Inactive)
REMARK    1  A    between atoms: C_2  and  C_3
REMARK    2  A    between atoms: C_8  and  C_9
REMARK    3  A    between atoms: C_11  and  C_12
REMARK    4  A    between atoms: N_19  and  C_20
REMARK                            x       y       z     vdW  Elec       q    Type
REMARK                         _______ _______ _______ _____ _____    ______ ____
ROOT
ATOM      1  C   UNL     1     -10.585  15.084  67.570  0.00  0.00    +0.057 A 
ATOM      2  C   UNL     1     -11.536  15.513  68.489  0.00  0.00    +0.265 A 
ATOM      3  O   UNL     1     -11.513  16.751  68.763  0.00  0.00    -0.267 OA
ATOM      4  N   UNL     1     -12.079  14.715  69.416  0.00  0.00    -0.273 N 
ATOM      5  C   UNL     1     -11.949  13.378  69.241  0.00  0.00    +0.084 A 
ATOM      6  C   UNL     1     -11.269  12.845  68.152  0.00  0.00    +0.035 A 
ATOM      7  C   UNL     1     -10.602  13.721  67.303  0.00  0.00    +0.008 A 
ENDROOT
BRANCH   1   9
ATOM      8  C   UNL     1      -9.668  16.977  66.342  0.00  0.00    +0.069 A 
ATOM      9  C   UNL     1      -9.430  15.925  67.209  0.00  0.00    +0.014 A 
ATOM     10  C   UNL     1      -8.481  16.160  68.191  0.00  0.00    +0.001 A 
ATOM     11  C   UNL     1      -7.882  17.400  68.371  0.00  0.00    +0.000 A 
ATOM     12  C   UNL     1      -8.265  18.467  67.578  0.00  0.00    +0.001 A 
ATOM     13  C   UNL     1      -9.002  18.191  66.447  0.00  0.00    +0.010 A 
BRANCH   8  15
ATOM     14  N   UNL     1     -11.282  16.702  64.345  0.00  0.00    -0.191 NA
ATOM     15  C   UNL     1     -10.591  16.711  65.264  0.00  0.00    +0.100 C 
ENDBRANCH   8  15
ENDBRANCH   1   9
BRANCH   4  16
ATOM     16  C   UNL     1     -12.440  15.199  70.715  0.00  0.00    +0.067 A 
ATOM     17  C   UNL     1     -11.522  15.282  71.721  0.00  0.00    +0.018 A 
ATOM     18  C   UNL     1     -11.967  15.781  72.940  0.00  0.00    +0.001 A 
ATOM     19  C   UNL     1     -13.302  15.679  73.290  0.00  0.00    +0.000 A 
ATOM     20  C   UNL     1     -14.197  15.211  72.344  0.00  0.00    +0.001 A 
ATOM     21  C   UNL     1     -13.791  15.271  71.016  0.00  0.00    +0.018 A 
ENDBRANCH   4  16
BRANCH   6  22
ATOM     22  C   UNL     1     -10.857  11.442  68.276  0.00  0.00    +0.083 A 
ATOM     23  N   UNL     1     -10.871  10.941  69.530  0.00  0.00    -0.244 NA
ATOM     24  C   UNL     1     -10.934   9.602  69.706  0.00  0.00    +0.099 A 
ATOM     25  C   UNL     1     -10.495   8.743  68.715  0.00  0.00    +0.021 A 
ATOM     26  C   UNL     1     -10.563   9.214  67.413  0.00  0.00    +0.003 A 
ATOM     27  C   UNL     1     -10.823  10.564  67.233  0.00  0.00    +0.019 A 
ENDBRANCH   6  22
TORSDOF 4
ENDMDL
MODEL 3
REMARK VINA RESULT:      -8.0      3.052      5.386
REMARK  Name = 
REMARK  4 active torsions:
REMARK  status: ('A' for Active; 'I' for Inactive)
REMARK    1  A    between atoms: C_2  and  C_3
REMARK    2  A    between atoms: C_8  and  C_9
REMARK    3  A    between atoms: C_11  and  C_12
REMARK    4  A    between atoms: N_19  and  C_20
REMARK                            x       y       z     vdW  Elec       q    Type
REMARK                         _______ _______ _______ _____ _____    ______ ____
ROOT
ATOM      1  C   UNL     1     -10.932  14.221  67.277  0.00  0.00    +0.057 A 
ATOM      2  C   UNL     1     -10.748  15.534  66.860  0.00  0.00    +0.265 A 
ATOM      3  O   UNL     1     -10.051  15.681  65.810  0.00  0.00    -0.267 OA
ATOM      4  N   UNL     1     -10.797  16.584  67.686  0.00  0.00    -0.273 N 
ATOM      5  C   UNL     1     -11.372  16.397  68.899  0.00  0.00    +0.084 A 
ATOM      6  C   UNL     1     -11.883  15.163  69.284  0.00  0.00    +0.035 A 
ATOM      7  C   UNL     1     -11.672  14.076  68.444  0.00  0.00    +0.008 A 
ENDROOT
BRANCH   1   9
ATOM      8  C   UNL     1      -9.045  12.702  67.534  0.00  0.00    +0.069 A 
ATOM      9  C   UNL     1     -10.105  13.122  66.749  0.00  0.00    +0.014 A 
ATOM     10  C   UNL     1     -10.750  12.126  66.031  0.00  0.00    +0.001 A 
ATOM     11  C   UNL     1     -10.433  10.781  66.167  0.00  0.00    +0.000 A 
ATOM     12  C   UNL     1      -9.469  10.394  67.080  0.00  0.00    +0.001 A 
ATOM     13  C   UNL     1      -8.651  11.372  67.601  0.00  0.00    +0.010 A 
BRANCH   8  15
ATOM     14  N   UNL     1      -7.791  14.470  68.939  0.00  0.00    -0.191 NA
ATOM     15  C   UNL     1      -8.314  13.744  68.216  0.00  0.00    +0.100 C 
ENDBRANCH   8  15
ENDBRANCH   1   9
BRANCH   4  16
ATOM     16  C   UNL     1      -9.967  17.736  67.498  0.00  0.00    +0.067 A 
ATOM     17  C   UNL     1      -8.771  17.862  68.144  0.00  0.00    +0.018 A 
ATOM     18  C   UNL     1      -8.032  19.009  67.882  0.00  0.00    +0.001 A 
ATOM     19  C   UNL     1      -8.663  20.166  67.461  0.00  0.00    +0.000 A 
ATOM     20  C   UNL     1     -10.014  20.109  67.167  0.00  0.00    +0.001 A 
ATOM     21  C   UNL     1     -10.544  18.850  66.910  0.00  0.00    +0.018 A 
ENDBRANCH   4  16
BRANCH   6  22
ATOM     22  C   UNL     1     -12.109  14.982  70.723  0.00  0.00    +0.083 A 
ATOM     23  N   UNL     1     -11.664  15.984  71.511  0.00  0.00    -0.244 NA
ATOM     24  C   UNL     1     -12.184  16.130  72.750  0.00  0.00    +0.099 A 
ATOM     25  C   UNL     1     -12.753  15.052  73.404  0.00  0.00    +0.021 A 
ATOM     26  C   UNL     1     -13.296  14.059  72.603  0.00  0.00    +0.003 A 
ATOM     27  C   UNL     1     -13.010  14.103  71.247  0.00  0.00    +0.019 A 
ENDBRANCH   6  22
TORSDOF 4
ENDMDL
MODEL 4
REMARK VINA RESULT:      -7.9      2.855      6.097
REMARK  Name = 
REMARK  4 active torsions:
REMARK  status: ('A' for Active; 'I' for Inactive)
REMARK    1  A    between atoms: C_2  and  C_3
REMARK    2  A    between atoms: C_8  and  C_9
REMARK    3  A    between atoms: C_11  and  C_12
REMARK    4  A    between atoms: N_19  and  C_20
REMARK                            x       y       z     vdW  Elec       q    Type
REMARK                         _______ _______ _______ _____ _____    ______ ____
ROOT
ATOM      1  C   UNL     1      -9.797  16.320  68.359  0.00  0.00    +0.057 A 
ATOM      2  C   UNL     1      -9.663  15.396  67.329  0.00  0.00    +0.265 A 
ATOM      3  O   UNL     1      -9.086  15.823  66.283  0.00  0.00    -0.267 OA
ATOM      4  N   UNL     1     -10.480  14.350  67.165  0.00  0.00    -0.273 N 
ATOM      5  C   UNL     1     -11.253  13.991  68.219  0.00  0.00    +0.084 A 
ATOM      6  C   UNL     1     -11.215  14.684  69.423  0.00  0.00    +0.035 A 
ATOM      7  C   UNL     1     -10.458  15.848  69.486  0.00  0.00    +0.008 A 
ENDROOT
BRANCH   1   9
ATOM      8  C   UNL     1      -8.296  18.199  67.969  0.00  0.00    +0.069 A 
ATOM      9  C   UNL     1      -9.600  17.762  68.130  0.00  0.00    +0.014 A 
ATOM     10  C   UNL     1     -10.551  18.422  67.367  0.00  0.00    +0.001 A 
ATOM     11  C   UNL     1     -10.217  19.384  66.422  0.00  0.00    +0.000 A 
ATOM     12  C   UNL     1      -8.886  19.678  66.187  0.00  0.00    +0.001 A 
ATOM     13  C   UNL     1      -7.959  19.230  67.102  0.00  0.00    +0.010 A 
BRANCH   8  15
ATOM     14  N   UNL     1      -6.390  17.217  69.409  0.00  0.00    -0.191 NA
ATOM     15  C   UNL     1      -7.313  17.576  68.824  0.00  0.00    +0.100 C 
ENDBRANCH   8  15
ENDBRANCH   1   9
BRANCH   4  16
ATOM     16  C   UNL     1     -10.831  13.859  65.866  0.00  0.00    +0.067 A 
ATOM     17  C   UNL     1     -11.954  14.293  65.224  0.00  0.00    +0.018 A 
ATOM     18  C   UNL     1     -12.199  13.769  63.960  0.00  0.00    +0.001 A 
ATOM     19  C   UNL     1     -11.690  12.531  63.606  0.00  0.00    +0.000 A 
ATOM     20  C   UNL     1     -10.817  11.905  64.479  0.00  0.00    +0.001 A 
ATOM     21  C   UNL     1     -10.193  12.711  65.424  0.00  0.00    +0.018 A 
ENDBRANCH   4  16
BRANCH   6  22
ATOM     22  C   UNL     1     -12.350  14.464  70.327  0.00  0.00    +0.083 A 
ATOM     23  N   UNL     1     -12.477  13.209  70.806  0.00  0.00    -0.244 NA
ATOM     24  C   UNL     1     -13.186  13.001  71.938  0.00  0.00    +0.099 A 
ATOM     25  C   UNL     1     -14.164  13.899  72.327  0.00  0.00    +0.021 A 
ATOM     26  C   UNL     1     -13.996  15.213  71.917  0.00  0.00    +0.003 A 
ATOM     27  C   UNL     1     -13.021  15.467  70.964  0.00  0.00    +0.019 A 
ENDBRANCH   6  22
TORSDOF 4
ENDMDL
MODEL 5
REMARK VINA RESULT:      -7.9      3.050      5.381
REMARK  Name = 
REMARK  4 active torsions:
REMARK  status: ('A' for Active; 'I' for Inactive)
REMARK    1  A    between atoms: C_2  and  C_3
REMARK    2  A    between atoms: C_8  and  C_9
REMARK    3  A    between atoms: C_11  and  C_12
REMARK    4  A    between atoms: N_19  and  C_20
REMARK                            x       y       z     vdW  Elec       q    Type
REMARK                         _______ _______ _______ _____ _____    ______ ____
ROOT
ATOM      1  C   UNL     1     -10.783  15.115  66.533  0.00  0.00    +0.057 A 
ATOM      2  C   UNL     1     -10.041  16.281  66.675  0.00  0.00    +0.265 A 
ATOM      3  O   UNL     1      -9.173  16.490  65.774  0.00  0.00    -0.267 OA
ATOM      4  N   UNL     1      -9.823  16.878  67.852  0.00  0.00    -0.273 N 
ATOM      5  C   UNL     1     -10.624  16.527  68.887  0.00  0.00    +0.084 A 
ATOM      6  C   UNL     1     -11.627  15.575  68.746  0.00  0.00    +0.035 A 
ATOM      7  C   UNL     1     -11.709  14.884  67.543  0.00  0.00    +0.008 A 
ENDROOT
BRANCH   1   9
ATOM      8  C   UNL     1      -9.773  12.928  66.179  0.00  0.00    +0.069 A 
ATOM      9  C   UNL     1     -10.365  14.044  65.613  0.00  0.00    +0.014 A 
ATOM     10  C   UNL     1     -11.167  13.801  64.508  0.00  0.00    +0.001 A 
ATOM     11  C   UNL     1     -11.453  12.519  64.058  0.00  0.00    +0.000 A 
ATOM     12  C   UNL     1     -10.963  11.425  64.750  0.00  0.00    +0.001 A 
ATOM     13  C   UNL     1      -9.968  11.648  65.677  0.00  0.00    +0.010 A 
BRANCH   8  15
ATOM     14  N   UNL     1      -8.322  13.366  68.270  0.00  0.00    -0.191 NA
ATOM     15  C   UNL     1      -8.867  13.181  67.274  0.00  0.00    +0.100 C 
ENDBRANCH   8  15
ENDBRANCH   1   9
BRANCH   4  16
ATOM     16  C   UNL     1      -8.596  17.557  68.143  0.00  0.00    +0.067 A 
ATOM     17  C   UNL     1      -7.568  16.922  68.777  0.00  0.00    +0.018 A 
ATOM     18  C   UNL     1      -6.412  17.662  68.998  0.00  0.00    +0.001 A 
ATOM     19  C   UNL     1      -6.471  19.041  69.086  0.00  0.00    +0.000 A 
ATOM     20  C   UNL     1      -7.673  19.667  68.802  0.00  0.00    +0.001 A 
ATOM     21  C   UNL     1      -8.596  18.940  68.060  0.00  0.00    +0.018 A 
ENDBRANCH   4  16
BRANCH   6  22
ATOM     22  C   UNL     1     -12.147  15.000  69.992  0.00  0.00    +0.083 A 
ATOM     23  N   UNL     1     -12.894  15.832  70.749  0.00  0.00    -0.244 NA
ATOM     24  C   UNL     1     -13.752  15.311  71.654  0.00  0.00    +0.099 A 
ATOM     25  C   UNL     1     -13.542  14.046  72.171  0.00  0.00    +0.021 A 
ATOM     26  C   UNL     1     -12.856  13.152  71.364  0.00  0.00    +0.003 A 
ATOM     27  C   UNL     1     -12.231  13.660  70.235  0.00  0.00    +0.019 A 
ENDBRANCH   6  22
TORSDOF 4
ENDMDL
MODEL 6
REMARK VINA RESULT:      -7.6      2.972      5.312
REMARK  Name = 
REMARK  4 active torsions:
REMARK  status: ('A' for Active; 'I' for Inactive)
REMARK    1  A    between atoms: C_2  and  C_3
REMARK    2  A    between atoms: C_8  and  C_9
REMARK    3  A    between atoms: C_11  and  C_12
REMARK    4  A    between atoms: N_19  and  C_20
REMARK                            x       y       z     vdW  Elec       q    Type
REMARK                         _______ _______ _______ _____ _____    ______ ____
ROOT
ATOM      1  C   UNL     1     -11.177  14.008  67.501  0.00  0.00    +0.057 A 
ATOM      2  C   UNL     1     -10.472  15.100  67.009  0.00  0.00    +0.265 A 
ATOM      3  O   UNL     1      -9.628  14.840  66.099  0.00  0.00    -0.267 OA
ATOM      4  N   UNL     1     -10.253  16.215  67.715  0.00  0.00    -0.273 N 
ATOM      5  C   UNL     1     -11.022  16.422  68.811  0.00  0.00    +0.084 A 
ATOM      6  C   UNL     1     -11.995  15.510  69.204  0.00  0.00    +0.035 A 
ATOM      7  C   UNL     1     -12.077  14.303  68.519  0.00  0.00    +0.008 A 
ENDROOT
BRANCH   1   9
ATOM      8  C   UNL     1     -10.925  12.145  65.953  0.00  0.00    +0.069 A 
ATOM      9  C   UNL     1     -10.740  12.627  67.238  0.00  0.00    +0.014 A 
ATOM     10  C   UNL     1      -9.595  12.185  67.883  0.00  0.00    +0.001 A 
ATOM     11  C   UNL     1      -8.636  11.401  67.255  0.00  0.00    +0.000 A 
ATOM     12  C   UNL     1      -8.789  11.072  65.920  0.00  0.00    +0.001 A 
ATOM     13  C   UNL     1     -10.025  11.278  65.347  0.00  0.00    +0.010 A 
BRANCH   8  15
ATOM     14  N   UNL     1     -13.121  12.646  64.689  0.00  0.00    -0.191 NA
ATOM     15  C   UNL     1     -12.157  12.529  65.306  0.00  0.00    +0.100 C 
ENDBRANCH   8  15
ENDBRANCH   1   9
BRANCH   4  16
ATOM     16  C   UNL     1      -9.044  16.971  67.581  0.00  0.00    +0.067 A 
ATOM     17  C   UNL     1      -7.976  16.752  68.403  0.00  0.00    +0.018 A 
ATOM     18  C   UNL     1      -6.843  17.526  68.183  0.00  0.00    +0.001 A 
ATOM     19  C   UNL     1      -6.950  18.767  67.580  0.00  0.00    +0.000 A 
ATOM     20  C   UNL     1      -8.181  19.148  67.074  0.00  0.00    +0.001 A 
ATOM     21  C   UNL     1      -9.096  18.132  66.826  0.00  0.00    +0.018 A 
ENDBRANCH   4  16
BRANCH   6  22
ATOM     22  C   UNL     1     -12.473  15.636  70.586  0.00  0.00    +0.083 A 
ATOM     23  N   UNL     1     -13.571  14.911  70.889  0.00  0.00    -0.244 NA
ATOM     24  C   UNL     1     -13.831  14.615  72.182  0.00  0.00    +0.099 A 
ATOM     25  C   UNL     1     -13.329  15.408  73.198  0.00  0.00    +0.021 A 
ATOM     26  C   UNL     1     -12.150  16.085  72.929  0.00  0.00    +0.003 A 
ATOM     27  C   UNL     1     -11.712  16.112  71.613  0.00  0.00    +0.019 A 
ENDBRANCH   6  22
TORSDOF 4
ENDMDL
MODEL 7
REMARK VINA RESULT:      -7.4      3.420      6.076
REMARK  Name = 
REMARK  4 active torsions:
REMARK  status: ('A' for Active; 'I' for Inactive)
REMARK    1  A    between atoms: C_2  and  C_3
REMARK    2  A    between atoms: C_8  and  C_9
REMARK    3  A    between atoms: C_11  and  C_12
REMARK    4  A    between atoms: N_19  and  C_20
REMARK                            x       y       z     vdW  Elec       q    Type
REMARK                         _______ _______ _______ _____ _____    ______ ____
ROOT
ATOM      1  C   UNL     1      -8.729  15.841  68.649  0.00  0.00    +0.057 A 
ATOM      2  C   UNL     1      -9.055  14.885  67.693  0.00  0.00    +0.265 A 
ATOM      3  O   UNL     1      -8.399  14.951  66.609  0.00  0.00    -0.267 OA
ATOM      4  N   UNL     1     -10.250  14.289  67.623  0.00  0.00    -0.273 N 
ATOM      5  C   UNL     1     -11.053  14.371  68.712  0.00  0.00    +0.084 A 
ATOM      6  C   UNL     1     -10.664  15.055  69.858  0.00  0.00    +0.035 A 
ATOM      7  C   UNL     1      -9.477  15.776  69.819  0.00  0.00    +0.008 A 
ENDROOT
BRANCH   1   9
ATOM      8  C   UNL     1      -8.588  18.257  68.380  0.00  0.00    +0.069 A 
ATOM      9  C   UNL     1      -7.941  17.036  68.304  0.00  0.00    +0.014 A 
ATOM     10  C   UNL     1      -6.603  17.044  68.667  0.00  0.00    +0.001 A 
ATOM     11  C   UNL     1      -5.972  18.171  69.178  0.00  0.00    +0.000 A 
ATOM     12  C   UNL     1      -6.700  19.329  69.382  0.00  0.00    +0.001 A 
ATOM     13  C   UNL     1      -7.943  19.416  68.793  0.00  0.00    +0.010 A 
BRANCH   8  15
ATOM     14  N   UNL     1     -10.992  18.480  67.464  0.00  0.00    -0.191 NA
ATOM     15  C   UNL     1      -9.957  18.276  67.921  0.00  0.00    +0.100 C 
ENDBRANCH   8  15
ENDBRANCH   1   9
BRANCH   4  16
ATOM     16  C   UNL     1     -10.839  13.916  66.372  0.00  0.00    +0.067 A 
ATOM     17  C   UNL     1     -11.655  14.770  65.689  0.00  0.00    +0.018 A 
ATOM     18  C   UNL     1     -12.163  14.321  64.476  0.00  0.00    +0.001 A 
ATOM     19  C   UNL     1     -12.302  12.965  64.235  0.00  0.00    +0.000 A 
ATOM     20  C   UNL     1     -11.788  12.077  65.164  0.00  0.00    +0.001 A 
ATOM     21  C   UNL     1     -10.824  12.571  66.035  0.00  0.00    +0.018 A 
ENDBRANCH   4  16
BRANCH   6  22
ATOM     22  C   UNL     1     -11.740  15.409  70.791  0.00  0.00    +0.083 A 
ATOM     23  N   UNL     1     -12.991  15.127  70.369  0.00  0.00    -0.244 NA
ATOM     24  C   UNL     1     -13.984  15.005  71.278  0.00  0.00    +0.099 A 
ATOM     25  C   UNL     1     -13.885  15.625  72.510  0.00  0.00    +0.021 A 
ATOM     26  C   UNL     1     -12.605  15.837  72.997  0.00  0.00    +0.003 A 
ATOM     27  C   UNL     1     -11.547  15.643  72.121  0.00  0.00    +0.019 A 
ENDBRANCH   6  22
TORSDOF 4
ENDMDL
MODEL 8
REMARK VINA RESULT:      -7.3      2.582      5.480
REMARK  Name = 
REMARK  4 active torsions:
REMARK  status: ('A' for Active; 'I' for Inactive)
REMARK    1  A    between atoms: C_2  and  C_3
REMARK    2  A    between atoms: C_8  and  C_9
REMARK    3  A    between atoms: C_11  and  C_12
REMARK    4  A    between atoms: N_19  and  C_20
REMARK                            x       y       z     vdW  Elec       q    Type
REMARK                         _______ _______ _______ _____ _____    ______ ____
ROOT
ATOM      1  C   UNL     1     -10.417  12.727  67.212  0.00  0.00    +0.057 A 
ATOM      2  C   UNL     1     -10.953  12.724  68.494  0.00  0.00    +0.265 A 
ATOM      3  O   UNL     1     -11.661  11.714  68.788  0.00  0.00    -0.267 OA
ATOM      4  N   UNL     1     -11.195  13.838  69.194  0.00  0.00    -0.273 N 
ATOM      5  C   UNL     1     -10.594  14.979  68.780  0.00  0.00    +0.084 A 
ATOM      6  C   UNL     1      -9.765  15.006  67.664  0.00  0.00    +0.035 A 
ATOM      7  C   UNL     1      -9.668  13.854  66.893  0.00  0.00    +0.008 A 
ENDROOT
BRANCH   1   9
ATOM      8  C   UNL     1     -11.590  12.378  65.106  0.00  0.00    +0.069 A 
ATOM      9  C   UNL     1     -10.909  11.810  66.169  0.00  0.00    +0.014 A 
ATOM     10  C   UNL     1     -10.119  10.714  65.858  0.00  0.00    +0.001 A 
ATOM     11  C   UNL     1      -9.929  10.274  64.554  0.00  0.00    +0.000 A 
ATOM     12  C   UNL     1     -10.508  10.969  63.507  0.00  0.00    +0.001 A 
ATOM     13  C   UNL     1     -11.489  11.886  63.811  0.00  0.00    +0.010 A 
BRANCH   8  15
ATOM     14  N   UNL     1     -13.212  14.352  65.483  0.00  0.00    -0.191 NA
ATOM     15  C   UNL     1     -12.482  13.464  65.435  0.00  0.00    +0.100 C 
ENDBRANCH   8  15
ENDBRANCH   1   9
BRANCH   4  16
ATOM     16  C   UNL     1     -12.309  13.943  70.089  0.00  0.00    +0.067 A 
ATOM     17  C   UNL     1     -12.849  15.155  70.409  0.00  0.00    +0.018 A 
ATOM     18  C   UNL     1     -13.938  15.150  71.273  0.00  0.00    +0.001 A 
ATOM     19  C   UNL     1     -14.119  14.107  72.163  0.00  0.00    +0.000 A 
ATOM     20  C   UNL     1     -13.282  13.009  72.069  0.00  0.00    +0.001 A 
ATOM     21  C   UNL     1     -12.613  12.835  70.864  0.00  0.00    +0.018 A 
ENDBRANCH   4  16
BRANCH   6  22
ATOM     22  C   UNL     1      -9.502  16.331  67.091  0.00  0.00    +0.083 A 
ATOM     23  N   UNL     1     -10.428  17.275  67.361  0.00  0.00    -0.244 NA
ATOM     24  C   UNL     1     -10.089  18.580  67.265  0.00  0.00    +0.099 A 
ATOM     25  C   UNL     1      -9.041  18.974  66.453  0.00  0.00    +0.021 A 
ATOM     26  C   UNL     1      -8.036  18.043  66.243  0.00  0.00    +0.003 A 
ATOM     27  C   UNL     1      -8.278  16.738  66.648  0.00  0.00    +0.019 A 
ENDBRANCH   6  22
TORSDOF 4
ENDMDL
MODEL 9
REMARK VINA RESULT:      -7.3      2.860      5.319
REMARK  Name = 
REMARK  4 active torsions:
REMARK  status: ('A' for Active; 'I' for Inactive)
REMARK    1  A    between atoms: C_2  and  C_3
REMARK    2  A    between atoms: C_8  and  C_9
REMARK    3  A    between atoms: C_11  and  C_12
REMARK    4  A    between atoms: N_19  and  C_20
REMARK                            x       y       z     vdW  Elec       q    Type
REMARK                         _______ _______ _______ _____ _____    ______ ____
ROOT
ATOM      1  C   UNL     1     -10.276  16.459  67.160  0.00  0.00    +0.057 A 
ATOM      2  C   UNL     1     -11.136  16.337  68.245  0.00  0.00    +0.265 A 
ATOM      3  O   UNL     1     -10.837  17.033  69.262  0.00  0.00    -0.267 OA
ATOM      4  N   UNL     1     -11.886  15.253  68.473  0.00  0.00    -0.273 N 
ATOM      5  C   UNL     1     -12.064  14.389  67.444  0.00  0.00    +0.084 A 
ATOM      6  C   UNL     1     -11.484  14.605  66.199  0.00  0.00    +0.035 A 
ATOM      7  C   UNL     1     -10.599  15.668  66.064  0.00  0.00    +0.008 A 
ENDROOT
BRANCH   1   9
ATOM      8  C   UNL     1      -8.899  18.450  67.428  0.00  0.00    +0.069 A 
ATOM      9  C   UNL     1      -8.944  17.073  67.300  0.00  0.00    +0.014 A 
ATOM     10  C   UNL     1      -7.992  16.372  68.025  0.00  0.00    +0.001 A 
ATOM     11  C   UNL     1      -7.117  16.993  68.908  0.00  0.00    +0.000 A 
ATOM     12  C   UNL     1      -7.212  18.357  69.120  0.00  0.00    +0.001 A 
ATOM     13  C   UNL     1      -7.964  19.092  68.230  0.00  0.00    +0.010 A 
BRANCH   8  15
ATOM     14  N   UNL     1     -10.399  19.818  65.831  0.00  0.00    -0.191 NA
ATOM     15  C   UNL     1      -9.829  19.191  66.610  0.00  0.00    +0.100 C 
ENDBRANCH   8  15
ENDBRANCH   1   9
BRANCH   4  16
ATOM     16  C   UNL     1     -12.176  14.798  69.800  0.00  0.00    +0.067 A 
ATOM     17  C   UNL     1     -12.181  13.468  70.108  0.00  0.00    +0.018 A 
ATOM     18  C   UNL     1     -12.458  13.129  71.427  0.00  0.00    +0.001 A 
ATOM     19  C   UNL     1     -13.201  13.980  72.226  0.00  0.00    +0.000 A 
ATOM     20  C   UNL     1     -13.529  15.230  71.730  0.00  0.00    +0.001 A 
ATOM     21  C   UNL     1     -12.762  15.702  70.671  0.00  0.00    +0.018 A 
ENDBRANCH   4  16
BRANCH   6  22
ATOM     22  C   UNL     1     -11.415  13.439  65.312  0.00  0.00    +0.083 A 
ATOM     23  N   UNL     1     -12.574  13.097  64.710  0.00  0.00    -0.244 NA
ATOM     24  C   UNL     1     -12.539  12.349  63.584  0.00  0.00    +0.099 A 
ATOM     25  C   UNL     1     -11.455  11.533  63.318  0.00  0.00    +0.021 A 
ATOM     26  C   UNL     1     -10.238  11.925  63.855  0.00  0.00    +0.003 A 
ATOM     27  C   UNL     1     -10.253  12.940  64.800  0.00  0.00    +0.019 A 
ENDBRANCH   6  22
TORSDOF 4
ENDMDL
