MODEL 1
REMARK VINA RESULT:      -7.9      0.000      0.000
REMARK  Name = 
REMARK  4 active torsions:
REMARK  status: ('A' for Active; 'I' for Inactive)
REMARK    1  A    between atoms: N_4  and  N_5
REMARK    2  A    between atoms: C_6  and  C_7
REMARK    3  A    between atoms: C_10  and  C_11
REMARK    4  A    between atoms: C_14  and  N_15
REMARK                            x       y       z     vdW  Elec       q    Type
REMARK                         _______ _______ _______ _____ _____    ______ ____
ROOT
ATOM      1  C   UNL     1     -11.678  12.256  65.881  0.00  0.00    +0.166 A 
ATOM      2  O   UNL     1     -12.307  12.861  66.872  0.00  0.00    -0.452 OA
ATOM      3  C   UNL     1     -11.634  12.770  67.985  0.00  0.00    +0.145 A 
ATOM      4  C   UNL     1     -10.902  11.594  67.858  0.00  0.00    +0.041 A 
ATOM      5  C   UNL     1     -10.703  11.473  66.489  0.00  0.00    +0.042 A 
ENDROOT
BRANCH   3   6
ATOM      6  C   UNL     1     -11.855  13.541  69.217  0.00  0.00    +0.035 A 
ATOM      7  C   UNL     1     -11.952  14.905  69.193  0.00  0.00    +0.009 A 
ATOM      8  C   UNL     1     -12.500  15.539  70.298  0.00  0.00    +0.075 A 
ATOM      9  C   UNL     1     -13.099  14.814  71.315  0.00  0.00    +0.290 A 
ATOM     10  C   UNL     1     -12.942  13.440  71.388  0.00  0.00    +0.075 A 
ATOM     11  C   UNL     1     -12.199  12.857  70.369  0.00  0.00    +0.009 A 
BRANCH   9  12
ATOM     12  N   UNL     1     -14.170  15.407  72.050  0.00  0.00    +0.081 N 
ATOM     13  O   UNL     1     -15.370  15.543  71.408  0.00  0.00    -0.576 OA
ATOM     14  O   UNL     1     -13.902  16.161  72.999  0.00  0.00    +0.041 OA
ENDBRANCH   9  12
ENDBRANCH   3   6
BRANCH   1  16
ATOM     15  N   UNL     1     -10.615  13.543  64.255  0.00  0.00    -0.169 NA
ATOM     16  C   UNL     1     -11.664  12.820  64.523  0.00  0.00    +0.155 C 
BRANCH  15  22
ATOM     17  O   UNL     1      -9.387  16.711  67.682  0.00  0.00    -0.271 OA
ATOM     18  C   UNL     1      -9.638  16.261  66.532  0.00  0.00    +0.272 C 
ATOM     19  N   UNL     1     -10.356  16.838  65.459  0.00  0.00    -0.125 NA
ATOM     20  C   UNL     1     -11.003  15.904  64.845  0.00  0.00    +0.349 C 
ATOM     21  O   UNL     1     -12.003  16.174  63.905  0.00  0.00    -0.249 OA
ATOM     22  N   UNL     1     -10.422  14.627  65.135  0.00  0.00    -0.154 N 
ATOM     23  C   UNL     1      -9.402  14.840  66.126  0.00  0.00    +0.208 C 
ENDBRANCH  15  22
ENDBRANCH   1  16
TORSDOF 4
ENDMDL
MODEL 2
REMARK VINA RESULT:      -7.1      1.552      1.900
REMARK  Name = 
REMARK  4 active torsions:
REMARK  status: ('A' for Active; 'I' for Inactive)
REMARK    1  A    between atoms: N_4  and  N_5
REMARK    2  A    between atoms: C_6  and  C_7
REMARK    3  A    between atoms: C_10  and  C_11
REMARK    4  A    between atoms: C_14  and  N_15
REMARK                            x       y       z     vdW  Elec       q    Type
REMARK                         _______ _______ _______ _____ _____    ______ ____
ROOT
ATOM      1  C   UNL     1     -11.521  13.159  66.706  0.00  0.00    +0.166 A 
ATOM      2  O   UNL     1     -12.312  13.841  67.515  0.00  0.00    -0.452 OA
ATOM      3  C   UNL     1     -11.837  13.868  68.729  0.00  0.00    +0.145 A 
ATOM      4  C   UNL     1     -11.089  12.701  68.840  0.00  0.00    +0.041 A 
ATOM      5  C   UNL     1     -10.660  12.457  67.542  0.00  0.00    +0.042 A 
ENDROOT
BRANCH   3   6
ATOM      6  C   UNL     1     -12.268  14.746  69.827  0.00  0.00    +0.035 A 
ATOM      7  C   UNL     1     -13.456  14.542  70.474  0.00  0.00    +0.009 A 
ATOM      8  C   UNL     1     -13.645  15.161  71.700  0.00  0.00    +0.075 A 
ATOM      9  C   UNL     1     -12.604  15.814  72.341  0.00  0.00    +0.290 A 
ATOM     10  C   UNL     1     -11.426  16.090  71.667  0.00  0.00    +0.075 A 
ATOM     11  C   UNL     1     -11.352  15.637  70.357  0.00  0.00    +0.009 A 
BRANCH   9  12
ATOM     12  N   UNL     1     -12.588  15.859  73.768  0.00  0.00    +0.081 N 
ATOM     13  O   UNL     1     -12.386  17.078  74.354  0.00  0.00    -0.576 OA
ATOM     14  O   UNL     1     -12.297  14.829  74.398  0.00  0.00    +0.041 OA
ENDBRANCH   9  12
ENDBRANCH   3   6
BRANCH   1  16
ATOM     15  N   UNL     1     -10.171  14.256  65.157  0.00  0.00    -0.169 NA
ATOM     16  C   UNL     1     -11.280  13.595  65.323  0.00  0.00    +0.155 C 
BRANCH  15  22
ATOM     17  O   UNL     1      -9.338  17.686  68.448  0.00  0.00    -0.271 OA
ATOM     18  C   UNL     1      -9.427  17.139  67.316  0.00  0.00    +0.272 C 
ATOM     19  N   UNL     1      -9.932  17.639  66.094  0.00  0.00    -0.125 NA
ATOM     20  C   UNL     1     -10.522  16.676  65.466  0.00  0.00    +0.349 C 
ATOM     21  O   UNL     1     -11.344  16.894  64.356  0.00  0.00    -0.249 OA
ATOM     22  N   UNL     1     -10.063  15.411  65.958  0.00  0.00    -0.154 N 
ATOM     23  C   UNL     1      -9.205  15.677  67.080  0.00  0.00    +0.208 C 
ENDBRANCH  15  22
ENDBRANCH   1  16
TORSDOF 4
ENDMDL
MODEL 3
REMARK VINA RESULT:      -7.1      3.472      4.288
REMARK  Name = 
REMARK  4 active torsions:
REMARK  status: ('A' for Active; 'I' for Inactive)
REMARK    1  A    between atoms: N_4  and  N_5
REMARK    2  A    between atoms: C_6  and  C_7
REMARK    3  A    between atoms: C_10  and  C_11
REMARK    4  A    between atoms: C_14  and  N_15
REMARK                            x       y       z     vdW  Elec       q    Type
REMARK                         _______ _______ _______ _____ _____    ______ ____
ROOT
ATOM      1  C   UNL     1     -11.307  12.878  67.281  0.00  0.00    +0.166 A 
ATOM      2  O   UNL     1     -10.971  11.911  68.116  0.00  0.00    -0.452 OA
ATOM      3  C   UNL     1     -11.626  12.006  69.239  0.00  0.00    +0.145 A 
ATOM      4  C   UNL     1     -11.906  13.362  69.368  0.00  0.00    +0.041 A 
ATOM      5  C   UNL     1     -11.985  13.812  68.056  0.00  0.00    +0.042 A 
ENDROOT
BRANCH   3   6
ATOM      6  C   UNL     1     -11.741  10.980  70.285  0.00  0.00    +0.035 A 
ATOM      7  C   UNL     1     -12.813  10.950  71.134  0.00  0.00    +0.009 A 
ATOM      8  C   UNL     1     -13.044   9.785  71.851  0.00  0.00    +0.075 A 
ATOM      9  C   UNL     1     -12.332   8.626  71.583  0.00  0.00    +0.290 A 
ATOM     10  C   UNL     1     -11.202   8.664  70.784  0.00  0.00    +0.075 A 
ATOM     11  C   UNL     1     -10.874   9.903  70.250  0.00  0.00    +0.009 A 
BRANCH   9  12
ATOM     12  N   UNL     1     -12.958   7.362  71.802  0.00  0.00    +0.081 N 
ATOM     13  O   UNL     1     -12.152   6.257  71.808  0.00  0.00    -0.576 OA
ATOM     14  O   UNL     1     -14.161   7.232  71.527  0.00  0.00    +0.041 OA
ENDBRANCH   9  12
ENDBRANCH   3   6
BRANCH   1  16
ATOM     15  N   UNL     1     -10.588  13.275  65.101  0.00  0.00    -0.169 NA
ATOM     16  C   UNL     1     -11.446  12.632  65.839  0.00  0.00    +0.155 C 
BRANCH  15  22
ATOM     17  O   UNL     1      -9.956  17.945  66.137  0.00  0.00    -0.271 OA
ATOM     18  C   UNL     1     -10.194  16.914  65.452  0.00  0.00    +0.272 C 
ATOM     19  N   UNL     1     -11.164  16.684  64.451  0.00  0.00    -0.125 NA
ATOM     20  C   UNL     1     -11.577  15.464  64.549  0.00  0.00    +0.349 C 
ATOM     21  O   UNL     1     -12.712  14.998  63.877  0.00  0.00    -0.249 OA
ATOM     22  N   UNL     1     -10.621  14.674  65.266  0.00  0.00    -0.154 N 
ATOM     23  C   UNL     1      -9.601  15.570  65.742  0.00  0.00    +0.208 C 
ENDBRANCH  15  22
ENDBRANCH   1  16
TORSDOF 4
ENDMDL
MODEL 4
REMARK VINA RESULT:      -7.0      5.016      7.432
REMARK  Name = 
REMARK  4 active torsions:
REMARK  status: ('A' for Active; 'I' for Inactive)
REMARK    1  A    between atoms: N_4  and  N_5
REMARK    2  A    between atoms: C_6  and  C_7
REMARK    3  A    between atoms: C_10  and  C_11
REMARK    4  A    between atoms: C_14  and  N_15
REMARK                            x       y       z     vdW  Elec       q    Type
REMARK                         _______ _______ _______ _____ _____    ______ ____
ROOT
ATOM      1  C   UNL     1      -9.272  17.025  68.471  0.00  0.00    +0.166 A 
ATOM      2  O   UNL     1      -7.983  17.312  68.447  0.00  0.00    -0.452 OA
ATOM      3  C   UNL     1      -7.761  18.526  68.870  0.00  0.00    +0.145 A 
ATOM      4  C   UNL     1      -8.928  19.221  68.572  0.00  0.00    +0.041 A 
ATOM      5  C   UNL     1      -9.917  18.247  68.625  0.00  0.00    +0.042 A 
ENDROOT
BRANCH   3   6
ATOM      6  C   UNL     1      -6.466  19.105  69.254  0.00  0.00    +0.035 A 
ATOM      7  C   UNL     1      -6.184  20.424  69.031  0.00  0.00    +0.009 A 
ATOM      8  C   UNL     1      -5.116  20.987  69.713  0.00  0.00    +0.075 A 
ATOM      9  C   UNL     1      -4.468  20.297  70.725  0.00  0.00    +0.290 A 
ATOM     10  C   UNL     1      -4.694  18.943  70.909  0.00  0.00    +0.075 A 
ATOM     11  C   UNL     1      -5.622  18.358  70.058  0.00  0.00    +0.009 A 
BRANCH   9  12
ATOM     12  N   UNL     1      -3.881  21.031  71.800  0.00  0.00    +0.081 N 
ATOM     13  O   UNL     1      -3.086  20.338  72.671  0.00  0.00    -0.576 OA
ATOM     14  O   UNL     1      -4.427  22.079  72.181  0.00  0.00    +0.041 OA
ENDBRANCH   9  12
ENDBRANCH   3   6
BRANCH   1  16
ATOM     15  N   UNL     1      -9.725  14.807  67.919  0.00  0.00    -0.169 NA
ATOM     16  C   UNL     1      -9.753  15.695  68.871  0.00  0.00    +0.155 C 
BRANCH  15  22
ATOM     17  O   UNL     1     -11.599  16.613  63.856  0.00  0.00    -0.271 OA
ATOM     18  C   UNL     1     -11.229  15.753  64.700  0.00  0.00    +0.272 C 
ATOM     19  N   UNL     1     -11.862  14.567  65.136  0.00  0.00    -0.125 NA
ATOM     20  C   UNL     1     -11.619  14.407  66.394  0.00  0.00    +0.349 C 
ATOM     21  O   UNL     1     -12.306  13.477  67.181  0.00  0.00    -0.249 OA
ATOM     22  N   UNL     1     -10.465  15.166  66.775  0.00  0.00    -0.154 N 
ATOM     23  C   UNL     1     -10.075  15.948  65.632  0.00  0.00    +0.208 C 
ENDBRANCH  15  22
ENDBRANCH   1  16
TORSDOF 4
ENDMDL
MODEL 5
REMARK VINA RESULT:      -7.0      2.053      3.157
REMARK  Name = 
REMARK  4 active torsions:
REMARK  status: ('A' for Active; 'I' for Inactive)
REMARK    1  A    between atoms: N_4  and  N_5
REMARK    2  A    between atoms: C_6  and  C_7
REMARK    3  A    between atoms: C_10  and  C_11
REMARK    4  A    between atoms: C_14  and  N_15
REMARK                            x       y       z     vdW  Elec       q    Type
REMARK                         _______ _______ _______ _____ _____    ______ ____
ROOT
ATOM      1  C   UNL     1     -10.681  12.271  67.955  0.00  0.00    +0.166 A 
ATOM      2  O   UNL     1     -11.359  13.283  68.465  0.00  0.00    -0.452 OA
ATOM      3  C   UNL     1     -11.816  12.996  69.652  0.00  0.00    +0.145 A 
ATOM      4  C   UNL     1     -11.972  11.614  69.643  0.00  0.00    +0.041 A 
ATOM      5  C   UNL     1     -11.004  11.176  68.748  0.00  0.00    +0.042 A 
ENDROOT
BRANCH   3   6
ATOM      6  C   UNL     1     -12.361  13.937  70.640  0.00  0.00    +0.035 A 
ATOM      7  C   UNL     1     -13.177  13.510  71.651  0.00  0.00    +0.009 A 
ATOM      8  C   UNL     1     -13.371  14.356  72.734  0.00  0.00    +0.075 A 
ATOM      9  C   UNL     1     -12.623  15.513  72.881  0.00  0.00    +0.290 A 
ATOM     10  C   UNL     1     -11.853  15.991  71.835  0.00  0.00    +0.075 A 
ATOM     11  C   UNL     1     -11.850  15.222  70.678  0.00  0.00    +0.009 A 
BRANCH   9  12
ATOM     12  N   UNL     1     -12.342  15.994  74.196  0.00  0.00    +0.081 N 
ATOM     13  O   UNL     1     -12.488  15.111  75.230  0.00  0.00    -0.576 OA
ATOM     14  O   UNL     1     -12.432  17.211  74.423  0.00  0.00    +0.041 OA
ENDBRANCH   9  12
ENDBRANCH   3   6
BRANCH   1  16
ATOM     15  N   UNL     1      -9.551  13.428  66.278  0.00  0.00    -0.169 NA
ATOM     16  C   UNL     1      -9.456  12.486  67.171  0.00  0.00    +0.155 C 
BRANCH  15  22
ATOM     17  O   UNL     1     -12.929  11.894  63.192  0.00  0.00    -0.271 OA
ATOM     18  C   UNL     1     -12.403  12.557  64.126  0.00  0.00    +0.272 C 
ATOM     19  N   UNL     1     -12.517  13.927  64.454  0.00  0.00    -0.125 NA
ATOM     20  C   UNL     1     -11.378  14.342  64.899  0.00  0.00    +0.349 C 
ATOM     21  O   UNL     1     -11.084  15.699  65.067  0.00  0.00    -0.249 OA
ATOM     22  N   UNL     1     -10.587  13.232  65.342  0.00  0.00    -0.154 N 
ATOM     23  C   UNL     1     -11.304  12.034  64.998  0.00  0.00    +0.208 C 
ENDBRANCH  15  22
ENDBRANCH   1  16
TORSDOF 4
ENDMDL
MODEL 6
REMARK VINA RESULT:      -6.9      2.063      3.515
REMARK  Name = 
REMARK  4 active torsions:
REMARK  status: ('A' for Active; 'I' for Inactive)
REMARK    1  A    between atoms: N_4  and  N_5
REMARK    2  A    between atoms: C_6  and  C_7
REMARK    3  A    between atoms: C_10  and  C_11
REMARK    4  A    between atoms: C_14  and  N_15
REMARK                            x       y       z     vdW  Elec       q    Type
REMARK                         _______ _______ _______ _____ _____    ______ ____
ROOT
ATOM      1  C   UNL     1     -11.562  14.358  65.966  0.00  0.00    +0.166 A 
ATOM      2  O   UNL     1     -11.608  13.971  67.228  0.00  0.00    -0.452 OA
ATOM      3  C   UNL     1     -11.202  14.918  68.028  0.00  0.00    +0.145 A 
ATOM      4  C   UNL     1     -10.316  15.668  67.262  0.00  0.00    +0.041 A 
ATOM      5  C   UNL     1     -10.782  15.509  65.964  0.00  0.00    +0.042 A 
ENDROOT
BRANCH   3   6
ATOM      6  C   UNL     1     -11.373  14.976  69.486  0.00  0.00    +0.035 A 
ATOM      7  C   UNL     1     -11.113  16.122  70.186  0.00  0.00    +0.009 A 
ATOM      8  C   UNL     1     -11.616  16.227  71.475  0.00  0.00    +0.075 A 
ATOM      9  C   UNL     1     -12.505  15.290  71.975  0.00  0.00    +0.290 A 
ATOM     10  C   UNL     1     -12.716  14.094  71.309  0.00  0.00    +0.075 A 
ATOM     11  C   UNL     1     -12.024  13.930  70.116  0.00  0.00    +0.009 A 
BRANCH   9  12
ATOM     12  N   UNL     1     -13.473  15.699  72.942  0.00  0.00    +0.081 N 
ATOM     13  O   UNL     1     -14.687  16.118  72.473  0.00  0.00    -0.576 OA
ATOM     14  O   UNL     1     -13.083  16.096  74.052  0.00  0.00    +0.041 OA
ENDBRANCH   9  12
ENDBRANCH   3   6
BRANCH   1  16
ATOM     15  N   UNL     1     -12.812  12.694  64.918  0.00  0.00    -0.169 NA
ATOM     16  C   UNL     1     -12.610  13.977  65.008  0.00  0.00    +0.155 C 
BRANCH  15  22
ATOM     17  O   UNL     1      -8.952  10.594  62.924  0.00  0.00    -0.271 OA
ATOM     18  C   UNL     1      -9.658  11.177  63.790  0.00  0.00    +0.272 C 
ATOM     19  N   UNL     1      -9.764  10.958  65.182  0.00  0.00    -0.125 NA
ATOM     20  C   UNL     1     -10.990  11.156  65.540  0.00  0.00    +0.349 C 
ATOM     21  O   UNL     1     -11.479  10.776  66.793  0.00  0.00    -0.249 OA
ATOM     22  N   UNL     1     -11.666  11.955  64.562  0.00  0.00    -0.154 N 
ATOM     23  C   UNL     1     -10.762  12.131  63.458  0.00  0.00    +0.208 C 
ENDBRANCH  15  22
ENDBRANCH   1  16
TORSDOF 4
ENDMDL
MODEL 7
REMARK VINA RESULT:      -6.7      3.467      4.544
REMARK  Name = 
REMARK  4 active torsions:
REMARK  status: ('A' for Active; 'I' for Inactive)
REMARK    1  A    between atoms: N_4  and  N_5
REMARK    2  A    between atoms: C_6  and  C_7
REMARK    3  A    between atoms: C_10  and  C_11
REMARK    4  A    between atoms: C_14  and  N_15
REMARK                            x       y       z     vdW  Elec       q    Type
REMARK                         _______ _______ _______ _____ _____    ______ ____
ROOT
ATOM      1  C   UNL     1     -10.403  12.978  67.773  0.00  0.00    +0.166 A 
ATOM      2  O   UNL     1     -11.312  12.316  68.467  0.00  0.00    -0.452 OA
ATOM      3  C   UNL     1     -10.759  11.417  69.233  0.00  0.00    +0.145 A 
ATOM      4  C   UNL     1      -9.580  11.075  68.579  0.00  0.00    +0.041 A 
ATOM      5  C   UNL     1      -9.238  12.229  67.887  0.00  0.00    +0.042 A 
ENDROOT
BRANCH   3   6
ATOM      6  C   UNL     1     -11.394  10.690  70.341  0.00  0.00    +0.035 A 
ATOM      7  C   UNL     1     -12.479  11.202  70.996  0.00  0.00    +0.009 A 
ATOM      8  C   UNL     1     -13.237  10.340  71.776  0.00  0.00    +0.075 A 
ATOM      9  C   UNL     1     -13.018   8.972  71.751  0.00  0.00    +0.290 A 
ATOM     10  C   UNL     1     -11.882   8.452  71.154  0.00  0.00    +0.075 A 
ATOM     11  C   UNL     1     -11.028   9.373  70.562  0.00  0.00    +0.009 A 
BRANCH   9  12
ATOM     12  N   UNL     1     -14.116   8.090  71.986  0.00  0.00    +0.081 N 
ATOM     13  O   UNL     1     -14.222   6.992  71.177  0.00  0.00    -0.576 OA
ATOM     14  O   UNL     1     -15.134   8.534  72.541  0.00  0.00    +0.041 OA
ENDBRANCH   9  12
ENDBRANCH   3   6
BRANCH   1  16
ATOM     15  N   UNL     1     -11.627  14.773  66.930  0.00  0.00    -0.169 NA
ATOM     16  C   UNL     1     -10.527  14.423  67.532  0.00  0.00    +0.155 C 
BRANCH  15  22
ATOM     17  O   UNL     1     -12.504  11.912  63.144  0.00  0.00    -0.271 OA
ATOM     18  C   UNL     1     -12.538  12.937  63.876  0.00  0.00    +0.272 C 
ATOM     19  N   UNL     1     -12.440  14.306  63.539  0.00  0.00    -0.125 NA
ATOM     20  C   UNL     1     -11.792  14.917  64.475  0.00  0.00    +0.349 C 
ATOM     21  O   UNL     1     -11.305  16.220  64.327  0.00  0.00    -0.249 OA
ATOM     22  N   UNL     1     -11.825  14.147  65.683  0.00  0.00    -0.154 N 
ATOM     23  C   UNL     1     -12.458  12.894  65.370  0.00  0.00    +0.208 C 
ENDBRANCH  15  22
ENDBRANCH   1  16
TORSDOF 4
ENDMDL
MODEL 8
REMARK VINA RESULT:      -6.6      4.136      6.660
REMARK  Name = 
REMARK  4 active torsions:
REMARK  status: ('A' for Active; 'I' for Inactive)
REMARK    1  A    between atoms: N_4  and  N_5
REMARK    2  A    between atoms: C_6  and  C_7
REMARK    3  A    between atoms: C_10  and  C_11
REMARK    4  A    between atoms: C_14  and  N_15
REMARK                            x       y       z     vdW  Elec       q    Type
REMARK                         _______ _______ _______ _____ _____    ______ ____
ROOT
ATOM      1  C   UNL     1      -9.454  15.214  68.070  0.00  0.00    +0.166 A 
ATOM      2  O   UNL     1      -8.350  15.903  67.843  0.00  0.00    -0.452 OA
ATOM      3  C   UNL     1      -8.377  17.055  68.454  0.00  0.00    +0.145 A 
ATOM      4  C   UNL     1      -9.729  17.368  68.553  0.00  0.00    +0.041 A 
ATOM      5  C   UNL     1     -10.354  16.129  68.603  0.00  0.00    +0.042 A 
ENDROOT
BRANCH   3   6
ATOM      6  C   UNL     1      -7.244  17.964  68.677  0.00  0.00    +0.035 A 
ATOM      7  C   UNL     1      -7.408  19.321  68.653  0.00  0.00    +0.009 A 
ATOM      8  C   UNL     1      -6.409  20.109  69.205  0.00  0.00    +0.075 A 
ATOM      9  C   UNL     1      -5.367  19.544  69.924  0.00  0.00    +0.290 A 
ATOM     10  C   UNL     1      -5.150  18.177  69.892  0.00  0.00    +0.075 A 
ATOM     11  C   UNL     1      -6.056  17.433  69.146  0.00  0.00    +0.009 A 
BRANCH   9  12
ATOM     12  N   UNL     1      -4.766  20.295  70.979  0.00  0.00    +0.081 N 
ATOM     13  O   UNL     1      -4.508  19.635  72.148  0.00  0.00    -0.576 OA
ATOM     14  O   UNL     1      -4.916  21.528  71.000  0.00  0.00    +0.041 OA
ENDBRANCH   9  12
ENDBRANCH   3   6
BRANCH   1  16
ATOM     15  N   UNL     1      -9.426  13.063  67.173  0.00  0.00    -0.169 NA
ATOM     16  C   UNL     1      -9.420  13.758  68.273  0.00  0.00    +0.155 C 
BRANCH  15  22
ATOM     17  O   UNL     1     -12.653  14.474  63.875  0.00  0.00    -0.271 OA
ATOM     18  C   UNL     1     -11.996  13.700  64.621  0.00  0.00    +0.272 C 
ATOM     19  N   UNL     1     -12.417  12.588  65.384  0.00  0.00    -0.125 NA
ATOM     20  C   UNL     1     -11.736  12.558  66.482  0.00  0.00    +0.349 C 
ATOM     21  O   UNL     1     -12.085  11.740  67.562  0.00  0.00    -0.249 OA
ATOM     22  N   UNL     1     -10.531  13.318  66.337  0.00  0.00    -0.154 N 
ATOM     23  C   UNL     1     -10.586  13.959  65.050  0.00  0.00    +0.208 C 
ENDBRANCH  15  22
ENDBRANCH   1  16
TORSDOF 4
ENDMDL
MODEL 9
REMARK VINA RESULT:      -6.6      3.316      4.169
REMARK  Name = 
REMARK  4 active torsions:
REMARK  status: ('A' for Active; 'I' for Inactive)
REMARK    1  A    between atoms: N_4  and  N_5
REMARK    2  A    between atoms: C_6  and  C_7
REMARK    3  A    between atoms: C_10  and  C_11
REMARK    4  A    between atoms: C_14  and  N_15
REMARK                            x       y       z     vdW  Elec       q    Type
REMARK                         _______ _______ _______ _____ _____    ______ ____
ROOT
ATOM      1  C   UNL     1      -9.636  10.303  64.882  0.00  0.00    +0.166 A 
ATOM      2  O   UNL     1     -10.373  10.066  65.951  0.00  0.00    -0.452 OA
ATOM      3  C   UNL     1      -9.750  10.416  67.042  0.00  0.00    +0.145 A 
ATOM      4  C   UNL     1      -8.401  10.290  66.731  0.00  0.00    +0.041 A 
ATOM      5  C   UNL     1      -8.352  10.526  65.364  0.00  0.00    +0.042 A 
ENDROOT
BRANCH   3   6
ATOM      6  C   UNL     1     -10.334  10.573  68.382  0.00  0.00    +0.035 A 
ATOM      7  C   UNL     1     -11.603  11.055  68.551  0.00  0.00    +0.009 A 
ATOM      8  C   UNL     1     -12.218  10.855  69.778  0.00  0.00    +0.075 A 
ATOM      9  C   UNL     1     -11.649  10.037  70.740  0.00  0.00    +0.290 A 
ATOM     10  C   UNL     1     -10.339   9.606  70.611  0.00  0.00    +0.075 A 
ATOM     11  C   UNL     1      -9.675  10.007  69.459  0.00  0.00    +0.009 A 
BRANCH   9  12
ATOM     12  N   UNL     1     -12.501   9.334  71.644  0.00  0.00    +0.081 N 
ATOM     13  O   UNL     1     -11.917   8.404  72.460  0.00  0.00    -0.576 OA
ATOM     14  O   UNL     1     -13.708   9.228  71.373  0.00  0.00    +0.041 OA
ENDBRANCH   9  12
ENDBRANCH   3   6
BRANCH   1  16
ATOM     15  N   UNL     1     -10.295  12.107  63.562  0.00  0.00    -0.169 NA
ATOM     16  C   UNL     1     -10.233  10.809  63.637  0.00  0.00    +0.155 C 
BRANCH  15  22
ATOM     17  O   UNL     1     -11.944  14.409  67.469  0.00  0.00    -0.271 OA
ATOM     18  C   UNL     1     -11.855  14.055  66.263  0.00  0.00    +0.272 C 
ATOM     19  N   UNL     1     -12.863  13.743  65.324  0.00  0.00    -0.125 NA
ATOM     20  C   UNL     1     -12.441  12.785  64.567  0.00  0.00    +0.349 C 
ATOM     21  O   UNL     1     -13.287  12.074  63.709  0.00  0.00    -0.249 OA
ATOM     22  N   UNL     1     -11.011  12.711  64.615  0.00  0.00    -0.154 N 
ATOM     23  C   UNL     1     -10.570  13.653  65.609  0.00  0.00    +0.208 C 
ENDBRANCH  15  22
ENDBRANCH   1  16
TORSDOF 4
ENDMDL
