MODEL 1
REMARK VINA RESULT:      -7.4      0.000      0.000
REMARK  Name = 
REMARK  4 active torsions:
REMARK  status: ('A' for Active; 'I' for Inactive)
REMARK    1  A    between atoms: C_8  and  O_9
REMARK    2  A    between atoms: O_9  and  C_10
REMARK    3  A    between atoms: C_10  and  C_11
REMARK    4  A    between atoms: C_10  and  C_17
REMARK                            x       y       z     vdW  Elec       q    Type
REMARK                         _______ _______ _______ _____ _____    ______ ____
ROOT
ATOM      1  C   UNL     1     -11.799  15.565  69.218  0.00  0.00    +0.160 C 
ENDROOT
BRANCH   1   2
ATOM      2  C   UNL     1     -11.845  14.261  68.533  0.00  0.00    +0.009 A 
ATOM      3  C   UNL     1     -12.069  14.128  67.174  0.00  0.00    -0.002 A 
ATOM      4  C   UNL     1     -11.971  12.894  66.544  0.00  0.00    -0.000 A 
ATOM      5  C   UNL     1     -11.264  11.908  67.200  0.00  0.00    -0.000 A 
ATOM      6  C   UNL     1     -11.102  12.031  68.561  0.00  0.00    -0.000 A 
ATOM      7  C   UNL     1     -11.649  13.103  69.260  0.00  0.00    -0.002 A 
ENDBRANCH   1   2
BRANCH   1   8
ATOM      8  C   UNL     1     -12.284  15.343  70.612  0.00  0.00    +0.009 A 
ATOM      9  C   UNL     1     -11.452  15.494  71.692  0.00  0.00    -0.002 A 
ATOM     10  C   UNL     1     -12.057  15.882  72.881  0.00  0.00    -0.000 A 
ATOM     11  C   UNL     1     -13.439  15.878  73.031  0.00  0.00    -0.000 A 
ATOM     12  C   UNL     1     -14.163  15.243  72.056  0.00  0.00    -0.000 A 
ATOM     13  C   UNL     1     -13.635  15.083  70.795  0.00  0.00    -0.002 A 
ENDBRANCH   1   8
BRANCH   1  14
ATOM     14  O   UNL     1     -10.528  16.126  69.282  0.00  0.00    -0.350 OA
BRANCH  14  19
ATOM     15  C   UNL     1     -10.560  19.614  65.752  0.00  0.00    +0.090 C 
ATOM     16  N   UNL     1     -10.399  18.763  66.738  0.00  0.00    -0.274 NA
ATOM     17  C   UNL     1      -9.044  18.026  66.488  0.00  0.00    +0.060 C 
ATOM     18  C   UNL     1      -9.421  16.666  67.347  0.00  0.00    +0.046 C 
ATOM     19  C   UNL     1     -10.714  17.194  68.221  0.00  0.00    +0.119 C 
ATOM     20  C   UNL     1      -9.785  18.297  69.021  0.00  0.00    +0.046 C 
ATOM     21  C   UNL     1      -8.175  18.665  67.722  0.00  0.00    +0.017 C 
ATOM     22  C   UNL     1      -8.611  20.012  67.596  0.00  0.00    +0.017 C 
ATOM     23  C   UNL     1     -10.146  19.591  68.041  0.00  0.00    +0.060 C 
ENDBRANCH  14  19
ENDBRANCH   1  14
TORSDOF 4
ENDMDL
MODEL 2
REMARK VINA RESULT:      -7.2      0.962      4.093
REMARK  Name = 
REMARK  4 active torsions:
REMARK  status: ('A' for Active; 'I' for Inactive)
REMARK    1  A    between atoms: C_8  and  O_9
REMARK    2  A    between atoms: O_9  and  C_10
REMARK    3  A    between atoms: C_10  and  C_11
REMARK    4  A    between atoms: C_10  and  C_17
REMARK                            x       y       z     vdW  Elec       q    Type
REMARK                         _______ _______ _______ _____ _____    ______ ____
ROOT
ATOM      1  C   UNL     1     -11.288  15.576  69.397  0.00  0.00    +0.160 C 
ENDROOT
BRANCH   1   2
ATOM      2  C   UNL     1     -12.135  15.658  70.600  0.00  0.00    +0.009 A 
ATOM      3  C   UNL     1     -13.462  15.265  70.619  0.00  0.00    -0.002 A 
ATOM      4  C   UNL     1     -14.187  15.230  71.803  0.00  0.00    -0.000 A 
ATOM      5  C   UNL     1     -13.469  15.198  72.980  0.00  0.00    -0.000 A 
ATOM      6  C   UNL     1     -12.169  15.648  72.950  0.00  0.00    -0.000 A 
ATOM      7  C   UNL     1     -11.599  16.137  71.779  0.00  0.00    -0.002 A 
ENDBRANCH   1   2
BRANCH   1   8
ATOM      8  C   UNL     1     -11.698  14.343  68.660  0.00  0.00    +0.009 A 
ATOM      9  C   UNL     1     -12.086  14.391  67.346  0.00  0.00    -0.002 A 
ATOM     10  C   UNL     1     -11.847  13.247  66.594  0.00  0.00    -0.000 A 
ATOM     11  C   UNL     1     -11.466  12.051  67.189  0.00  0.00    -0.000 A 
ATOM     12  C   UNL     1     -11.581  11.977  68.553  0.00  0.00    -0.000 A 
ATOM     13  C   UNL     1     -11.569  13.125  69.313  0.00  0.00    -0.002 A 
ENDBRANCH   1   8
BRANCH   1  14
ATOM     14  O   UNL     1     -11.417  16.661  68.538  0.00  0.00    -0.350 OA
BRANCH  14  19
ATOM     15  C   UNL     1      -6.756  18.263  67.952  0.00  0.00    +0.090 C 
ATOM     16  N   UNL     1      -8.035  17.965  67.992  0.00  0.00    -0.274 NA
ATOM     17  C   UNL     1      -8.788  19.250  68.465  0.00  0.00    +0.060 C 
ATOM     18  C   UNL     1     -10.108  18.465  69.076  0.00  0.00    +0.046 C 
ATOM     19  C   UNL     1      -9.943  16.982  68.380  0.00  0.00    +0.119 C 
ATOM     20  C   UNL     1     -10.137  17.616  66.869  0.00  0.00    +0.046 C 
ATOM     21  C   UNL     1      -9.554  19.625  67.067  0.00  0.00    +0.017 C 
ATOM     22  C   UNL     1      -8.475  19.379  66.175  0.00  0.00    +0.017 C 
ATOM     23  C   UNL     1      -8.518  17.763  66.518  0.00  0.00    +0.060 C 
ENDBRANCH  14  19
ENDBRANCH   1  14
TORSDOF 4
ENDMDL
MODEL 3
REMARK VINA RESULT:      -7.2      3.397      4.704
REMARK  Name = 
REMARK  4 active torsions:
REMARK  status: ('A' for Active; 'I' for Inactive)
REMARK    1  A    between atoms: C_8  and  O_9
REMARK    2  A    between atoms: O_9  and  C_10
REMARK    3  A    between atoms: C_10  and  C_11
REMARK    4  A    between atoms: C_10  and  C_17
REMARK                            x       y       z     vdW  Elec       q    Type
REMARK                         _______ _______ _______ _____ _____    ______ ____
ROOT
ATOM      1  C   UNL     1     -12.115  12.346  69.546  0.00  0.00    +0.160 C 
ENDROOT
BRANCH   1   2
ATOM      2  C   UNL     1     -11.917  11.021  70.160  0.00  0.00    +0.009 A 
ATOM      3  C   UNL     1     -10.676  10.420  70.274  0.00  0.00    -0.002 A 
ATOM      4  C   UNL     1     -10.511   9.234  70.978  0.00  0.00    -0.000 A 
ATOM      5  C   UNL     1     -11.498   8.897  71.881  0.00  0.00    -0.000 A 
ATOM      6  C   UNL     1     -12.740   9.463  71.714  0.00  0.00    -0.000 A 
ATOM      7  C   UNL     1     -13.004  10.332  70.661  0.00  0.00    -0.002 A 
ENDBRANCH   1   2
BRANCH   1   8
ATOM      8  C   UNL     1     -12.274  13.324  70.664  0.00  0.00    +0.009 A 
ATOM      9  C   UNL     1     -11.654  14.547  70.639  0.00  0.00    -0.002 A 
ATOM     10  C   UNL     1     -12.298  15.574  71.318  0.00  0.00    -0.000 A 
ATOM     11  C   UNL     1     -13.367  15.326  72.170  0.00  0.00    -0.000 A 
ATOM     12  C   UNL     1     -13.597  14.018  72.506  0.00  0.00    -0.000 A 
ATOM     13  C   UNL     1     -13.160  13.004  71.684  0.00  0.00    -0.002 A 
ENDBRANCH   1   8
BRANCH   1  14
ATOM     14  O   UNL     1     -11.057  12.766  68.747  0.00  0.00    -0.350 OA
BRANCH  14  19
ATOM     15  C   UNL     1     -12.676  12.139  64.098  0.00  0.00    +0.090 C 
ATOM     16  N   UNL     1     -12.188  12.462  65.273  0.00  0.00    -0.274 NA
ATOM     17  C   UNL     1     -10.659  12.717  65.079  0.00  0.00    +0.060 C 
ATOM     18  C   UNL     1     -10.227  12.398  66.641  0.00  0.00    +0.046 C 
ATOM     19  C   UNL     1     -11.688  12.485  67.397  0.00  0.00    +0.119 C 
ATOM     20  C   UNL     1     -11.841  14.084  67.020  0.00  0.00    +0.046 C 
ATOM     21  C   UNL     1     -10.639  14.338  65.316  0.00  0.00    +0.017 C 
ATOM     22  C   UNL     1     -11.803  14.664  64.568  0.00  0.00    +0.017 C 
ATOM     23  C   UNL     1     -12.762  13.867  65.653  0.00  0.00    +0.060 C 
ENDBRANCH  14  19
ENDBRANCH   1  14
TORSDOF 4
ENDMDL
MODEL 4
REMARK VINA RESULT:      -7.1      2.305      4.628
REMARK  Name = 
REMARK  4 active torsions:
REMARK  status: ('A' for Active; 'I' for Inactive)
REMARK    1  A    between atoms: C_8  and  O_9
REMARK    2  A    between atoms: O_9  and  C_10
REMARK    3  A    between atoms: C_10  and  C_11
REMARK    4  A    between atoms: C_10  and  C_17
REMARK                            x       y       z     vdW  Elec       q    Type
REMARK                         _______ _______ _______ _____ _____    ______ ____
ROOT
ATOM      1  C   UNL     1     -10.561  14.149  66.930  0.00  0.00    +0.160 C 
ENDROOT
BRANCH   1   2
ATOM      2  C   UNL     1     -10.854  13.103  67.925  0.00  0.00    +0.009 A 
ATOM      3  C   UNL     1     -11.624  13.326  69.053  0.00  0.00    -0.002 A 
ATOM      4  C   UNL     1     -11.990  12.284  69.895  0.00  0.00    -0.000 A 
ATOM      5  C   UNL     1     -11.923  11.007  69.379  0.00  0.00    -0.000 A 
ATOM      6  C   UNL     1     -11.107  10.795  68.293  0.00  0.00    -0.000 A 
ATOM      7  C   UNL     1     -10.356  11.828  67.740  0.00  0.00    -0.002 A 
ENDBRANCH   1   2
BRANCH   1   8
ATOM      8  C   UNL     1     -11.049  13.645  65.612  0.00  0.00    +0.009 A 
ATOM      9  C   UNL     1     -10.183  13.376  64.583  0.00  0.00    -0.002 A 
ATOM     10  C   UNL     1     -10.579  12.385  63.693  0.00  0.00    -0.000 A 
ATOM     11  C   UNL     1     -11.871  11.874  63.699  0.00  0.00    -0.000 A 
ATOM     12  C   UNL     1     -12.800  12.554  64.441  0.00  0.00    -0.000 A 
ATOM     13  C   UNL     1     -12.401  13.351  65.490  0.00  0.00    -0.002 A 
ENDBRANCH   1   8
BRANCH   1  14
ATOM     14  O   UNL     1     -11.182  15.367  67.188  0.00  0.00    -0.350 OA
BRANCH  14  19
ATOM     15  C   UNL     1      -7.462  18.480  68.238  0.00  0.00    +0.090 C 
ATOM     16  N   UNL     1      -8.530  17.797  67.893  0.00  0.00    -0.274 NA
ATOM     17  C   UNL     1      -9.743  18.440  68.638  0.00  0.00    +0.060 C 
ATOM     18  C   UNL     1     -10.696  17.090  68.621  0.00  0.00    +0.046 C 
ATOM     19  C   UNL     1      -9.936  16.183  67.476  0.00  0.00    +0.119 C 
ATOM     20  C   UNL     1     -10.269  17.295  66.304  0.00  0.00    +0.046 C 
ATOM     21  C   UNL     1     -10.511  19.101  67.351  0.00  0.00    +0.017 C 
ATOM     22  C   UNL     1      -9.369  19.619  66.681  0.00  0.00    +0.017 C 
ATOM     23  C   UNL     1      -8.811  18.092  66.383  0.00  0.00    +0.060 C 
ENDBRANCH  14  19
ENDBRANCH   1  14
TORSDOF 4
ENDMDL
MODEL 5
REMARK VINA RESULT:      -6.9      1.930      6.269
REMARK  Name = 
REMARK  4 active torsions:
REMARK  status: ('A' for Active; 'I' for Inactive)
REMARK    1  A    between atoms: C_8  and  O_9
REMARK    2  A    between atoms: O_9  and  C_10
REMARK    3  A    between atoms: C_10  and  C_11
REMARK    4  A    between atoms: C_10  and  C_17
REMARK                            x       y       z     vdW  Elec       q    Type
REMARK                         _______ _______ _______ _____ _____    ______ ____
ROOT
ATOM      1  C   UNL     1     -10.968  16.253  68.194  0.00  0.00    +0.160 C 
ENDROOT
BRANCH   1   2
ATOM      2  C   UNL     1     -10.409  17.552  67.780  0.00  0.00    +0.009 A 
ATOM      3  C   UNL     1     -10.498  18.036  66.487  0.00  0.00    -0.002 A 
ATOM      4  C   UNL     1     -10.079  19.321  66.167  0.00  0.00    -0.000 A 
ATOM      5  C   UNL     1      -9.964  20.221  67.206  0.00  0.00    -0.000 A 
ATOM      6  C   UNL     1      -9.819  19.717  68.478  0.00  0.00    -0.000 A 
ATOM      7  C   UNL     1      -9.772  18.347  68.712  0.00  0.00    -0.002 A 
ENDBRANCH   1   2
BRANCH   1   8
ATOM      8  C   UNL     1     -10.346  15.213  67.322  0.00  0.00    +0.009 A 
ATOM      9  C   UNL     1      -9.014  14.902  67.417  0.00  0.00    -0.002 A 
ATOM     10  C   UNL     1      -8.662  13.600  67.081  0.00  0.00    -0.000 A 
ATOM     11  C   UNL     1      -9.559  12.743  66.455  0.00  0.00    -0.000 A 
ATOM     12  C   UNL     1     -10.707  13.304  65.961  0.00  0.00    -0.000 A 
ATOM     13  C   UNL     1     -11.180  14.487  66.482  0.00  0.00    -0.002 A 
ENDBRANCH   1   8
BRANCH   1  14
ATOM     14  O   UNL     1     -10.711  15.921  69.519  0.00  0.00    -0.350 OA
BRANCH  14  19
ATOM     15  C   UNL     1     -15.195  15.280  71.550  0.00  0.00    +0.090 C 
ATOM     16  N   UNL     1     -13.951  15.331  71.130  0.00  0.00    -0.274 NA
ATOM     17  C   UNL     1     -13.076  15.768  72.348  0.00  0.00    +0.060 C 
ATOM     18  C   UNL     1     -11.839  16.405  71.457  0.00  0.00    +0.046 C 
ATOM     19  C   UNL     1     -12.147  15.751  69.977  0.00  0.00    +0.119 C 
ATOM     20  C   UNL     1     -11.894  14.223  70.546  0.00  0.00    +0.046 C 
ATOM     21  C   UNL     1     -12.278  14.361  72.606  0.00  0.00    +0.017 C 
ATOM     22  C   UNL     1     -13.377  13.475  72.440  0.00  0.00    +0.017 C 
ATOM     23  C   UNL     1     -13.491  13.865  70.839  0.00  0.00    +0.060 C 
ENDBRANCH  14  19
ENDBRANCH   1  14
TORSDOF 4
ENDMDL
MODEL 6
REMARK VINA RESULT:      -6.8      2.449      3.608
REMARK  Name = 
REMARK  4 active torsions:
REMARK  status: ('A' for Active; 'I' for Inactive)
REMARK    1  A    between atoms: C_8  and  O_9
REMARK    2  A    between atoms: O_9  and  C_10
REMARK    3  A    between atoms: C_10  and  C_11
REMARK    4  A    between atoms: C_10  and  C_17
REMARK                            x       y       z     vdW  Elec       q    Type
REMARK                         _______ _______ _______ _____ _____    ______ ____
ROOT
ATOM      1  C   UNL     1     -10.597  14.328  66.768  0.00  0.00    +0.160 C 
ENDROOT
BRANCH   1   2
ATOM      2  C   UNL     1     -11.060  13.654  65.542  0.00  0.00    +0.009 A 
ATOM      3  C   UNL     1     -10.197  13.133  64.594  0.00  0.00    -0.002 A 
ATOM      4  C   UNL     1     -10.669  12.387  63.522  0.00  0.00    -0.000 A 
ATOM      5  C   UNL     1     -11.930  11.843  63.642  0.00  0.00    -0.000 A 
ATOM      6  C   UNL     1     -12.792  12.413  64.551  0.00  0.00    -0.000 A 
ATOM      7  C   UNL     1     -12.414  13.514  65.312  0.00  0.00    -0.002 A 
ENDBRANCH   1   2
BRANCH   1   8
ATOM      8  C   UNL     1     -10.565  13.297  67.847  0.00  0.00    +0.009 A 
ATOM      9  C   UNL     1     -11.509  13.272  68.842  0.00  0.00    -0.002 A 
ATOM     10  C   UNL     1     -11.791  12.026  69.388  0.00  0.00    -0.000 A 
ATOM     11  C   UNL     1     -10.998  10.917  69.120  0.00  0.00    -0.000 A 
ATOM     12  C   UNL     1      -9.796  11.152  68.506  0.00  0.00    -0.000 A 
ATOM     13  C   UNL     1      -9.612  12.291  67.755  0.00  0.00    -0.002 A 
ENDBRANCH   1   8
BRANCH   1  14
ATOM     14  O   UNL     1      -9.328  14.888  66.663  0.00  0.00    -0.350 OA
BRANCH  14  19
ATOM     15  C   UNL     1     -10.231  19.699  65.842  0.00  0.00    +0.090 C 
ATOM     16  N   UNL     1      -9.925  18.477  66.214  0.00  0.00    -0.274 NA
ATOM     17  C   UNL     1      -8.383  18.450  66.465  0.00  0.00    +0.060 C 
ATOM     18  C   UNL     1      -8.192  16.828  66.211  0.00  0.00    +0.046 C 
ATOM     19  C   UNL     1      -9.749  16.306  66.325  0.00  0.00    +0.119 C 
ATOM     20  C   UNL     1      -9.839  16.766  67.907  0.00  0.00    +0.046 C 
ATOM     21  C   UNL     1      -8.394  18.279  68.094  0.00  0.00    +0.017 C 
ATOM     22  C   UNL     1      -9.431  19.206  68.386  0.00  0.00    +0.017 C 
ATOM     23  C   UNL     1     -10.545  18.246  67.631  0.00  0.00    +0.060 C 
ENDBRANCH  14  19
ENDBRANCH   1  14
TORSDOF 4
ENDMDL
MODEL 7
REMARK VINA RESULT:      -6.8      1.413      4.245
REMARK  Name = 
REMARK  4 active torsions:
REMARK  status: ('A' for Active; 'I' for Inactive)
REMARK    1  A    between atoms: C_8  and  O_9
REMARK    2  A    between atoms: O_9  and  C_10
REMARK    3  A    between atoms: C_10  and  C_11
REMARK    4  A    between atoms: C_10  and  C_17
REMARK                            x       y       z     vdW  Elec       q    Type
REMARK                         _______ _______ _______ _____ _____    ______ ____
ROOT
ATOM      1  C   UNL     1     -10.639  15.185  68.130  0.00  0.00    +0.160 C 
ENDROOT
BRANCH   1   2
ATOM      2  C   UNL     1     -11.553  14.730  69.193  0.00  0.00    +0.009 A 
ATOM      3  C   UNL     1     -11.630  13.414  69.612  0.00  0.00    -0.002 A 
ATOM      4  C   UNL     1     -12.404  13.049  70.707  0.00  0.00    -0.000 A 
ATOM      5  C   UNL     1     -12.753  14.049  71.590  0.00  0.00    -0.000 A 
ATOM      6  C   UNL     1     -12.725  15.347  71.134  0.00  0.00    -0.000 A 
ATOM      7  C   UNL     1     -12.375  15.645  69.821  0.00  0.00    -0.002 A 
ENDBRANCH   1   2
BRANCH   1   8
ATOM      8  C   UNL     1     -10.864  14.296  66.952  0.00  0.00    +0.009 A 
ATOM      9  C   UNL     1      -9.914  13.396  66.541  0.00  0.00    -0.002 A 
ATOM     10  C   UNL     1     -10.387  12.251  65.912  0.00  0.00    -0.000 A 
ATOM     11  C   UNL     1     -11.710  12.137  65.505  0.00  0.00    -0.000 A 
ATOM     12  C   UNL     1     -12.461  13.283  65.520  0.00  0.00    -0.000 A 
ATOM     13  C   UNL     1     -12.112  14.329  66.344  0.00  0.00    -0.002 A 
ENDBRANCH   1   8
BRANCH   1  14
ATOM     14  O   UNL     1     -10.844  16.500  67.730  0.00  0.00    -0.350 OA
BRANCH  14  19
ATOM     15  C   UNL     1      -6.442  18.707  68.352  0.00  0.00    +0.090 C 
ATOM     16  N   UNL     1      -7.635  18.242  68.060  0.00  0.00    -0.274 NA
ATOM     17  C   UNL     1      -8.645  19.415  68.265  0.00  0.00    +0.060 C 
ATOM     18  C   UNL     1      -9.970  18.464  68.530  0.00  0.00    +0.046 C 
ATOM     19  C   UNL     1      -9.435  17.014  67.960  0.00  0.00    +0.119 C 
ATOM     20  C   UNL     1      -9.293  17.613  66.430  0.00  0.00    +0.046 C 
ATOM     21  C   UNL     1      -9.046  19.682  66.699  0.00  0.00    +0.017 C 
ATOM     22  C   UNL     1      -7.744  19.579  66.138  0.00  0.00    +0.017 C 
ATOM     23  C   UNL     1      -7.672  17.973  66.519  0.00  0.00    +0.060 C 
ENDBRANCH  14  19
ENDBRANCH   1  14
TORSDOF 4
ENDMDL
MODEL 8
REMARK VINA RESULT:      -6.7      3.361      6.978
REMARK  Name = 
REMARK  4 active torsions:
REMARK  status: ('A' for Active; 'I' for Inactive)
REMARK    1  A    between atoms: C_8  and  O_9
REMARK    2  A    between atoms: O_9  and  C_10
REMARK    3  A    between atoms: C_10  and  C_11
REMARK    4  A    between atoms: C_10  and  C_17
REMARK                            x       y       z     vdW  Elec       q    Type
REMARK                         _______ _______ _______ _____ _____    ______ ____
ROOT
ATOM      1  C   UNL     1      -9.094  16.464  66.319  0.00  0.00    +0.160 C 
ENDROOT
BRANCH   1   2
ATOM      2  C   UNL     1      -9.625  17.728  66.860  0.00  0.00    +0.009 A 
ATOM      3  C   UNL     1      -9.395  18.151  68.157  0.00  0.00    -0.002 A 
ATOM      4  C   UNL     1      -9.796  19.409  68.587  0.00  0.00    -0.000 A 
ATOM      5  C   UNL     1     -10.049  20.354  67.616  0.00  0.00    -0.000 A 
ATOM      6  C   UNL     1     -10.331  19.909  66.345  0.00  0.00    -0.000 A 
ATOM      7  C   UNL     1     -10.381  18.551  66.049  0.00  0.00    -0.002 A 
ENDBRANCH   1   2
BRANCH   1   8
ATOM      8  C   UNL     1      -7.608  16.519  66.462  0.00  0.00    +0.009 A 
ATOM      9  C   UNL     1      -6.870  17.519  65.882  0.00  0.00    -0.002 A 
ATOM     10  C   UNL     1      -5.688  17.861  66.529  0.00  0.00    -0.000 A 
ATOM     11  C   UNL     1      -5.166  17.079  67.552  0.00  0.00    -0.000 A 
ATOM     12  C   UNL     1      -5.720  15.839  67.726  0.00  0.00    -0.000 A 
ATOM     13  C   UNL     1      -7.002  15.586  67.292  0.00  0.00    -0.002 A 
ENDBRANCH   1   8
BRANCH   1  14
ATOM     14  O   UNL     1      -9.553  15.328  66.978  0.00  0.00    -0.350 OA
BRANCH  14  19
ATOM     15  C   UNL     1     -11.962  12.767  63.475  0.00  0.00    +0.090 C 
ATOM     16  N   UNL     1     -11.331  13.297  64.498  0.00  0.00    -0.274 NA
ATOM     17  C   UNL     1     -12.284  13.182  65.731  0.00  0.00    +0.060 C 
ATOM     18  C   UNL     1     -11.630  14.442  66.577  0.00  0.00    +0.046 C 
ATOM     19  C   UNL     1     -10.197  14.640  65.790  0.00  0.00    +0.119 C 
ATOM     20  C   UNL     1      -9.683  13.141  66.248  0.00  0.00    +0.046 C 
ATOM     21  C   UNL     1     -11.453  12.063  66.592  0.00  0.00    +0.017 C 
ATOM     22  C   UNL     1     -11.111  11.198  65.517  0.00  0.00    +0.017 C 
ATOM     23  C   UNL     1     -10.134  12.354  64.854  0.00  0.00    +0.060 C 
ENDBRANCH  14  19
ENDBRANCH   1  14
TORSDOF 4
ENDMDL
MODEL 9
REMARK VINA RESULT:      -6.6      3.906      6.694
REMARK  Name = 
REMARK  4 active torsions:
REMARK  status: ('A' for Active; 'I' for Inactive)
REMARK    1  A    between atoms: C_8  and  O_9
REMARK    2  A    between atoms: O_9  and  C_10
REMARK    3  A    between atoms: C_10  and  C_11
REMARK    4  A    between atoms: C_10  and  C_17
REMARK                            x       y       z     vdW  Elec       q    Type
REMARK                         _______ _______ _______ _____ _____    ______ ____
ROOT
ATOM      1  C   UNL     1     -10.554  10.546  68.484  0.00  0.00    +0.160 C 
ENDROOT
BRANCH   1   2
ATOM      2  C   UNL     1     -11.045  10.153  69.816  0.00  0.00    +0.009 A 
ATOM      3  C   UNL     1     -12.333  10.408  70.253  0.00  0.00    -0.002 A 
ATOM      4  C   UNL     1     -12.799   9.903  71.460  0.00  0.00    -0.000 A 
ATOM      5  C   UNL     1     -12.114   8.835  72.000  0.00  0.00    -0.000 A 
ATOM      6  C   UNL     1     -10.815   8.634  71.595  0.00  0.00    -0.000 A 
ATOM      7  C   UNL     1     -10.202   9.488  70.684  0.00  0.00    -0.002 A 
ENDBRANCH   1   2
BRANCH   1   8
ATOM      8  C   UNL     1      -9.912   9.340  67.883  0.00  0.00    +0.009 A 
ATOM      9  C   UNL     1      -8.549   9.185  67.873  0.00  0.00    -0.002 A 
ATOM     10  C   UNL     1      -8.082   7.876  67.894  0.00  0.00    -0.000 A 
ATOM     11  C   UNL     1      -8.931   6.796  67.691  0.00  0.00    -0.000 A 
ATOM     12  C   UNL     1     -10.188   7.079  67.223  0.00  0.00    -0.000 A 
ATOM     13  C   UNL     1     -10.740   8.323  67.429  0.00  0.00    -0.002 A 
ENDBRANCH   1   8
BRANCH   1  14
ATOM     14  O   UNL     1     -11.551  10.986  67.619  0.00  0.00    -0.350 OA
BRANCH  14  19
ATOM     15  C   UNL     1      -9.689  15.183  65.735  0.00  0.00    +0.090 C 
ATOM     16  N   UNL     1     -10.324  14.105  66.135  0.00  0.00    -0.274 NA
ATOM     17  C   UNL     1     -11.661  14.580  66.789  0.00  0.00    +0.060 C 
ATOM     18  C   UNL     1     -11.867  13.253  67.753  0.00  0.00    +0.046 C 
ATOM     19  C   UNL     1     -10.824  12.189  67.051  0.00  0.00    +0.119 C 
ATOM     20  C   UNL     1     -11.695  12.185  65.650  0.00  0.00    +0.046 C 
ATOM     21  C   UNL     1     -12.709  14.025  65.659  0.00  0.00    +0.017 C 
ATOM     22  C   UNL     1     -11.978  14.410  64.502  0.00  0.00    +0.017 C 
ATOM     23  C   UNL     1     -10.782  13.326  64.858  0.00  0.00    +0.060 C 
ENDBRANCH  14  19
ENDBRANCH   1  14
TORSDOF 4
ENDMDL
