MODEL 1
REMARK VINA RESULT:      -3.7      0.000      0.000
REMARK  Name = 
REMARK  4 active torsions:
REMARK  status: ('A' for Active; 'I' for Inactive)
REMARK    1  A    between atoms: C_2  and  O_4
REMARK    2  A    between atoms: O_4  and  C_5
REMARK    3  A    between atoms: C_5  and  C_6
REMARK    4  A    between atoms: C_6  and  N_7
REMARK                            x       y       z     vdW  Elec       q    Type
REMARK                         _______ _______ _______ _____ _____    ______ ____
ROOT
ATOM      1  C   UNL     1     -11.892  12.720  66.255  0.00  0.00    +0.269 C 
ENDROOT
BRANCH   1   2
ATOM      2  O   UNL     1     -12.717  12.474  65.120  0.00  0.00    -0.442 OA
BRANCH   2   4
ATOM      3  C   UNL     1     -10.906  11.830  63.491  0.00  0.00    +0.121 C 
ATOM      4  C   UNL     1     -12.144  12.554  63.849  0.00  0.00    +0.318 C 
ATOM      5  O   UNL     1     -12.623  13.465  63.113  0.00  0.00    -0.250 OA
ENDBRANCH   2   4
ENDBRANCH   1   2
BRANCH   1   6
ATOM      6  C   UNL     1     -12.052  14.178  66.589  0.00  0.00    +0.157 C 
BRANCH   6   7
ATOM      7  N   UNL     1     -10.834  14.936  66.460  0.00  0.00    +0.313 N 
ATOM      8  C   UNL     1     -10.719  15.645  65.213  0.00  0.00    +0.171 C 
ATOM      9  C   UNL     1      -9.738  13.968  66.484  0.00  0.00    +0.171 C 
ATOM     10  C   UNL     1     -10.617  15.822  67.600  0.00  0.00    +0.171 C 
ENDBRANCH   6   7
ENDBRANCH   1   6
TORSDOF 4
ENDMDL
MODEL 2
REMARK VINA RESULT:      -3.6      3.571      4.601
REMARK  Name = 
REMARK  4 active torsions:
REMARK  status: ('A' for Active; 'I' for Inactive)
REMARK    1  A    between atoms: C_2  and  O_4
REMARK    2  A    between atoms: O_4  and  C_5
REMARK    3  A    between atoms: C_5  and  C_6
REMARK    4  A    between atoms: C_6  and  N_7
REMARK                            x       y       z     vdW  Elec       q    Type
REMARK                         _______ _______ _______ _____ _____    ______ ____
ROOT
ATOM      1  C   UNL     1     -10.104  17.097  66.728  0.00  0.00    +0.269 C 
ENDROOT
BRANCH   1   2
ATOM      2  O   UNL     1      -9.911  16.479  65.459  0.00  0.00    -0.442 OA
BRANCH   2   4
ATOM      3  C   UNL     1     -11.346  14.478  64.926  0.00  0.00    +0.121 C 
ATOM      4  C   UNL     1     -11.016  15.914  64.817  0.00  0.00    +0.318 C 
ATOM      5  O   UNL     1     -11.563  16.664  63.958  0.00  0.00    -0.250 OA
ENDBRANCH   2   4
ENDBRANCH   1   2
BRANCH   1   6
ATOM      6  C   UNL     1      -8.899  17.965  66.967  0.00  0.00    +0.157 C 
BRANCH   6   7
ATOM      7  N   UNL     1      -9.224  19.343  67.231  0.00  0.00    +0.313 N 
ATOM      8  C   UNL     1      -8.092  20.230  67.173  0.00  0.00    +0.171 C 
ATOM      9  C   UNL     1      -9.718  19.397  68.607  0.00  0.00    +0.171 C 
ATOM     10  C   UNL     1     -10.318  19.818  66.389  0.00  0.00    +0.171 C 
ENDBRANCH   6   7
ENDBRANCH   1   6
TORSDOF 4
ENDMDL
MODEL 3
REMARK VINA RESULT:      -3.6      4.927      6.811
REMARK  Name = 
REMARK  4 active torsions:
REMARK  status: ('A' for Active; 'I' for Inactive)
REMARK    1  A    between atoms: C_2  and  O_4
REMARK    2  A    between atoms: O_4  and  C_5
REMARK    3  A    between atoms: C_5  and  C_6
REMARK    4  A    between atoms: C_6  and  N_7
REMARK                            x       y       z     vdW  Elec       q    Type
REMARK                         _______ _______ _______ _____ _____    ______ ____
ROOT
ATOM      1  C   UNL     1     -12.739  15.436  70.599  0.00  0.00    +0.269 C 
ENDROOT
BRANCH   1   2
ATOM      2  O   UNL     1     -13.314  15.953  71.796  0.00  0.00    -0.442 OA
BRANCH   2   4
ATOM      3  C   UNL     1     -12.478  15.542  74.137  0.00  0.00    +0.121 C 
ATOM      4  C   UNL     1     -13.274  15.165  72.949  0.00  0.00    +0.318 C 
ATOM      5  O   UNL     1     -13.769  14.010  72.813  0.00  0.00    -0.250 OA
ENDBRANCH   2   4
ENDBRANCH   1   2
BRANCH   1   6
ATOM      6  C   UNL     1     -11.356  16.020  70.504  0.00  0.00    +0.157 C 
BRANCH   6   7
ATOM      7  N   UNL     1     -10.715  15.785  69.236  0.00  0.00    +0.313 N 
ATOM      8  C   UNL     1      -9.337  15.387  69.344  0.00  0.00    +0.171 C 
ATOM      9  C   UNL     1     -10.720  17.063  68.525  0.00  0.00    +0.171 C 
ATOM     10  C   UNL     1     -11.475  14.857  68.404  0.00  0.00    +0.171 C 
ENDBRANCH   6   7
ENDBRANCH   1   6
TORSDOF 4
ENDMDL
MODEL 4
REMARK VINA RESULT:      -3.6      5.068      6.350
REMARK  Name = 
REMARK  4 active torsions:
REMARK  status: ('A' for Active; 'I' for Inactive)
REMARK    1  A    between atoms: C_2  and  O_4
REMARK    2  A    between atoms: O_4  and  C_5
REMARK    3  A    between atoms: C_5  and  C_6
REMARK    4  A    between atoms: C_6  and  N_7
REMARK                            x       y       z     vdW  Elec       q    Type
REMARK                         _______ _______ _______ _____ _____    ______ ____
ROOT
ATOM      1  C   UNL     1     -11.870  15.888  70.695  0.00  0.00    +0.269 C 
ENDROOT
BRANCH   1   2
ATOM      2  O   UNL     1     -11.991  16.205  69.311  0.00  0.00    -0.442 OA
BRANCH   2   4
ATOM      3  C   UNL     1      -9.577  15.857  68.681  0.00  0.00    +0.121 C 
ATOM      4  C   UNL     1     -10.848  16.609  68.617  0.00  0.00    +0.318 C 
ATOM      5  O   UNL     1     -10.913  17.774  68.131  0.00  0.00    -0.250 OA
ENDBRANCH   2   4
ENDBRANCH   1   2
BRANCH   1   6
ATOM      6  C   UNL     1     -12.522  14.545  70.882  0.00  0.00    +0.157 C 
BRANCH   6   7
ATOM      7  N   UNL     1     -13.451  14.503  71.982  0.00  0.00    +0.313 N 
ATOM      8  C   UNL     1     -12.955  15.110  73.188  0.00  0.00    +0.171 C 
ATOM      9  C   UNL     1     -13.664  13.089  72.291  0.00  0.00    +0.171 C 
ATOM     10  C   UNL     1     -14.758  15.038  71.613  0.00  0.00    +0.171 C 
ENDBRANCH   6   7
ENDBRANCH   1   6
TORSDOF 4
ENDMDL
MODEL 5
REMARK VINA RESULT:      -3.5      4.534      6.064
REMARK  Name = 
REMARK  4 active torsions:
REMARK  status: ('A' for Active; 'I' for Inactive)
REMARK    1  A    between atoms: C_2  and  O_4
REMARK    2  A    between atoms: O_4  and  C_5
REMARK    3  A    between atoms: C_5  and  C_6
REMARK    4  A    between atoms: C_6  and  N_7
REMARK                            x       y       z     vdW  Elec       q    Type
REMARK                         _______ _______ _______ _____ _____    ______ ____
ROOT
ATOM      1  C   UNL     1     -11.885  15.377  70.831  0.00  0.00    +0.269 C 
ENDROOT
BRANCH   1   2
ATOM      2  O   UNL     1     -13.102  15.950  71.298  0.00  0.00    -0.442 OA
BRANCH   2   4
ATOM      3  C   UNL     1     -13.835  13.755  72.294  0.00  0.00    +0.121 C 
ATOM      4  C   UNL     1     -14.116  15.095  71.738  0.00  0.00    +0.318 C 
ATOM      5  O   UNL     1     -15.283  15.451  71.408  0.00  0.00    -0.250 OA
ENDBRANCH   2   4
ENDBRANCH   1   2
BRANCH   1   6
ATOM      6  C   UNL     1     -11.878  15.552  69.337  0.00  0.00    +0.157 C 
BRANCH   6   7
ATOM      7  N   UNL     1     -11.436  14.383  68.621  0.00  0.00    +0.313 N 
ATOM      8  C   UNL     1     -11.748  13.143  69.281  0.00  0.00    +0.171 C 
ATOM      9  C   UNL     1      -9.976  14.460  68.562  0.00  0.00    +0.171 C 
ATOM     10  C   UNL     1     -11.897  14.382  67.236  0.00  0.00    +0.171 C 
ENDBRANCH   6   7
ENDBRANCH   1   6
TORSDOF 4
ENDMDL
MODEL 6
REMARK VINA RESULT:      -3.5      4.921      6.682
REMARK  Name = 
REMARK  4 active torsions:
REMARK  status: ('A' for Active; 'I' for Inactive)
REMARK    1  A    between atoms: C_2  and  O_4
REMARK    2  A    between atoms: O_4  and  C_5
REMARK    3  A    between atoms: C_5  and  C_6
REMARK    4  A    between atoms: C_6  and  N_7
REMARK                            x       y       z     vdW  Elec       q    Type
REMARK                         _______ _______ _______ _____ _____    ______ ____
ROOT
ATOM      1  C   UNL     1     -11.512  15.315  70.966  0.00  0.00    +0.269 C 
ENDROOT
BRANCH   1   2
ATOM      2  O   UNL     1     -11.930  16.303  71.903  0.00  0.00    -0.442 OA
BRANCH   2   4
ATOM      3  C   UNL     1     -12.452  15.367  74.184  0.00  0.00    +0.121 C 
ATOM      4  C   UNL     1     -12.858  15.941  72.883  0.00  0.00    +0.318 C 
ATOM      5  O   UNL     1     -14.059  15.920  72.488  0.00  0.00    -0.250 OA
ENDBRANCH   2   4
ENDBRANCH   1   2
BRANCH   1   6
ATOM      6  C   UNL     1     -11.872  15.842  69.603  0.00  0.00    +0.157 C 
BRANCH   6   7
ATOM      7  N   UNL     1     -10.733  16.060  68.749  0.00  0.00    +0.313 N 
ATOM      8  C   UNL     1     -10.899  15.546  67.415  0.00  0.00    +0.171 C 
ATOM      9  C   UNL     1      -9.622  15.315  69.341  0.00  0.00    +0.171 C 
ATOM     10  C   UNL     1     -10.320  17.460  68.734  0.00  0.00    +0.171 C 
ENDBRANCH   6   7
ENDBRANCH   1   6
TORSDOF 4
ENDMDL
MODEL 7
REMARK VINA RESULT:      -3.5      3.259      4.994
REMARK  Name = 
REMARK  4 active torsions:
REMARK  status: ('A' for Active; 'I' for Inactive)
REMARK    1  A    between atoms: C_2  and  O_4
REMARK    2  A    between atoms: O_4  and  C_5
REMARK    3  A    between atoms: C_5  and  C_6
REMARK    4  A    between atoms: C_6  and  N_7
REMARK                            x       y       z     vdW  Elec       q    Type
REMARK                         _______ _______ _______ _____ _____    ______ ____
ROOT
ATOM      1  C   UNL     1      -9.931  16.348  66.063  0.00  0.00    +0.269 C 
ENDROOT
BRANCH   1   2
ATOM      2  O   UNL     1     -10.233  17.700  65.728  0.00  0.00    -0.442 OA
BRANCH   2   4
ATOM      3  C   UNL     1     -10.114  20.023  66.695  0.00  0.00    +0.121 C 
ATOM      4  C   UNL     1     -10.504  18.599  66.762  0.00  0.00    +0.318 C 
ATOM      5  O   UNL     1     -10.886  18.059  67.840  0.00  0.00    -0.250 OA
ENDBRANCH   2   4
ENDBRANCH   1   2
BRANCH   1   6
ATOM      6  C   UNL     1     -10.885  15.491  65.275  0.00  0.00    +0.157 C 
BRANCH   6   7
ATOM      7  N   UNL     1     -11.375  14.351  66.007  0.00  0.00    +0.313 N 
ATOM      8  C   UNL     1     -11.664  14.627  67.389  0.00  0.00    +0.171 C 
ATOM      9  C   UNL     1     -10.298  13.361  66.002  0.00  0.00    +0.171 C 
ATOM     10  C   UNL     1     -12.509  13.720  65.339  0.00  0.00    +0.171 C 
ENDBRANCH   6   7
ENDBRANCH   1   6
TORSDOF 4
ENDMDL
MODEL 8
REMARK VINA RESULT:      -3.4      1.420      1.624
REMARK  Name = 
REMARK  4 active torsions:
REMARK  status: ('A' for Active; 'I' for Inactive)
REMARK    1  A    between atoms: C_2  and  O_4
REMARK    2  A    between atoms: O_4  and  C_5
REMARK    3  A    between atoms: C_5  and  C_6
REMARK    4  A    between atoms: C_6  and  N_7
REMARK                            x       y       z     vdW  Elec       q    Type
REMARK                         _______ _______ _______ _____ _____    ______ ____
ROOT
ATOM      1  C   UNL     1     -11.008  12.760  66.826  0.00  0.00    +0.269 C 
ENDROOT
BRANCH   1   2
ATOM      2  O   UNL     1     -12.171  12.220  66.206  0.00  0.00    -0.442 OA
BRANCH   2   4
ATOM      3  C   UNL     1     -12.030  12.178  63.691  0.00  0.00    +0.121 C 
ATOM      4  C   UNL     1     -12.557  12.721  64.961  0.00  0.00    +0.318 C 
ATOM      5  O   UNL     1     -13.195  13.812  65.008  0.00  0.00    -0.250 OA
ENDBRANCH   2   4
ENDBRANCH   1   2
BRANCH   1   6
ATOM      6  C   UNL     1     -11.486  13.550  68.014  0.00  0.00    +0.157 C 
BRANCH   6   7
ATOM      7  N   UNL     1     -10.934  14.878  68.084  0.00  0.00    +0.313 N 
ATOM      8  C   UNL     1     -10.647  15.459  66.799  0.00  0.00    +0.171 C 
ATOM      9  C   UNL     1      -9.651  14.758  68.776  0.00  0.00    +0.171 C 
ATOM     10  C   UNL     1     -11.753  15.768  68.902  0.00  0.00    +0.171 C 
ENDBRANCH   6   7
ENDBRANCH   1   6
TORSDOF 4
ENDMDL
MODEL 9
REMARK VINA RESULT:      -3.3      4.494      5.989
REMARK  Name = 
REMARK  4 active torsions:
REMARK  status: ('A' for Active; 'I' for Inactive)
REMARK    1  A    between atoms: C_2  and  O_4
REMARK    2  A    between atoms: O_4  and  C_5
REMARK    3  A    between atoms: C_5  and  C_6
REMARK    4  A    between atoms: C_6  and  N_7
REMARK                            x       y       z     vdW  Elec       q    Type
REMARK                         _______ _______ _______ _____ _____    ______ ____
ROOT
ATOM      1  C   UNL     1     -11.936  15.263  70.362  0.00  0.00    +0.269 C 
ENDROOT
BRANCH   1   2
ATOM      2  O   UNL     1     -13.208  15.740  70.791  0.00  0.00    -0.442 OA
BRANCH   2   4
ATOM      3  C   UNL     1     -13.854  13.789  72.249  0.00  0.00    +0.121 C 
ATOM      4  C   UNL     1     -13.741  15.239  71.981  0.00  0.00    +0.318 C 
ATOM      5  O   UNL     1     -14.328  16.100  72.697  0.00  0.00    -0.250 OA
ENDBRANCH   2   4
ENDBRANCH   1   2
BRANCH   1   6
ATOM      6  C   UNL     1     -11.603  16.014  69.101  0.00  0.00    +0.157 C 
BRANCH   6   7
ATOM      7  N   UNL     1     -10.943  15.207  68.107  0.00  0.00    +0.313 N 
ATOM      8  C   UNL     1     -10.577  15.932  66.918  0.00  0.00    +0.171 C 
ATOM      9  C   UNL     1     -11.908  14.192  67.688  0.00  0.00    +0.171 C 
ATOM     10  C   UNL     1      -9.805  14.480  68.661  0.00  0.00    +0.171 C 
ENDBRANCH   6   7
ENDBRANCH   1   6
TORSDOF 4
ENDMDL
