MODEL 1
REMARK VINA RESULT:      -7.5      0.000      0.000
REMARK  Name = 
REMARK  0 active torsions:
REMARK  status: ('A' for Active; 'I' for Inactive)
REMARK                            x       y       z     vdW  Elec       q    Type
REMARK                         _______ _______ _______ _____ _____    ______ ____
ROOT
ATOM      1  C   UNL     1     -11.950  14.078  66.676  0.00  0.00    +0.090 C 
ATOM      2  N   UNL     1     -10.963  14.126  67.413  0.00  0.00    -0.271 NA
ATOM      3  C   UNL     1     -10.784  12.758  67.899  0.00  0.00    +0.077 C 
ATOM      4  C   UNL     1     -12.065  12.867  68.898  0.00  0.00    +0.047 C 
ATOM      5  C   UNL     1     -11.144  13.982  69.798  0.00  0.00    +0.047 C 
ATOM      6  C   UNL     1     -12.421  14.571  70.562  0.00  0.00    +0.014 A 
ATOM      7  C   UNL     1     -13.121  13.789  71.480  0.00  0.00    +0.141 A 
ATOM      8  O   UNL     1     -13.117  12.404  71.705  0.00  0.00    -0.454 OA
ATOM      9  C   UNL     1     -12.592  11.416  70.867  0.00  0.00    +0.141 A 
ATOM     10  C   UNL     1     -12.501  10.164  71.456  0.00  0.00    +0.038 A 
ATOM     11  C   UNL     1     -11.601   9.262  70.892  0.00  0.00    +0.015 A 
ATOM     12  C   UNL     1     -10.500   9.705  70.158  0.00  0.00    +0.058 A 
ATOM     13  C   UNL     1     -10.755  10.836  69.382  0.00  0.00    +0.010 A 
ATOM     14 CL   UNL     1      -8.856   9.220  70.591  0.00  0.00    -0.082 Cl
ATOM     15  C   UNL     1     -13.744  14.448  72.532  0.00  0.00    +0.037 A 
ATOM     16  C   UNL     1     -13.237  15.652  73.006  0.00  0.00    +0.003 A 
ATOM     17  C   UNL     1     -12.114  16.183  72.383  0.00  0.00    -0.000 A 
ATOM     18  C   UNL     1     -11.907  15.758  71.077  0.00  0.00    -0.001 A 
ATOM     19  C   UNL     1     -11.653  11.690  69.878  0.00  0.00    +0.015 A 
ATOM     20  C   UNL     1     -11.251  14.984  68.527  0.00  0.00    +0.077 C 
ENDROOT
TORSDOF 0
ENDMDL
MODEL 2
REMARK VINA RESULT:      -6.9      2.369      4.117
REMARK  Name = 
REMARK  0 active torsions:
REMARK  status: ('A' for Active; 'I' for Inactive)
REMARK                            x       y       z     vdW  Elec       q    Type
REMARK                         _______ _______ _______ _____ _____    ______ ____
ROOT
ATOM      1  C   UNL     1     -12.403  13.174  64.081  0.00  0.00    +0.090 C 
ATOM      2  N   UNL     1     -11.304  12.827  64.516  0.00  0.00    -0.271 NA
ATOM      3  C   UNL     1     -11.589  12.184  65.798  0.00  0.00    +0.077 C 
ATOM      4  C   UNL     1     -11.901  13.606  66.526  0.00  0.00    +0.047 C 
ATOM      5  C   UNL     1     -10.243  13.950  66.346  0.00  0.00    +0.047 C 
ATOM      6  C   UNL     1     -10.443  15.522  66.573  0.00  0.00    +0.014 A 
ATOM      7  C   UNL     1     -10.827  16.016  67.819  0.00  0.00    +0.141 A 
ATOM      8  O   UNL     1     -11.379  15.371  68.937  0.00  0.00    -0.454 OA
ATOM      9  C   UNL     1     -11.936  14.090  68.980  0.00  0.00    +0.141 A 
ATOM     10  C   UNL     1     -12.171  13.618  70.264  0.00  0.00    +0.038 A 
ATOM     11  C   UNL     1     -12.280  12.237  70.421  0.00  0.00    +0.015 A 
ATOM     12  C   UNL     1     -11.685  11.359  69.516  0.00  0.00    +0.058 A 
ATOM     13  C   UNL     1     -11.722  11.799  68.192  0.00  0.00    +0.010 A 
ATOM     14 CL   UNL     1     -10.546  10.119  70.057  0.00  0.00    -0.082 Cl
ATOM     15  C   UNL     1     -10.386  17.287  68.163  0.00  0.00    +0.037 A 
ATOM     16  C   UNL     1      -9.197  17.784  67.642  0.00  0.00    +0.003 A 
ATOM     17  C   UNL     1      -8.485  16.986  66.755  0.00  0.00    -0.000 A 
ATOM     18  C   UNL     1      -9.236  16.023  66.093  0.00  0.00    -0.001 A 
ATOM     19  C   UNL     1     -11.670  13.121  68.018  0.00  0.00    +0.015 A 
ATOM     20  C   UNL     1     -10.500  13.993  64.746  0.00  0.00    +0.077 C 
ENDROOT
TORSDOF 0
ENDMDL
MODEL 3
REMARK VINA RESULT:      -6.9      2.701      5.113
REMARK  Name = 
REMARK  0 active torsions:
REMARK  status: ('A' for Active; 'I' for Inactive)
REMARK                            x       y       z     vdW  Elec       q    Type
REMARK                         _______ _______ _______ _____ _____    ______ ____
ROOT
ATOM      1  C   UNL     1      -8.980  17.031  68.380  0.00  0.00    +0.090 C 
ATOM      2  N   UNL     1     -10.172  17.191  68.108  0.00  0.00    -0.271 NA
ATOM      3  C   UNL     1     -10.899  16.633  69.248  0.00  0.00    +0.077 C 
ATOM      4  C   UNL     1     -10.566  15.102  68.805  0.00  0.00    +0.047 C 
ATOM      5  C   UNL     1     -11.590  15.368  67.471  0.00  0.00    +0.047 C 
ATOM      6  C   UNL     1     -11.009  14.123  66.650  0.00  0.00    +0.014 A 
ATOM      7  C   UNL     1     -11.239  12.818  67.084  0.00  0.00    +0.141 A 
ATOM      8  O   UNL     1     -11.674  12.320  68.322  0.00  0.00    -0.454 OA
ATOM      9  C   UNL     1     -11.733  13.013  69.534  0.00  0.00    +0.141 A 
ATOM     10  C   UNL     1     -12.437  12.352  70.530  0.00  0.00    +0.038 A 
ATOM     11  C   UNL     1     -12.932  13.127  71.578  0.00  0.00    +0.015 A 
ATOM     12  C   UNL     1     -13.187  14.488  71.410  0.00  0.00    +0.058 A 
ATOM     13  C   UNL     1     -12.267  15.140  70.588  0.00  0.00    +0.010 A 
ATOM     14 CL   UNL     1     -14.783  15.170  71.750  0.00  0.00    -0.082 Cl
ATOM     15  C   UNL     1     -11.312  11.828  66.112  0.00  0.00    +0.037 A 
ATOM     16  C   UNL     1     -11.740  12.136  64.826  0.00  0.00    +0.003 A 
ATOM     17  C   UNL     1     -12.064  13.456  64.540  0.00  0.00    -0.000 A 
ATOM     18  C   UNL     1     -11.472  14.402  65.367  0.00  0.00    -0.001 A 
ATOM     19  C   UNL     1     -11.741  14.403  69.608  0.00  0.00    +0.015 A 
ATOM     20  C   UNL     1     -10.491  16.432  66.933  0.00  0.00    +0.077 C 
ENDROOT
TORSDOF 0
ENDMDL
MODEL 4
REMARK VINA RESULT:      -6.7      1.034      1.314
REMARK  Name = 
REMARK  0 active torsions:
REMARK  status: ('A' for Active; 'I' for Inactive)
REMARK                            x       y       z     vdW  Elec       q    Type
REMARK                         _______ _______ _______ _____ _____    ______ ____
ROOT
ATOM      1  C   UNL     1     -11.768  12.336  65.790  0.00  0.00    +0.090 C 
ATOM      2  N   UNL     1     -10.737  12.545  66.432  0.00  0.00    -0.271 NA
ATOM      3  C   UNL     1     -10.578  11.369  67.288  0.00  0.00    +0.077 C 
ATOM      4  C   UNL     1     -11.789  11.832  68.272  0.00  0.00    +0.047 C 
ATOM      5  C   UNL     1     -10.775  13.110  68.759  0.00  0.00    +0.047 C 
ATOM      6  C   UNL     1     -11.979  13.963  69.378  0.00  0.00    +0.014 A 
ATOM      7  C   UNL     1     -12.650  13.520  70.518  0.00  0.00    +0.141 A 
ATOM      8  O   UNL     1     -12.683  12.262  71.139  0.00  0.00    -0.454 OA
ATOM      9  C   UNL     1     -12.247  11.047  70.603  0.00  0.00    +0.141 A 
ATOM     10  C   UNL     1     -12.166  10.016  71.528  0.00  0.00    +0.038 A 
ATOM     11  C   UNL     1     -11.335   8.943  71.210  0.00  0.00    +0.015 A 
ATOM     12  C   UNL     1     -10.267   9.094  70.326  0.00  0.00    +0.058 A 
ATOM     13  C   UNL     1     -10.528   9.963  69.266  0.00  0.00    +0.010 A 
ATOM     14 CL   UNL     1      -8.618   8.670  70.803  0.00  0.00    -0.082 Cl
ATOM     15  C   UNL     1     -13.182  14.488  71.359  0.00  0.00    +0.037 A 
ATOM     16  C   UNL     1     -12.603  15.749  71.434  0.00  0.00    +0.003 A 
ATOM     17  C   UNL     1     -11.502  16.016  70.630  0.00  0.00    -0.000 A 
ATOM     18  C   UNL     1     -11.392  15.219  69.498  0.00  0.00    -0.001 A 
ATOM     19  C   UNL     1     -11.361  10.970  69.533  0.00  0.00    +0.015 A 
ATOM     20  C   UNL     1     -10.923  13.703  67.257  0.00  0.00    +0.077 C 
ENDROOT
TORSDOF 0
ENDMDL
MODEL 5
REMARK VINA RESULT:      -6.6      3.433      6.484
REMARK  Name = 
REMARK  0 active torsions:
REMARK  status: ('A' for Active; 'I' for Inactive)
REMARK                            x       y       z     vdW  Elec       q    Type
REMARK                         _______ _______ _______ _____ _____    ______ ____
ROOT
ATOM      1  C   UNL     1     -13.133  15.199  70.767  0.00  0.00    +0.090 C 
ATOM      2  N   UNL     1     -12.026  14.660  70.704  0.00  0.00    -0.271 NA
ATOM      3  C   UNL     1     -11.107  15.725  70.304  0.00  0.00    +0.077 C 
ATOM      4  C   UNL     1     -11.661  15.731  68.774  0.00  0.00    +0.047 C 
ATOM      5  C   UNL     1     -10.951  14.191  68.615  0.00  0.00    +0.047 C 
ATOM      6  C   UNL     1     -11.809  13.820  67.315  0.00  0.00    +0.014 A 
ATOM      7  C   UNL     1     -11.598  14.491  66.111  0.00  0.00    +0.141 A 
ATOM      8  O   UNL     1     -10.934  15.695  65.829  0.00  0.00    -0.454 OA
ATOM      9  C   UNL     1     -10.539  16.673  66.747  0.00  0.00    +0.141 A 
ATOM     10  C   UNL     1      -9.684  17.631  66.220  0.00  0.00    +0.038 A 
ATOM     11  C   UNL     1      -8.898  18.344  67.124  0.00  0.00    +0.015 A 
ATOM     12  C   UNL     1      -8.575  17.814  68.373  0.00  0.00    +0.058 A 
ATOM     13  C   UNL     1      -9.600  17.068  68.955  0.00  0.00    +0.010 A 
ATOM     14 CL   UNL     1      -6.891  17.651  68.889  0.00  0.00    -0.082 Cl
ATOM     15  C   UNL     1     -11.833  13.784  64.939  0.00  0.00    +0.037 A 
ATOM     16  C   UNL     1     -11.688  12.402  64.910  0.00  0.00    +0.003 A 
ATOM     17  C   UNL     1     -11.327  11.755  66.085  0.00  0.00    -0.000 A 
ATOM     18  C   UNL     1     -11.631  12.441  67.254  0.00  0.00    -0.001 A 
ATOM     19  C   UNL     1     -10.397  16.417  68.107  0.00  0.00    +0.015 A 
ATOM     20  C   UNL     1     -12.050  13.655  69.680  0.00  0.00    +0.077 C 
ENDROOT
TORSDOF 0
ENDMDL
MODEL 6
REMARK VINA RESULT:      -6.6      2.582      5.093
REMARK  Name = 
REMARK  0 active torsions:
REMARK  status: ('A' for Active; 'I' for Inactive)
REMARK                            x       y       z     vdW  Elec       q    Type
REMARK                         _______ _______ _______ _____ _____    ______ ____
ROOT
ATOM      1  C   UNL     1     -10.521  15.616  68.622  0.00  0.00    +0.090 C 
ATOM      2  N   UNL     1     -11.651  15.145  68.486  0.00  0.00    -0.271 NA
ATOM      3  C   UNL     1     -11.669  13.950  69.330  0.00  0.00    +0.077 C 
ATOM      4  C   UNL     1     -10.736  13.114  68.290  0.00  0.00    +0.047 C 
ATOM      5  C   UNL     1     -12.062  13.153  67.222  0.00  0.00    +0.047 C 
ATOM      6  C   UNL     1     -11.170  12.793  65.943  0.00  0.00    +0.014 A 
ATOM      7  C   UNL     1     -10.584  11.533  65.818  0.00  0.00    +0.141 A 
ATOM      8  O   UNL     1     -10.367  10.519  66.763  0.00  0.00    -0.454 OA
ATOM      9  C   UNL     1     -10.449  10.632  68.154  0.00  0.00    +0.141 A 
ATOM     10  C   UNL     1     -10.433   9.417  68.823  0.00  0.00    +0.038 A 
ATOM     11  C   UNL     1     -10.957   9.397  70.114  0.00  0.00    +0.015 A 
ATOM     12  C   UNL     1     -11.899  10.341  70.524  0.00  0.00    +0.058 A 
ATOM     13  C   UNL     1     -11.688  11.617  70.001  0.00  0.00    +0.010 A 
ATOM     14 CL   UNL     1     -13.467   9.846  71.176  0.00  0.00    -0.082 Cl
ATOM     15  C   UNL     1     -10.399  11.043  64.532  0.00  0.00    +0.037 A 
ATOM     16  C   UNL     1     -11.242  11.438  63.500  0.00  0.00    +0.003 A 
ATOM     17  C   UNL     1     -12.251  12.348  63.788  0.00  0.00    -0.000 A 
ATOM     18  C   UNL     1     -12.027  13.144  64.904  0.00  0.00    -0.001 A 
ATOM     19  C   UNL     1     -11.139  11.662  68.786  0.00  0.00    +0.015 A 
ATOM     20  C   UNL     1     -11.838  14.755  67.118  0.00  0.00    +0.077 C 
ENDROOT
TORSDOF 0
ENDMDL
MODEL 7
REMARK VINA RESULT:      -6.6      2.789      4.664
REMARK  Name = 
REMARK  0 active torsions:
REMARK  status: ('A' for Active; 'I' for Inactive)
REMARK                            x       y       z     vdW  Elec       q    Type
REMARK                         _______ _______ _______ _____ _____    ______ ____
ROOT
ATOM      1  C   UNL     1      -9.731   9.797  69.579  0.00  0.00    +0.090 C 
ATOM      2  N   UNL     1     -10.908   9.926  69.237  0.00  0.00    -0.271 NA
ATOM      3  C   UNL     1     -10.854  10.348  67.838  0.00  0.00    +0.077 C 
ATOM      4  C   UNL     1     -10.363  11.849  68.234  0.00  0.00    +0.047 C 
ATOM      5  C   UNL     1     -11.914  12.074  68.902  0.00  0.00    +0.047 C 
ATOM      6  C   UNL     1     -11.463  13.337  69.775  0.00  0.00    +0.014 A 
ATOM      7  C   UNL     1     -11.108  14.537  69.158  0.00  0.00    +0.141 A 
ATOM      8  O   UNL     1     -10.778  14.826  67.825  0.00  0.00    -0.454 OA
ATOM      9  C   UNL     1     -10.460  13.909  66.818  0.00  0.00    +0.141 A 
ATOM     10  C   UNL     1     -10.424  14.458  65.544  0.00  0.00    +0.038 A 
ATOM     11  C   UNL     1     -10.572  13.579  64.472  0.00  0.00    +0.015 A 
ATOM     12  C   UNL     1     -11.230  12.359  64.625  0.00  0.00    +0.058 A 
ATOM     13  C   UNL     1     -11.001  11.742  65.856  0.00  0.00    +0.010 A 
ATOM     14 CL   UNL     1     -12.611  11.929  63.608  0.00  0.00    -0.082 Cl
ATOM     15  C   UNL     1     -11.350  15.710  69.861  0.00  0.00    +0.037 A 
ATOM     16  C   UNL     1     -12.383  15.773  70.789  0.00  0.00    +0.003 A 
ATOM     17  C   UNL     1     -13.143  14.631  71.005  0.00  0.00    -0.000 A 
ATOM     18  C   UNL     1     -12.517  13.435  70.680  0.00  0.00    -0.001 A 
ATOM     19  C   UNL     1     -10.805  12.564  66.889  0.00  0.00    +0.015 A 
ATOM     20  C   UNL     1     -11.513  10.967  70.017  0.00  0.00    +0.077 C 
ENDROOT
TORSDOF 0
ENDMDL
MODEL 8
REMARK VINA RESULT:      -6.5      2.948      4.984
REMARK  Name = 
REMARK  0 active torsions:
REMARK  status: ('A' for Active; 'I' for Inactive)
REMARK                            x       y       z     vdW  Elec       q    Type
REMARK                         _______ _______ _______ _____ _____    ______ ____
ROOT
ATOM      1  C   UNL     1      -7.991   9.802  68.044  0.00  0.00    +0.090 C 
ATOM      2  N   UNL     1      -9.077   9.308  67.735  0.00  0.00    -0.271 NA
ATOM      3  C   UNL     1      -9.611  10.187  66.695  0.00  0.00    +0.077 C 
ATOM      4  C   UNL     1      -9.969  11.360  67.766  0.00  0.00    +0.047 C 
ATOM      5  C   UNL     1     -11.160  10.305  68.375  0.00  0.00    +0.047 C 
ATOM      6  C   UNL     1     -11.299  11.100  69.757  0.00  0.00    +0.014 A 
ATOM      7  C   UNL     1     -11.842  12.385  69.784  0.00  0.00    +0.141 A 
ATOM      8  O   UNL     1     -12.067  13.314  68.756  0.00  0.00    -0.454 OA
ATOM      9  C   UNL     1     -11.545  13.278  67.460  0.00  0.00    +0.141 A 
ATOM     10  C   UNL     1     -12.134  14.182  66.588  0.00  0.00    +0.038 A 
ATOM     11  C   UNL     1     -12.019  13.914  65.225  0.00  0.00    +0.015 A 
ATOM     12  C   UNL     1     -11.817  12.615  64.760  0.00  0.00    +0.058 A 
ATOM     13  C   UNL     1     -10.991  11.842  65.576  0.00  0.00    +0.010 A 
ATOM     14 CL   UNL     1     -12.916  11.883  63.583  0.00  0.00    -0.082 Cl
ATOM     15  C   UNL     1     -12.520  12.764  70.935  0.00  0.00    +0.037 A 
ATOM     16  C   UNL     1     -13.148  11.811  71.728  0.00  0.00    +0.003 A 
ATOM     17  C   UNL     1     -13.056  10.477  71.349  0.00  0.00    -0.000 A 
ATOM     18  C   UNL     1     -11.968  10.167  70.543  0.00  0.00    -0.001 A 
ATOM     19  C   UNL     1     -11.046  12.115  66.881  0.00  0.00    +0.015 A 
ATOM     20  C   UNL     1      -9.951   9.346  68.873  0.00  0.00    +0.077 C 
ENDROOT
TORSDOF 0
ENDMDL
MODEL 9
REMARK VINA RESULT:      -6.5      4.443      6.402
REMARK  Name = 
REMARK  0 active torsions:
REMARK  status: ('A' for Active; 'I' for Inactive)
REMARK                            x       y       z     vdW  Elec       q    Type
REMARK                         _______ _______ _______ _____ _____    ______ ____
ROOT
ATOM      1  C   UNL     1     -12.061  13.043  63.300  0.00  0.00    +0.090 C 
ATOM      2  N   UNL     1     -12.595  13.486  64.318  0.00  0.00    -0.271 NA
ATOM      3  C   UNL     1     -11.868  14.718  64.622  0.00  0.00    +0.077 C 
ATOM      4  C   UNL     1     -10.561  13.904  65.151  0.00  0.00    +0.047 C 
ATOM      5  C   UNL     1     -11.526  13.400  66.460  0.00  0.00    +0.047 C 
ATOM      6  C   UNL     1     -10.550  12.191  66.843  0.00  0.00    +0.014 A 
ATOM      7  C   UNL     1      -9.275  12.441  67.351  0.00  0.00    +0.141 A 
ATOM      8  O   UNL     1      -8.496  13.609  67.353  0.00  0.00    -0.454 OA
ATOM      9  C   UNL     1      -8.707  14.763  66.594  0.00  0.00    +0.141 A 
ATOM     10  C   UNL     1      -7.933  15.846  66.983  0.00  0.00    +0.038 A 
ATOM     11  C   UNL     1      -8.384  17.113  66.616  0.00  0.00    +0.015 A 
ATOM     12  C   UNL     1      -9.734  17.351  66.360  0.00  0.00    +0.058 A 
ATOM     13  C   UNL     1     -10.385  16.294  65.724  0.00  0.00    +0.010 A 
ATOM     14 CL   UNL     1     -10.623  18.608  67.230  0.00  0.00    -0.082 Cl
ATOM     15  C   UNL     1      -8.744  11.504  68.228  0.00  0.00    +0.037 A 
ATOM     16  C   UNL     1      -9.582  10.727  69.018  0.00  0.00    +0.003 A 
ATOM     17  C   UNL     1     -10.955  10.897  68.886  0.00  0.00    -0.000 A 
ATOM     18  C   UNL     1     -11.369  11.429  67.672  0.00  0.00    -0.001 A 
ATOM     19  C   UNL     1      -9.937  15.073  66.021  0.00  0.00    +0.015 A 
ATOM     20  C   UNL     1     -12.405  12.554  65.392  0.00  0.00    +0.077 C 
ENDROOT
TORSDOF 0
ENDMDL
