MODEL 1
REMARK VINA RESULT:      -6.0      0.000      0.000
REMARK  Name = 
REMARK  5 active torsions:
REMARK  status: ('A' for Active; 'I' for Inactive)
REMARK    1  A    between atoms: N_2  and  C_4
REMARK    2  A    between atoms: C_4  and  C_5
REMARK    3  A    between atoms: C_5  and  C_6
REMARK    4  A    between atoms: C_6  and  C_7
REMARK    5  A    between atoms: C_6  and  C_13
REMARK                            x       y       z     vdW  Elec       q    Type
REMARK                         _______ _______ _______ _____ _____    ______ ____
ROOT
ATOM      1  C   UNL     1     -11.017  15.011  69.729  0.00  0.00    +0.064 C 
ENDROOT
BRANCH   1   2
ATOM      2  C   UNL     1     -12.301  15.397  70.666  0.00  0.00    +0.063 A 
ATOM      3  N   UNL     1     -11.834  16.203  71.654  0.00  0.00    -0.248 NA
ATOM      4  C   UNL     1     -12.225  16.059  72.946  0.00  0.00    +0.098 A 
ATOM      5  C   UNL     1     -12.907  14.924  73.369  0.00  0.00    +0.021 A 
ATOM      6  C   UNL     1     -13.582  14.248  72.360  0.00  0.00    +0.003 A 
ATOM      7  C   UNL     1     -12.999  14.299  71.115  0.00  0.00    +0.015 A 
ENDBRANCH   1   2
BRANCH   1   8
ATOM      8  C   UNL     1     -11.873  13.866  68.929  0.00  0.00    -0.017 A 
ATOM      9  C   UNL     1     -11.276  12.608  69.029  0.00  0.00    -0.004 A 
ATOM     10  C   UNL     1     -11.608  11.669  68.058  0.00  0.00    -0.000 A 
ATOM     11  C   UNL     1     -11.468  12.135  66.754  0.00  0.00    -0.000 A 
ATOM     12  C   UNL     1     -11.889  13.427  66.538  0.00  0.00    -0.000 A 
ATOM     13  C   UNL     1     -12.037  14.273  67.605  0.00  0.00    -0.004 A 
ENDBRANCH   1   8
BRANCH   1  14
ATOM     14  C   UNL     1     -11.432  16.184  68.618  0.00  0.00    +0.028 C 
BRANCH  14  15
ATOM     15  C   UNL     1     -10.296  17.191  68.764  0.00  0.00    +0.073 C 
BRANCH  15  17
ATOM     16  C   UNL     1     -10.300  19.172  67.898  0.00  0.00    +0.090 C 
ATOM     17  N   UNL     1     -10.517  18.203  67.754  0.00  0.00    -0.270 NA
ATOM     18  C   UNL     1     -10.323  17.644  66.417  0.00  0.00    +0.090 C 
ENDBRANCH  15  17
ENDBRANCH  14  15
ENDBRANCH   1  14
TORSDOF 5
ENDMDL
MODEL 2
REMARK VINA RESULT:      -5.6      1.529      4.956
REMARK  Name = 
REMARK  5 active torsions:
REMARK  status: ('A' for Active; 'I' for Inactive)
REMARK    1  A    between atoms: N_2  and  C_4
REMARK    2  A    between atoms: C_4  and  C_5
REMARK    3  A    between atoms: C_5  and  C_6
REMARK    4  A    between atoms: C_6  and  C_7
REMARK    5  A    between atoms: C_6  and  C_13
REMARK                            x       y       z     vdW  Elec       q    Type
REMARK                         _______ _______ _______ _____ _____    ______ ____
ROOT
ATOM      1  C   UNL     1     -11.048  14.773  69.648  0.00  0.00    +0.064 C 
ENDROOT
BRANCH   1   2
ATOM      2  C   UNL     1     -10.340  16.232  69.427  0.00  0.00    +0.063 A 
ATOM      3  N   UNL     1     -11.126  16.918  68.558  0.00  0.00    -0.248 NA
ATOM      4  C   UNL     1     -10.606  17.647  67.539  0.00  0.00    +0.098 A 
ATOM      5  C   UNL     1      -9.273  17.518  67.167  0.00  0.00    +0.021 A 
ATOM      6  C   UNL     1      -8.440  17.032  68.168  0.00  0.00    +0.003 A 
ATOM      7  C   UNL     1      -9.020  16.146  69.047  0.00  0.00    +0.015 A 
ENDBRANCH   1   2
BRANCH   1   8
ATOM      8  C   UNL     1     -12.166  15.406  70.663  0.00  0.00    -0.017 A 
ATOM      9  C   UNL     1     -11.582  15.933  71.816  0.00  0.00    -0.004 A 
ATOM     10  C   UNL     1     -12.398  16.073  72.934  0.00  0.00    -0.000 A 
ATOM     11  C   UNL     1     -13.097  14.917  73.267  0.00  0.00    -0.000 A 
ATOM     12  C   UNL     1     -13.614  14.209  72.206  0.00  0.00    -0.000 A 
ATOM     13  C   UNL     1     -13.117  14.426  70.949  0.00  0.00    -0.004 A 
ENDBRANCH   1   8
BRANCH   1  14
ATOM     14  C   UNL     1     -12.028  15.009  68.320  0.00  0.00    +0.028 C 
BRANCH  14  15
ATOM     15  C   UNL     1     -11.820  13.724  67.526  0.00  0.00    +0.073 C 
BRANCH  15  17
ATOM     16  C   UNL     1     -10.513  14.226  65.878  0.00  0.00    +0.090 C 
ATOM     17  N   UNL     1     -11.464  14.129  66.183  0.00  0.00    -0.270 NA
ATOM     18  C   UNL     1     -12.450  13.638  65.222  0.00  0.00    +0.090 C 
ENDBRANCH  15  17
ENDBRANCH  14  15
ENDBRANCH   1  14
TORSDOF 5
ENDMDL
MODEL 3
REMARK VINA RESULT:      -5.6      1.453      4.469
REMARK  Name = 
REMARK  5 active torsions:
REMARK  status: ('A' for Active; 'I' for Inactive)
REMARK    1  A    between atoms: N_2  and  C_4
REMARK    2  A    between atoms: C_4  and  C_5
REMARK    3  A    between atoms: C_5  and  C_6
REMARK    4  A    between atoms: C_6  and  C_7
REMARK    5  A    between atoms: C_6  and  C_13
REMARK                            x       y       z     vdW  Elec       q    Type
REMARK                         _______ _______ _______ _____ _____    ______ ____
ROOT
ATOM      1  C   UNL     1     -12.051  15.618  69.230  0.00  0.00    +0.064 C 
ENDROOT
BRANCH   1   2
ATOM      2  C   UNL     1     -11.695  14.194  68.506  0.00  0.00    +0.063 A 
ATOM      3  N   UNL     1     -10.393  13.929  68.787  0.00  0.00    -0.248 NA
ATOM      4  C   UNL     1      -9.536  13.457  67.847  0.00  0.00    +0.098 A 
ATOM      5  C   UNL     1      -9.868  13.473  66.497  0.00  0.00    +0.021 A 
ATOM      6  C   UNL     1     -11.233  13.502  66.239  0.00  0.00    +0.003 A 
ATOM      7  C   UNL     1     -12.000  14.173  67.164  0.00  0.00    +0.015 A 
ENDBRANCH   1   2
BRANCH   1   8
ATOM      8  C   UNL     1     -11.948  14.950  70.722  0.00  0.00    -0.017 A 
ATOM      9  C   UNL     1     -13.111  14.256  71.063  0.00  0.00    -0.004 A 
ATOM     10  C   UNL     1     -13.351  14.046  72.417  0.00  0.00    -0.000 A 
ATOM     11  C   UNL     1     -13.269  15.201  73.188  0.00  0.00    -0.000 A 
ATOM     12  C   UNL     1     -12.242  16.059  72.866  0.00  0.00    -0.000 A 
ATOM     13  C   UNL     1     -11.639  15.953  71.641  0.00  0.00    -0.004 A 
ENDBRANCH   1   8
BRANCH   1  14
ATOM     14  C   UNL     1     -10.442  16.052  69.245  0.00  0.00    +0.028 C 
BRANCH  14  15
ATOM     15  C   UNL     1     -10.446  17.358  68.459  0.00  0.00    +0.073 C 
BRANCH  15  17
ATOM     16  C   UNL     1     -10.201  17.389  66.311  0.00  0.00    +0.090 C 
ATOM     17  N   UNL     1      -9.826  17.068  67.184  0.00  0.00    -0.270 NA
ATOM     18  C   UNL     1      -8.372  16.997  67.327  0.00  0.00    +0.090 C 
ENDBRANCH  15  17
ENDBRANCH  14  15
ENDBRANCH   1  14
TORSDOF 5
ENDMDL
MODEL 4
REMARK VINA RESULT:      -5.5      1.683      5.489
REMARK  Name = 
REMARK  5 active torsions:
REMARK  status: ('A' for Active; 'I' for Inactive)
REMARK    1  A    between atoms: N_2  and  C_4
REMARK    2  A    between atoms: C_4  and  C_5
REMARK    3  A    between atoms: C_5  and  C_6
REMARK    4  A    between atoms: C_6  and  C_7
REMARK    5  A    between atoms: C_6  and  C_13
REMARK                            x       y       z     vdW  Elec       q    Type
REMARK                         _______ _______ _______ _____ _____    ______ ____
ROOT
ATOM      1  C   UNL     1     -10.926  14.910  69.660  0.00  0.00    +0.064 C 
ENDROOT
BRANCH   1   2
ATOM      2  C   UNL     1     -11.226  16.130  68.611  0.00  0.00    +0.063 A 
ATOM      3  N   UNL     1     -11.089  15.612  67.363  0.00  0.00    -0.248 NA
ATOM      4  C   UNL     1     -10.442  16.279  66.374  0.00  0.00    +0.098 A 
ATOM      5  C   UNL     1      -9.660  17.395  66.650  0.00  0.00    +0.021 A 
ATOM      6  C   UNL     1      -9.988  18.051  67.831  0.00  0.00    +0.003 A 
ATOM      7  C   UNL     1     -10.462  17.251  68.844  0.00  0.00    +0.015 A 
ENDBRANCH   1   2
BRANCH   1   8
ATOM      8  C   UNL     1     -12.176  15.354  70.621  0.00  0.00    -0.017 A 
ATOM      9  C   UNL     1     -11.737  16.014  71.771  0.00  0.00    -0.004 A 
ATOM     10  C   UNL     1     -12.602  16.032  72.861  0.00  0.00    -0.000 A 
ATOM     11  C   UNL     1     -13.087  14.776  73.215  0.00  0.00    -0.000 A 
ATOM     12  C   UNL     1     -13.429  13.954  72.165  0.00  0.00    -0.000 A 
ATOM     13  C   UNL     1     -12.938  14.223  70.915  0.00  0.00    -0.004 A 
ENDBRANCH   1   8
BRANCH   1  14
ATOM     14  C   UNL     1     -11.890  13.872  68.781  0.00  0.00    +0.028 C 
BRANCH  14  15
ATOM     15  C   UNL     1     -10.999  12.643  68.630  0.00  0.00    +0.073 C 
BRANCH  15  17
ATOM     16  C   UNL     1     -11.736  12.179  66.652  0.00  0.00    +0.090 C 
ATOM     17  N   UNL     1     -11.589  11.838  67.583  0.00  0.00    -0.270 NA
ATOM     18  C   UNL     1     -11.227  10.432  67.754  0.00  0.00    +0.090 C 
ENDBRANCH  15  17
ENDBRANCH  14  15
ENDBRANCH   1  14
TORSDOF 5
ENDMDL
MODEL 5
REMARK VINA RESULT:      -5.5      1.720      3.774
REMARK  Name = 
REMARK  5 active torsions:
REMARK  status: ('A' for Active; 'I' for Inactive)
REMARK    1  A    between atoms: N_2  and  C_4
REMARK    2  A    between atoms: C_4  and  C_5
REMARK    3  A    between atoms: C_5  and  C_6
REMARK    4  A    between atoms: C_6  and  C_7
REMARK    5  A    between atoms: C_6  and  C_13
REMARK                            x       y       z     vdW  Elec       q    Type
REMARK                         _______ _______ _______ _____ _____    ______ ____
ROOT
ATOM      1  C   UNL     1     -11.828  15.359  69.294  0.00  0.00    +0.064 C 
ENDROOT
BRANCH   1   2
ATOM      2  C   UNL     1     -11.654  15.006  70.882  0.00  0.00    +0.063 A 
ATOM      3  N   UNL     1     -12.501  13.977  71.146  0.00  0.00    -0.248 NA
ATOM      4  C   UNL     1     -13.266  13.945  72.266  0.00  0.00    +0.098 A 
ATOM      5  C   UNL     1     -13.427  15.074  73.062  0.00  0.00    +0.021 A 
ATOM      6  C   UNL     1     -12.407  16.011  72.944  0.00  0.00    +0.003 A 
ATOM      7  C   UNL     1     -11.817  16.097  71.705  0.00  0.00    +0.015 A 
ENDBRANCH   1   2
BRANCH   1   8
ATOM      8  C   UNL     1     -10.522  16.348  69.313  0.00  0.00    -0.017 A 
ATOM      9  C   UNL     1     -10.537  17.248  68.246  0.00  0.00    -0.004 A 
ATOM     10  C   UNL     1      -9.320  17.809  67.871  0.00  0.00    -0.000 A 
ATOM     11  C   UNL     1      -8.311  16.874  67.662  0.00  0.00    -0.000 A 
ATOM     12  C   UNL     1      -8.265  15.837  68.567  0.00  0.00    -0.000 A 
ATOM     13  C   UNL     1      -9.368  15.564  69.332  0.00  0.00    -0.004 A 
ENDBRANCH   1   8
BRANCH   1  14
ATOM     14  C   UNL     1     -10.901  14.041  68.864  0.00  0.00    +0.028 C 
BRANCH  14  15
ATOM     15  C   UNL     1     -11.752  13.379  67.785  0.00  0.00    +0.073 C 
BRANCH  15  17
ATOM     16  C   UNL     1     -10.472  13.984  66.151  0.00  0.00    +0.090 C 
ATOM     17  N   UNL     1     -11.398  14.019  66.537  0.00  0.00    -0.270 NA
ATOM     18  C   UNL     1     -12.532  14.003  65.614  0.00  0.00    +0.090 C 
ENDBRANCH  15  17
ENDBRANCH  14  15
ENDBRANCH   1  14
TORSDOF 5
ENDMDL
MODEL 6
REMARK VINA RESULT:      -5.5      1.840      4.993
REMARK  Name = 
REMARK  5 active torsions:
REMARK  status: ('A' for Active; 'I' for Inactive)
REMARK    1  A    between atoms: N_2  and  C_4
REMARK    2  A    between atoms: C_4  and  C_5
REMARK    3  A    between atoms: C_5  and  C_6
REMARK    4  A    between atoms: C_6  and  C_7
REMARK    5  A    between atoms: C_6  and  C_13
REMARK                            x       y       z     vdW  Elec       q    Type
REMARK                         _______ _______ _______ _____ _____    ______ ____
ROOT
ATOM      1  C   UNL     1      -9.786  16.171  68.352  0.00  0.00    +0.064 C 
ENDROOT
BRANCH   1   2
ATOM      2  C   UNL     1      -9.912  17.787  68.580  0.00  0.00    +0.063 A 
ATOM      3  N   UNL     1     -10.862  18.229  67.715  0.00  0.00    -0.248 NA
ATOM      4  C   UNL     1     -10.705  19.368  66.995  0.00  0.00    +0.098 A 
ATOM      5  C   UNL     1      -9.468  19.995  66.900  0.00  0.00    +0.021 A 
ATOM      6  C   UNL     1      -8.593  19.706  67.940  0.00  0.00    +0.003 A 
ATOM      7  C   UNL     1      -8.708  18.447  68.482  0.00  0.00    +0.015 A 
ENDBRANCH   1   2
BRANCH   1   8
ATOM      8  C   UNL     1     -11.258  15.906  69.020  0.00  0.00    -0.017 A 
ATOM      9  C   UNL     1     -11.269  16.196  70.386  0.00  0.00    -0.004 A 
ATOM     10  C   UNL     1     -12.265  15.601  71.153  0.00  0.00    -0.000 A 
ATOM     11  C   UNL     1     -12.358  14.223  70.982  0.00  0.00    -0.000 A 
ATOM     12  C   UNL     1     -12.220  13.774  69.688  0.00  0.00    -0.000 A 
ATOM     13  C   UNL     1     -11.639  14.590  68.753  0.00  0.00    -0.004 A 
ENDBRANCH   1   8
BRANCH   1  14
ATOM     14  C   UNL     1     -10.435  16.301  66.822  0.00  0.00    +0.028 C 
BRANCH  14  15
ATOM     15  C   UNL     1      -9.434  15.523  65.974  0.00  0.00    +0.073 C 
BRANCH  15  17
ATOM     16  C   UNL     1     -10.164  13.550  65.477  0.00  0.00    +0.090 C 
ATOM     17  N   UNL     1     -10.198  14.527  65.254  0.00  0.00    -0.270 NA
ATOM     18  C   UNL     1     -11.470  15.087  64.799  0.00  0.00    +0.090 C 
ENDBRANCH  15  17
ENDBRANCH  14  15
ENDBRANCH   1  14
TORSDOF 5
ENDMDL
MODEL 7
REMARK VINA RESULT:      -5.5      1.148      4.618
REMARK  Name = 
REMARK  5 active torsions:
REMARK  status: ('A' for Active; 'I' for Inactive)
REMARK    1  A    between atoms: N_2  and  C_4
REMARK    2  A    between atoms: C_4  and  C_5
REMARK    3  A    between atoms: C_5  and  C_6
REMARK    4  A    between atoms: C_6  and  C_7
REMARK    5  A    between atoms: C_6  and  C_13
REMARK                            x       y       z     vdW  Elec       q    Type
REMARK                         _______ _______ _______ _____ _____    ______ ____
ROOT
ATOM      1  C   UNL     1     -11.972  15.639  69.252  0.00  0.00    +0.064 C 
ENDROOT
BRANCH   1   2
ATOM      2  C   UNL     1     -10.677  16.638  69.290  0.00  0.00    +0.063 A 
ATOM      3  N   UNL     1     -10.865  17.556  68.307  0.00  0.00    -0.248 NA
ATOM      4  C   UNL     1      -9.860  17.942  67.482  0.00  0.00    +0.098 A 
ATOM      5  C   UNL     1      -8.665  17.234  67.421  0.00  0.00    +0.021 A 
ATOM      6  C   UNL     1      -8.382  16.483  68.555  0.00  0.00    +0.003 A 
ATOM      7  C   UNL     1      -9.473  15.974  69.221  0.00  0.00    +0.015 A 
ENDBRANCH   1   2
BRANCH   1   8
ATOM      8  C   UNL     1     -11.152  14.516  68.385  0.00  0.00    -0.017 A 
ATOM      9  C   UNL     1     -11.545  14.506  67.045  0.00  0.00    -0.004 A 
ATOM     10  C   UNL     1     -11.296  13.346  66.320  0.00  0.00    -0.000 A 
ATOM     11  C   UNL     1     -11.756  12.186  66.937  0.00  0.00    -0.000 A 
ATOM     12  C   UNL     1     -11.562  12.121  68.298  0.00  0.00    -0.000 A 
ATOM     13  C   UNL     1     -11.315  13.273  68.997  0.00  0.00    -0.004 A 
ENDBRANCH   1   8
BRANCH   1  14
ATOM     14  C   UNL     1     -11.521  14.942  70.698  0.00  0.00    +0.028 C 
BRANCH  14  15
ATOM     15  C   UNL     1     -12.226  15.824  71.722  0.00  0.00    +0.073 C 
BRANCH  15  17
ATOM     16  C   UNL     1     -12.511  15.300  73.800  0.00  0.00    +0.090 C 
ATOM     17  N   UNL     1     -12.529  14.973  72.852  0.00  0.00    -0.270 NA
ATOM     18  C   UNL     1     -13.533  13.974  72.486  0.00  0.00    +0.090 C 
ENDBRANCH  15  17
ENDBRANCH  14  15
ENDBRANCH   1  14
TORSDOF 5
ENDMDL
MODEL 8
REMARK VINA RESULT:      -5.3      2.792      6.454
REMARK  Name = 
REMARK  5 active torsions:
REMARK  status: ('A' for Active; 'I' for Inactive)
REMARK    1  A    between atoms: N_2  and  C_4
REMARK    2  A    between atoms: C_4  and  C_5
REMARK    3  A    between atoms: C_5  and  C_6
REMARK    4  A    between atoms: C_6  and  C_7
REMARK    5  A    between atoms: C_6  and  C_13
REMARK                            x       y       z     vdW  Elec       q    Type
REMARK                         _______ _______ _______ _____ _____    ______ ____
ROOT
ATOM      1  C   UNL     1     -10.976  12.826  68.769  0.00  0.00    +0.064 C 
ENDROOT
BRANCH   1   2
ATOM      2  C   UNL     1     -11.980  12.826  67.477  0.00  0.00    +0.063 A 
ATOM      3  N   UNL     1     -11.572  11.814  66.668  0.00  0.00    -0.248 NA
ATOM      4  C   UNL     1     -11.490  11.960  65.321  0.00  0.00    +0.098 A 
ATOM      5  C   UNL     1     -11.558  13.214  64.726  0.00  0.00    +0.021 A 
ATOM      6  C   UNL     1     -12.202  14.180  65.490  0.00  0.00    +0.003 A 
ATOM      7  C   UNL     1     -12.067  14.049  66.853  0.00  0.00    +0.015 A 
ENDBRANCH   1   2
BRANCH   1   8
ATOM      8  C   UNL     1     -11.790  14.061  69.473  0.00  0.00    -0.017 A 
ATOM      9  C   UNL     1     -10.941  15.116  69.811  0.00  0.00    -0.004 A 
ATOM     10  C   UNL     1     -11.381  15.994  70.797  0.00  0.00    -0.000 A 
ATOM     11  C   UNL     1     -11.807  15.363  71.962  0.00  0.00    -0.000 A 
ATOM     12  C   UNL     1     -12.544  14.215  71.780  0.00  0.00    -0.000 A 
ATOM     13  C   UNL     1     -12.488  13.565  70.575  0.00  0.00    -0.004 A 
ENDBRANCH   1   8
BRANCH   1  14
ATOM     14  C   UNL     1     -11.914  11.685  69.542  0.00  0.00    +0.028 C 
BRANCH  14  15
ATOM     15  C   UNL     1     -10.929  10.540  69.758  0.00  0.00    +0.073 C 
BRANCH  15  17
ATOM     16  C   UNL     1     -12.223   9.765  71.306  0.00  0.00    +0.090 C 
ATOM     17  N   UNL     1     -11.276   9.938  71.027  0.00  0.00    -0.270 NA
ATOM     18  C   UNL     1     -10.249   8.981  71.436  0.00  0.00    +0.090 C 
ENDBRANCH  15  17
ENDBRANCH  14  15
ENDBRANCH   1  14
TORSDOF 5
ENDMDL
MODEL 9
REMARK VINA RESULT:      -5.3      1.707      2.575
REMARK  Name = 
REMARK  5 active torsions:
REMARK  status: ('A' for Active; 'I' for Inactive)
REMARK    1  A    between atoms: N_2  and  C_4
REMARK    2  A    between atoms: C_4  and  C_5
REMARK    3  A    between atoms: C_5  and  C_6
REMARK    4  A    between atoms: C_6  and  C_7
REMARK    5  A    between atoms: C_6  and  C_13
REMARK                            x       y       z     vdW  Elec       q    Type
REMARK                         _______ _______ _______ _____ _____    ______ ____
ROOT
ATOM      1  C   UNL     1     -10.375  14.120  67.489  0.00  0.00    +0.064 C 
ENDROOT
BRANCH   1   2
ATOM      2  C   UNL     1     -11.666  14.408  68.453  0.00  0.00    +0.063 A 
ATOM      3  N   UNL     1     -11.504  15.659  68.956  0.00  0.00    -0.248 NA
ATOM      4  C   UNL     1     -11.750  15.947  70.259  0.00  0.00    +0.098 A 
ATOM      5  C   UNL     1     -11.919  14.939  71.201  0.00  0.00    +0.021 A 
ATOM      6  C   UNL     1     -12.322  13.718  70.673  0.00  0.00    +0.003 A 
ATOM      7  C   UNL     1     -11.861  13.435  69.408  0.00  0.00    +0.015 A 
ENDBRANCH   1   2
BRANCH   1   8
ATOM      8  C   UNL     1     -11.199  12.996  66.627  0.00  0.00    -0.017 A 
ATOM      9  C   UNL     1     -10.349  12.230  65.827  0.00  0.00    -0.004 A 
ATOM     10  C   UNL     1     -10.917  11.584  64.735  0.00  0.00    -0.000 A 
ATOM     11  C   UNL     1     -11.677  12.418  63.920  0.00  0.00    -0.000 A 
ATOM     12  C   UNL     1     -12.466  13.334  64.579  0.00  0.00    -0.000 A 
ATOM     13  C   UNL     1     -12.190  13.639  65.886  0.00  0.00    -0.004 A 
ENDBRANCH   1   8
BRANCH   1  14
ATOM     14  C   UNL     1     -10.835  15.342  66.452  0.00  0.00    +0.028 C 
BRANCH  14  15
ATOM     15  C   UNL     1      -9.503  15.787  65.857  0.00  0.00    +0.073 C 
BRANCH  15  17
ATOM     16  C   UNL     1     -10.230  17.768  66.328  0.00  0.00    +0.090 C 
ATOM     17  N   UNL     1      -9.449  17.225  66.010  0.00  0.00    -0.270 NA
ATOM     18  C   UNL     1      -8.107  17.647  66.409  0.00  0.00    +0.090 C 
ENDBRANCH  15  17
ENDBRANCH  14  15
ENDBRANCH   1  14
TORSDOF 5
ENDMDL
