MODEL 1
REMARK VINA RESULT:      -6.6      0.000      0.000
REMARK  Name = 
REMARK  9 active torsions:
REMARK  status: ('A' for Active; 'I' for Inactive)
REMARK    1  A    between atoms: C_2  and  N_3
REMARK    2  A    between atoms: N_3  and  C_4
REMARK    3  A    between atoms: N_3  and  C_6
REMARK    4  A    between atoms: C_6  and  C_7
REMARK    5  A    between atoms: C_7  and  O_8
REMARK    6  A    between atoms: O_8  and  C_9
REMARK    7  A    between atoms: C_12  and  C_13
REMARK    8  A    between atoms: C_13  and  C_22
REMARK    9  A    between atoms: C_14  and  C_16
REMARK                            x       y       z     vdW  Elec       q    Type
REMARK                         _______ _______ _______ _____ _____    ______ ____
ROOT
ATOM      1  C   UNL     1     -10.508  14.389  67.689  0.00  0.00    +0.011 C 
ATOM      2  C   UNL     1      -9.595  15.327  67.939  0.00  0.00    +0.058 C 
ATOM      3 CL   UNL     1      -8.617  15.122  69.389  0.00  0.00    -0.082 Cl
ENDROOT
BRANCH   1   7
ATOM      4  C   UNL     1     -12.114  11.612  70.472  0.00  0.00    +0.139 A 
ATOM      5  C   UNL     1     -12.346  12.976  70.560  0.00  0.00    +0.037 A 
ATOM      6  C   UNL     1     -11.717  13.903  69.774  0.00  0.00    +0.003 A 
ATOM      7  C   UNL     1     -10.943  13.450  68.731  0.00  0.00    +0.001 A 
ATOM      8  C   UNL     1     -10.584  12.109  68.664  0.00  0.00    +0.003 A 
ATOM      9  C   UNL     1     -11.222  11.207  69.494  0.00  0.00    +0.037 A 
BRANCH   4  10
ATOM     10  O   UNL     1     -13.144  10.788  70.875  0.00  0.00    -0.474 OA
BRANCH  10  11
ATOM     11  C   UNL     1     -13.092   9.910  71.970  0.00  0.00    +0.223 C 
BRANCH  11  12
ATOM     12  C   UNL     1     -13.074   8.460  71.567  0.00  0.00    +0.120 C 
BRANCH  12  13
ATOM     13  N   UNL     1     -11.775   8.011  71.121  0.00  0.00    -0.270 NA
BRANCH  13  15
ATOM     14  C   UNL     1     -11.279   6.182  69.636  0.00  0.00    +0.019 C 
ATOM     15  C   UNL     1     -11.744   6.557  71.021  0.00  0.00    +0.072 C 
ENDBRANCH  13  15
BRANCH  13  16
ATOM     16  C   UNL     1     -10.788   8.360  72.140  0.00  0.00    +0.072 C 
ATOM     17  C   UNL     1     -10.708   7.288  73.210  0.00  0.00    +0.019 C 
ENDBRANCH  13  16
ENDBRANCH  12  13
ENDBRANCH  11  12
ENDBRANCH  10  11
ENDBRANCH   4  10
ENDBRANCH   1   7
BRANCH   2  18
ATOM     18  C   UNL     1      -9.687  16.622  67.250  0.00  0.00    +0.011 A 
ATOM     19  C   UNL     1      -8.597  17.105  66.537  0.00  0.00    +0.001 A 
ATOM     20  C   UNL     1      -8.423  18.471  66.354  0.00  0.00    +0.000 A 
ATOM     21  C   UNL     1      -9.086  19.349  67.202  0.00  0.00    +0.000 A 
ATOM     22  C   UNL     1     -10.314  18.913  67.681  0.00  0.00    +0.000 A 
ATOM     23  C   UNL     1     -10.634  17.574  67.603  0.00  0.00    +0.001 A 
ENDBRANCH   2  18
BRANCH   1  24
ATOM     24  C   UNL     1     -10.965  14.272  66.300  0.00  0.00    +0.001 A 
ATOM     25  C   UNL     1     -12.325  14.106  66.086  0.00  0.00    +0.000 A 
ATOM     26  C   UNL     1     -12.828  13.460  64.971  0.00  0.00    +0.000 A 
ATOM     27  C   UNL     1     -11.964  12.746  64.159  0.00  0.00    +0.000 A 
ATOM     28  C   UNL     1     -10.616  13.027  64.249  0.00  0.00    +0.000 A 
ATOM     29  C   UNL     1     -10.134  13.805  65.291  0.00  0.00    +0.000 A 
ENDBRANCH   1  24
TORSDOF 9
ENDMDL
MODEL 2
REMARK VINA RESULT:      -6.5      3.522      6.096
REMARK  Name = 
REMARK  9 active torsions:
REMARK  status: ('A' for Active; 'I' for Inactive)
REMARK    1  A    between atoms: C_2  and  N_3
REMARK    2  A    between atoms: N_3  and  C_4
REMARK    3  A    between atoms: N_3  and  C_6
REMARK    4  A    between atoms: C_6  and  C_7
REMARK    5  A    between atoms: C_7  and  O_8
REMARK    6  A    between atoms: O_8  and  C_9
REMARK    7  A    between atoms: C_12  and  C_13
REMARK    8  A    between atoms: C_13  and  C_22
REMARK    9  A    between atoms: C_14  and  C_16
REMARK                            x       y       z     vdW  Elec       q    Type
REMARK                         _______ _______ _______ _____ _____    ______ ____
ROOT
ATOM      1  C   UNL     1     -11.046  15.017  68.336  0.00  0.00    +0.011 C 
ATOM      2  C   UNL     1     -11.503  14.347  69.393  0.00  0.00    +0.058 C 
ATOM      3 CL   UNL     1     -11.813  12.627  69.174  0.00  0.00    -0.082 Cl
ENDROOT
BRANCH   1   7
ATOM      4  C   UNL     1     -11.283  13.041  64.583  0.00  0.00    +0.139 A 
ATOM      5  C   UNL     1     -10.090  13.524  65.099  0.00  0.00    +0.037 A 
ATOM      6  C   UNL     1     -10.010  14.298  66.225  0.00  0.00    +0.003 A 
ATOM      7  C   UNL     1     -11.149  14.465  66.979  0.00  0.00    +0.001 A 
ATOM      8  C   UNL     1     -12.385  14.104  66.456  0.00  0.00    +0.003 A 
ATOM      9  C   UNL     1     -12.426  13.346  65.302  0.00  0.00    +0.037 A 
BRANCH   4  10
ATOM     10  O   UNL     1     -11.204  11.883  63.838  0.00  0.00    -0.474 OA
BRANCH  10  11
ATOM     11  C   UNL     1     -10.055  11.433  63.168  0.00  0.00    +0.223 C 
BRANCH  11  12
ATOM     12  C   UNL     1      -9.595  10.075  63.626  0.00  0.00    +0.120 C 
BRANCH  12  13
ATOM     13  N   UNL     1      -9.007  10.089  64.946  0.00  0.00    -0.270 NA
BRANCH  13  15
ATOM     14  C   UNL     1      -6.673  10.344  65.478  0.00  0.00    +0.019 C 
ATOM     15  C   UNL     1      -7.721   9.403  64.939  0.00  0.00    +0.072 C 
ENDBRANCH  13  15
BRANCH  13  16
ATOM     16  C   UNL     1      -9.864   9.319  65.843  0.00  0.00    +0.072 C 
ATOM     17  C   UNL     1     -10.467  10.206  66.916  0.00  0.00    +0.019 C 
ENDBRANCH  13  16
ENDBRANCH  12  13
ENDBRANCH  11  12
ENDBRANCH  10  11
ENDBRANCH   4  10
ENDBRANCH   1   7
BRANCH   2  18
ATOM     18  C   UNL     1     -12.065  15.091  70.528  0.00  0.00    +0.011 A 
ATOM     19  C   UNL     1     -11.327  15.231  71.697  0.00  0.00    +0.001 A 
ATOM     20  C   UNL     1     -11.966  15.412  72.917  0.00  0.00    +0.000 A 
ATOM     21  C   UNL     1     -13.303  15.052  73.032  0.00  0.00    +0.000 A 
ATOM     22  C   UNL     1     -14.064  15.186  71.879  0.00  0.00    +0.000 A 
ATOM     23  C   UNL     1     -13.431  15.306  70.660  0.00  0.00    +0.001 A 
ENDBRANCH   2  18
BRANCH   1  24
ATOM     24  C   UNL     1     -10.337  16.271  68.610  0.00  0.00    +0.001 A 
ATOM     25  C   UNL     1     -10.810  17.421  67.996  0.00  0.00    +0.000 A 
ATOM     26  C   UNL     1      -9.993  18.501  67.710  0.00  0.00    +0.000 A 
ATOM     27  C   UNL     1      -8.621  18.352  67.814  0.00  0.00    +0.000 A 
ATOM     28  C   UNL     1      -8.142  17.300  68.567  0.00  0.00    +0.000 A 
ATOM     29  C   UNL     1      -9.000  16.292  68.981  0.00  0.00    +0.000 A 
ENDBRANCH   1  24
TORSDOF 9
ENDMDL
MODEL 3
REMARK VINA RESULT:      -6.3      3.575      8.540
REMARK  Name = 
REMARK  9 active torsions:
REMARK  status: ('A' for Active; 'I' for Inactive)
REMARK    1  A    between atoms: C_2  and  N_3
REMARK    2  A    between atoms: N_3  and  C_4
REMARK    3  A    between atoms: N_3  and  C_6
REMARK    4  A    between atoms: C_6  and  C_7
REMARK    5  A    between atoms: C_7  and  O_8
REMARK    6  A    between atoms: O_8  and  C_9
REMARK    7  A    between atoms: C_12  and  C_13
REMARK    8  A    between atoms: C_13  and  C_22
REMARK    9  A    between atoms: C_14  and  C_16
REMARK                            x       y       z     vdW  Elec       q    Type
REMARK                         _______ _______ _______ _____ _____    ______ ____
ROOT
ATOM      1  C   UNL     1     -10.748  13.232  67.387  0.00  0.00    +0.011 C 
ATOM      2  C   UNL     1     -11.230  12.905  68.585  0.00  0.00    +0.058 C 
ATOM      3 CL   UNL     1     -11.353  14.198  69.775  0.00  0.00    -0.082 Cl
ENDROOT
BRANCH   1   7
ATOM      4  C   UNL     1      -8.487  16.693  66.412  0.00  0.00    +0.139 A 
ATOM      5  C   UNL     1      -7.958  15.635  67.135  0.00  0.00    +0.037 A 
ATOM      6  C   UNL     1      -8.704  14.585  67.596  0.00  0.00    +0.003 A 
ATOM      7  C   UNL     1     -10.011  14.486  67.176  0.00  0.00    +0.001 A 
ATOM      8  C   UNL     1     -10.623  15.565  66.551  0.00  0.00    +0.003 A 
ATOM      9  C   UNL     1      -9.839  16.621  66.126  0.00  0.00    +0.037 A 
BRANCH   4  10
ATOM     10  O   UNL     1      -7.619  17.352  65.566  0.00  0.00    -0.474 OA
BRANCH  10  11
ATOM     11  C   UNL     1      -6.870  18.489  65.906  0.00  0.00    +0.223 C 
BRANCH  11  12
ATOM     12  C   UNL     1      -7.688  19.752  65.935  0.00  0.00    +0.120 C 
BRANCH  12  13
ATOM     13  N   UNL     1      -7.795  20.329  67.256  0.00  0.00    -0.270 NA
BRANCH  13  15
ATOM     14  C   UNL     1      -5.784  20.810  68.490  0.00  0.00    +0.019 C 
ATOM     15  C   UNL     1      -6.800  19.748  68.149  0.00  0.00    +0.072 C 
ENDBRANCH  13  15
BRANCH  13  16
ATOM     16  C   UNL     1      -9.093  19.965  67.818  0.00  0.00    +0.072 C 
ATOM     17  C   UNL     1     -10.193  20.106  66.783  0.00  0.00    +0.019 C 
ENDBRANCH  13  16
ENDBRANCH  12  13
ENDBRANCH  11  12
ENDBRANCH  10  11
ENDBRANCH   4  10
ENDBRANCH   1   7
BRANCH   2  18
ATOM     18  C   UNL     1     -11.282  11.491  68.978  0.00  0.00    +0.011 A 
ATOM     19  C   UNL     1     -12.354  11.019  69.725  0.00  0.00    +0.001 A 
ATOM     20  C   UNL     1     -12.202   9.916  70.557  0.00  0.00    +0.000 A 
ATOM     21  C   UNL     1     -10.923   9.545  70.949  0.00  0.00    +0.000 A 
ATOM     22  C   UNL     1      -9.912   9.807  70.034  0.00  0.00    +0.000 A 
ATOM     23  C   UNL     1     -10.143  10.696  69.006  0.00  0.00    +0.001 A 
ENDBRANCH   2  18
BRANCH   1  24
ATOM     24  C   UNL     1     -11.088  12.338  66.275  0.00  0.00    +0.001 A 
ATOM     25  C   UNL     1     -10.048  11.665  65.654  0.00  0.00    +0.000 A 
ATOM     26  C   UNL     1     -10.111  11.256  64.333  0.00  0.00    +0.000 A 
ATOM     27  C   UNL     1     -11.132  11.732  63.529  0.00  0.00    +0.000 A 
ATOM     28  C   UNL     1     -12.249  12.254  64.148  0.00  0.00    +0.000 A 
ATOM     29  C   UNL     1     -12.231  12.523  65.509  0.00  0.00    +0.000 A 
ENDBRANCH   1  24
TORSDOF 9
ENDMDL
MODEL 4
REMARK VINA RESULT:      -6.3      4.130      6.901
REMARK  Name = 
REMARK  9 active torsions:
REMARK  status: ('A' for Active; 'I' for Inactive)
REMARK    1  A    between atoms: C_2  and  N_3
REMARK    2  A    between atoms: N_3  and  C_4
REMARK    3  A    between atoms: N_3  and  C_6
REMARK    4  A    between atoms: C_6  and  C_7
REMARK    5  A    between atoms: C_7  and  O_8
REMARK    6  A    between atoms: O_8  and  C_9
REMARK    7  A    between atoms: C_12  and  C_13
REMARK    8  A    between atoms: C_13  and  C_22
REMARK    9  A    between atoms: C_14  and  C_16
REMARK                            x       y       z     vdW  Elec       q    Type
REMARK                         _______ _______ _______ _____ _____    ______ ____
ROOT
ATOM      1  C   UNL     1     -11.027  14.977  68.388  0.00  0.00    +0.011 C 
ATOM      2  C   UNL     1     -11.465  14.334  69.470  0.00  0.00    +0.058 C 
ATOM      3 CL   UNL     1     -11.747  12.603  69.309  0.00  0.00    -0.082 Cl
ENDROOT
BRANCH   1   7
ATOM      4  C   UNL     1     -11.298  12.873  64.708  0.00  0.00    +0.139 A 
ATOM      5  C   UNL     1     -10.088  13.291  65.242  0.00  0.00    +0.037 A 
ATOM      6  C   UNL     1      -9.985  14.103  66.339  0.00  0.00    +0.003 A 
ATOM      7  C   UNL     1     -11.130  14.379  67.050  0.00  0.00    +0.001 A 
ATOM      8  C   UNL     1     -12.373  14.087  66.504  0.00  0.00    +0.003 A 
ATOM      9  C   UNL     1     -12.435  13.287  65.378  0.00  0.00    +0.037 A 
BRANCH   4  10
ATOM     10  O   UNL     1     -11.281  11.683  64.011  0.00  0.00    -0.474 OA
BRANCH  10  11
ATOM     11  C   UNL     1     -10.285  11.298  63.100  0.00  0.00    +0.223 C 
BRANCH  11  12
ATOM     12  C   UNL     1      -9.509  10.088  63.546  0.00  0.00    +0.120 C 
BRANCH  12  13
ATOM     13  N   UNL     1      -8.352   9.820  62.724  0.00  0.00    -0.270 NA
BRANCH  13  15
ATOM     14  C   UNL     1      -7.056  11.262  61.296  0.00  0.00    +0.019 C 
ATOM     15  C   UNL     1      -8.400  10.610  61.500  0.00  0.00    +0.072 C 
ENDBRANCH  13  15
BRANCH  13  16
ATOM     16  C   UNL     1      -8.399   8.424  62.297  0.00  0.00    +0.072 C 
ATOM     17  C   UNL     1      -9.245   8.264  61.048  0.00  0.00    +0.019 C 
ENDBRANCH  13  16
ENDBRANCH  12  13
ENDBRANCH  11  12
ENDBRANCH  10  11
ENDBRANCH   4  10
ENDBRANCH   1   7
BRANCH   2  18
ATOM     18  C   UNL     1     -12.030  15.106  70.585  0.00  0.00    +0.011 A 
ATOM     19  C   UNL     1     -11.304  15.259  71.759  0.00  0.00    +0.001 A 
ATOM     20  C   UNL     1     -11.954  15.470  72.968  0.00  0.00    +0.000 A 
ATOM     21  C   UNL     1     -13.296  15.127  73.075  0.00  0.00    +0.000 A 
ATOM     22  C   UNL     1     -14.043  15.248  71.911  0.00  0.00    +0.000 A 
ATOM     23  C   UNL     1     -13.395  15.338  70.697  0.00  0.00    +0.001 A 
ENDBRANCH   2  18
BRANCH   1  24
ATOM     24  C   UNL     1     -10.337  16.251  68.615  0.00  0.00    +0.001 A 
ATOM     25  C   UNL     1     -10.808  17.364  67.936  0.00  0.00    +0.000 A 
ATOM     26  C   UNL     1      -9.996  18.438  67.615  0.00  0.00    +0.000 A 
ATOM     27  C   UNL     1      -8.625  18.310  67.756  0.00  0.00    +0.000 A 
ATOM     28  C   UNL     1      -8.152  17.302  68.569  0.00  0.00    +0.000 A 
ATOM     29  C   UNL     1      -9.008  16.305  69.013  0.00  0.00    +0.000 A 
ENDBRANCH   1  24
TORSDOF 9
ENDMDL
MODEL 5
REMARK VINA RESULT:      -6.3      1.983      3.863
REMARK  Name = 
REMARK  9 active torsions:
REMARK  status: ('A' for Active; 'I' for Inactive)
REMARK    1  A    between atoms: C_2  and  N_3
REMARK    2  A    between atoms: N_3  and  C_4
REMARK    3  A    between atoms: N_3  and  C_6
REMARK    4  A    between atoms: C_6  and  C_7
REMARK    5  A    between atoms: C_7  and  O_8
REMARK    6  A    between atoms: O_8  and  C_9
REMARK    7  A    between atoms: C_12  and  C_13
REMARK    8  A    between atoms: C_13  and  C_22
REMARK    9  A    between atoms: C_14  and  C_16
REMARK                            x       y       z     vdW  Elec       q    Type
REMARK                         _______ _______ _______ _____ _____    ______ ____
ROOT
ATOM      1  C   UNL     1     -10.820  15.208  68.264  0.00  0.00    +0.011 C 
ATOM      2  C   UNL     1     -10.541  16.197  67.416  0.00  0.00    +0.058 C 
ATOM      3 CL   UNL     1     -10.309  15.758  65.726  0.00  0.00    -0.082 Cl
ENDROOT
BRANCH   1   7
ATOM      4  C   UNL     1     -10.222  11.051  67.624  0.00  0.00    +0.139 A 
ATOM      5  C   UNL     1      -9.202  11.900  68.026  0.00  0.00    +0.037 A 
ATOM      6  C   UNL     1      -9.328  13.261  68.087  0.00  0.00    +0.003 A 
ATOM      7  C   UNL     1     -10.580  13.804  67.905  0.00  0.00    +0.001 A 
ATOM      8  C   UNL     1     -11.607  13.022  67.391  0.00  0.00    +0.003 A 
ATOM      9  C   UNL     1     -11.430  11.653  67.319  0.00  0.00    +0.037 A 
BRANCH   4  10
ATOM     10  O   UNL     1     -10.178   9.763  68.115  0.00  0.00    -0.474 OA
BRANCH  10  11
ATOM     11  C   UNL     1      -9.474   9.363  69.262  0.00  0.00    +0.223 C 
BRANCH  11  12
ATOM     12  C   UNL     1     -10.236   9.597  70.538  0.00  0.00    +0.120 C 
BRANCH  12  13
ATOM     13  N   UNL     1     -11.609   9.151  70.470  0.00  0.00    -0.270 NA
BRANCH  13  15
ATOM     14  C   UNL     1     -12.287  11.438  70.795  0.00  0.00    +0.019 C 
ATOM     15  C   UNL     1     -12.468  10.017  71.268  0.00  0.00    +0.072 C 
ENDBRANCH  13  15
BRANCH  13  16
ATOM     16  C   UNL     1     -11.697   7.829  71.085  0.00  0.00    +0.072 C 
ATOM     17  C   UNL     1     -11.511   7.913  72.588  0.00  0.00    +0.019 C 
ENDBRANCH  13  16
ENDBRANCH  12  13
ENDBRANCH  11  12
ENDBRANCH  10  11
ENDBRANCH   4  10
ENDBRANCH   1   7
BRANCH   2  18
ATOM     18  C   UNL     1     -10.085  17.489  67.945  0.00  0.00    +0.011 A 
ATOM     19  C   UNL     1     -10.727  18.660  67.562  0.00  0.00    +0.001 A 
ATOM     20  C   UNL     1     -10.048  19.871  67.566  0.00  0.00    +0.000 A 
ATOM     21  C   UNL     1      -8.659  19.859  67.556  0.00  0.00    +0.000 A 
ATOM     22  C   UNL     1      -8.061  18.782  68.195  0.00  0.00    +0.000 A 
ATOM     23  C   UNL     1      -8.810  17.657  68.470  0.00  0.00    +0.001 A 
ENDBRANCH   2  18
BRANCH   1  24
ATOM     24  C   UNL     1     -11.483  15.583  69.517  0.00  0.00    +0.001 A 
ATOM     25  C   UNL     1     -10.755  15.451  70.690  0.00  0.00    +0.000 A 
ATOM     26  C   UNL     1     -11.357  15.234  71.917  0.00  0.00    +0.000 A 
ATOM     27  C   UNL     1     -12.700  14.900  71.958  0.00  0.00    +0.000 A 
ATOM     28  C   UNL     1     -13.469  15.184  70.849  0.00  0.00    +0.000 A 
ATOM     29  C   UNL     1     -12.864  15.549  69.656  0.00  0.00    +0.000 A 
ENDBRANCH   1  24
TORSDOF 9
ENDMDL
MODEL 6
REMARK VINA RESULT:      -6.1      1.281      2.116
REMARK  Name = 
REMARK  9 active torsions:
REMARK  status: ('A' for Active; 'I' for Inactive)
REMARK    1  A    between atoms: C_2  and  N_3
REMARK    2  A    between atoms: N_3  and  C_4
REMARK    3  A    between atoms: N_3  and  C_6
REMARK    4  A    between atoms: C_6  and  C_7
REMARK    5  A    between atoms: C_7  and  O_8
REMARK    6  A    between atoms: O_8  and  C_9
REMARK    7  A    between atoms: C_12  and  C_13
REMARK    8  A    between atoms: C_13  and  C_22
REMARK    9  A    between atoms: C_14  and  C_16
REMARK                            x       y       z     vdW  Elec       q    Type
REMARK                         _______ _______ _______ _____ _____    ______ ____
ROOT
ATOM      1  C   UNL     1     -10.393  13.082  67.094  0.00  0.00    +0.011 C 
ATOM      2  C   UNL     1      -9.482  14.000  67.416  0.00  0.00    +0.058 C 
ATOM      3 CL   UNL     1      -8.418  13.628  68.769  0.00  0.00    -0.082 Cl
ENDROOT
BRANCH   1   7
ATOM      4  C   UNL     1     -11.095  10.075  70.011  0.00  0.00    +0.139 A 
ATOM      5  C   UNL     1     -10.315   9.857  68.886  0.00  0.00    +0.037 A 
ATOM      6  C   UNL     1     -10.201  10.752  67.858  0.00  0.00    +0.003 A 
ATOM      7  C   UNL     1     -10.751  12.003  68.024  0.00  0.00    +0.001 A 
ATOM      8  C   UNL     1     -11.634  12.238  69.070  0.00  0.00    +0.003 A 
ATOM      9  C   UNL     1     -11.742  11.297  70.076  0.00  0.00    +0.037 A 
BRANCH   4  10
ATOM     10  O   UNL     1     -10.712   9.416  71.161  0.00  0.00    -0.474 OA
BRANCH  10  11
ATOM     11  C   UNL     1     -11.562   8.645  71.968  0.00  0.00    +0.223 C 
BRANCH  11  12
ATOM     12  C   UNL     1     -12.206   7.503  71.230  0.00  0.00    +0.120 C 
BRANCH  12  13
ATOM     13  N   UNL     1     -11.679   6.212  71.611  0.00  0.00    -0.270 NA
BRANCH  13  15
ATOM     14  C   UNL     1     -10.980   5.024  73.585  0.00  0.00    +0.019 C 
ATOM     15  C   UNL     1     -10.881   6.323  72.826  0.00  0.00    +0.072 C 
ENDBRANCH  13  15
BRANCH  13  16
ATOM     16  C   UNL     1     -10.757   5.763  70.570  0.00  0.00    +0.072 C 
ATOM     17  C   UNL     1     -11.223   6.214  69.199  0.00  0.00    +0.019 C 
ENDBRANCH  13  16
ENDBRANCH  12  13
ENDBRANCH  11  12
ENDBRANCH  10  11
ENDBRANCH   4  10
ENDBRANCH   1   7
BRANCH   2  18
ATOM     18  C   UNL     1      -9.635  15.372  66.913  0.00  0.00    +0.011 A 
ATOM     19  C   UNL     1      -8.580  15.987  66.250  0.00  0.00    +0.001 A 
ATOM     20  C   UNL     1      -8.457  17.371  66.252  0.00  0.00    +0.000 A 
ATOM     21  C   UNL     1      -9.127  18.101  67.225  0.00  0.00    +0.000 A 
ATOM     22  C   UNL     1     -10.327  17.559  67.666  0.00  0.00    +0.000 A 
ATOM     23  C   UNL     1     -10.604  16.232  67.412  0.00  0.00    +0.001 A 
ENDBRANCH   2  18
BRANCH   1  24
ATOM     24  C   UNL     1     -10.929  13.139  65.730  0.00  0.00    +0.001 A 
ATOM     25  C   UNL     1     -12.308  13.118  65.583  0.00  0.00    +0.000 A 
ATOM     26  C   UNL     1     -12.926  12.629  64.445  0.00  0.00    +0.000 A 
ATOM     27  C   UNL     1     -12.175  11.920  63.523  0.00  0.00    +0.000 A 
ATOM     28  C   UNL     1     -10.804  12.068  63.558  0.00  0.00    +0.000 A 
ATOM     29  C   UNL     1     -10.198  12.696  64.636  0.00  0.00    +0.000 A 
ENDBRANCH   1  24
TORSDOF 9
ENDMDL
MODEL 7
REMARK VINA RESULT:      -6.1      5.488      9.306
REMARK  Name = 
REMARK  9 active torsions:
REMARK  status: ('A' for Active; 'I' for Inactive)
REMARK    1  A    between atoms: C_2  and  N_3
REMARK    2  A    between atoms: N_3  and  C_4
REMARK    3  A    between atoms: N_3  and  C_6
REMARK    4  A    between atoms: C_6  and  C_7
REMARK    5  A    between atoms: C_7  and  O_8
REMARK    6  A    between atoms: O_8  and  C_9
REMARK    7  A    between atoms: C_12  and  C_13
REMARK    8  A    between atoms: C_13  and  C_22
REMARK    9  A    between atoms: C_14  and  C_16
REMARK                            x       y       z     vdW  Elec       q    Type
REMARK                         _______ _______ _______ _____ _____    ______ ____
ROOT
ATOM      1  C   UNL     1      -8.560  16.394  67.608  0.00  0.00    +0.011 C 
ATOM      2  C   UNL     1      -9.133  15.192  67.559  0.00  0.00    +0.058 C 
ATOM      3 CL   UNL     1      -8.217  13.843  68.225  0.00  0.00    -0.082 Cl
ENDROOT
BRANCH   1   7
ATOM      4  C   UNL     1      -4.457  17.240  68.312  0.00  0.00    +0.139 A 
ATOM      5  C   UNL     1      -4.991  17.141  67.036  0.00  0.00    +0.037 A 
ATOM      6  C   UNL     1      -6.266  16.717  66.780  0.00  0.00    +0.003 A 
ATOM      7  C   UNL     1      -7.118  16.543  67.847  0.00  0.00    +0.001 A 
ATOM      8  C   UNL     1      -6.612  16.516  69.140  0.00  0.00    +0.003 A 
ATOM      9  C   UNL     1      -5.310  16.925  69.356  0.00  0.00    +0.037 A 
BRANCH   4  10
ATOM     10  O   UNL     1      -3.441  18.157  68.482  0.00  0.00    -0.474 OA
BRANCH  10  11
ATOM     11  C   UNL     1      -3.353  19.393  67.822  0.00  0.00    +0.223 C 
BRANCH  11  12
ATOM     12  C   UNL     1      -4.006  20.518  68.580  0.00  0.00    +0.120 C 
BRANCH  12  13
ATOM     13  N   UNL     1      -5.140  21.086  67.888  0.00  0.00    -0.270 NA
BRANCH  13  15
ATOM     14  C   UNL     1      -6.376  20.229  69.768  0.00  0.00    +0.019 C 
ATOM     15  C   UNL     1      -6.368  20.399  68.269  0.00  0.00    +0.072 C 
ENDBRANCH  13  15
BRANCH  13  16
ATOM     16  C   UNL     1      -4.978  20.844  66.457  0.00  0.00    +0.072 C 
ATOM     17  C   UNL     1      -6.298  20.458  65.816  0.00  0.00    +0.019 C 
ENDBRANCH  13  16
ENDBRANCH  12  13
ENDBRANCH  11  12
ENDBRANCH  10  11
ENDBRANCH   4  10
ENDBRANCH   1   7
BRANCH   2  18
ATOM     18  C   UNL     1     -10.276  14.977  66.661  0.00  0.00    +0.011 A 
ATOM     19  C   UNL     1     -11.512  14.624  67.186  0.00  0.00    +0.001 A 
ATOM     20  C   UNL     1     -12.422  13.901  66.425  0.00  0.00    +0.000 A 
ATOM     21  C   UNL     1     -11.959  13.194  65.323  0.00  0.00    +0.000 A 
ATOM     22  C   UNL     1     -10.865  13.745  64.670  0.00  0.00    +0.000 A 
ATOM     23  C   UNL     1     -10.104  14.700  65.310  0.00  0.00    +0.001 A 
ENDBRANCH   2  18
BRANCH   1  24
ATOM     24  C   UNL     1      -9.455  17.553  67.527  0.00  0.00    +0.001 A 
ATOM     25  C   UNL     1      -9.510  18.235  66.321  0.00  0.00    +0.000 A 
ATOM     26  C   UNL     1      -9.838  19.578  66.242  0.00  0.00    +0.000 A 
ATOM     27  C   UNL     1      -9.879  20.330  67.403  0.00  0.00    +0.000 A 
ATOM     28  C   UNL     1      -9.993  19.658  68.602  0.00  0.00    +0.000 A 
ATOM     29  C   UNL     1      -9.811  18.284  68.652  0.00  0.00    +0.000 A 
ENDBRANCH   1  24
TORSDOF 9
ENDMDL
MODEL 8
REMARK VINA RESULT:      -6.1      4.567      7.196
REMARK  Name = 
REMARK  9 active torsions:
REMARK  status: ('A' for Active; 'I' for Inactive)
REMARK    1  A    between atoms: C_2  and  N_3
REMARK    2  A    between atoms: N_3  and  C_4
REMARK    3  A    between atoms: N_3  and  C_6
REMARK    4  A    between atoms: C_6  and  C_7
REMARK    5  A    between atoms: C_7  and  O_8
REMARK    6  A    between atoms: O_8  and  C_9
REMARK    7  A    between atoms: C_12  and  C_13
REMARK    8  A    between atoms: C_13  and  C_22
REMARK    9  A    between atoms: C_14  and  C_16
REMARK                            x       y       z     vdW  Elec       q    Type
REMARK                         _______ _______ _______ _____ _____    ______ ____
ROOT
ATOM      1  C   UNL     1      -6.477  18.746  67.612  0.00  0.00    +0.011 C 
ATOM      2  C   UNL     1      -5.704  18.558  68.681  0.00  0.00    +0.058 C 
ATOM      3 CL   UNL     1      -6.289  17.431  69.901  0.00  0.00    -0.082 Cl
ENDROOT
BRANCH   1   7
ATOM      4  C   UNL     1     -10.495  17.422  67.994  0.00  0.00    +0.139 A 
ATOM      5  C   UNL     1      -9.505  16.646  67.411  0.00  0.00    +0.037 A 
ATOM      6  C   UNL     1      -8.246  17.105  67.135  0.00  0.00    +0.003 A 
ATOM      7  C   UNL     1      -7.891  18.346  67.613  0.00  0.00    +0.001 A 
ATOM      8  C   UNL     1      -8.866  19.208  68.098  0.00  0.00    +0.003 A 
ATOM      9  C   UNL     1     -10.134  18.713  68.337  0.00  0.00    +0.037 A 
BRANCH   4  10
ATOM     10  O   UNL     1     -11.466  16.746  68.703  0.00  0.00    -0.474 OA
BRANCH  10  11
ATOM     11  C   UNL     1     -11.270  16.129  69.949  0.00  0.00    +0.223 C 
BRANCH  11  12
ATOM     12  C   UNL     1     -12.503  15.442  70.471  0.00  0.00    +0.120 C 
BRANCH  12  13
ATOM     13  N   UNL     1     -12.352  14.954  71.823  0.00  0.00    -0.270 NA
BRANCH  13  15
ATOM     14  C   UNL     1     -14.743  14.920  71.547  0.00  0.00    +0.019 C 
ATOM     15  C   UNL     1     -13.574  14.297  72.269  0.00  0.00    +0.072 C 
ENDBRANCH  13  15
BRANCH  13  16
ATOM     16  C   UNL     1     -12.170  16.100  72.710  0.00  0.00    +0.072 C 
ATOM     17  C   UNL     1     -12.445  15.721  74.153  0.00  0.00    +0.019 C 
ENDBRANCH  13  16
ENDBRANCH  12  13
ENDBRANCH  11  12
ENDBRANCH  10  11
ENDBRANCH   4  10
ENDBRANCH   1   7
BRANCH   2  18
ATOM     18  C   UNL     1      -4.637  19.524  68.975  0.00  0.00    +0.011 A 
ATOM     19  C   UNL     1      -3.324  19.088  69.098  0.00  0.00    +0.001 A 
ATOM     20  C   UNL     1      -2.417  19.794  69.880  0.00  0.00    +0.000 A 
ATOM     21  C   UNL     1      -2.903  20.673  70.839  0.00  0.00    +0.000 A 
ATOM     22  C   UNL     1      -4.110  21.289  70.536  0.00  0.00    +0.000 A 
ATOM     23  C   UNL     1      -4.906  20.764  69.541  0.00  0.00    +0.001 A 
ENDBRANCH   2  18
BRANCH   1  24
ATOM     24  C   UNL     1      -5.819  19.262  66.407  0.00  0.00    +0.001 A 
ATOM     25  C   UNL     1      -6.353  20.401  65.824  0.00  0.00    +0.000 A 
ATOM     26  C   UNL     1      -6.221  20.676  64.474  0.00  0.00    +0.000 A 
ATOM     27  C   UNL     1      -5.756  19.685  63.628  0.00  0.00    +0.000 A 
ATOM     28  C   UNL     1      -5.073  18.626  64.190  0.00  0.00    +0.000 A 
ATOM     29  C   UNL     1      -5.084  18.440  65.564  0.00  0.00    +0.000 A 
ENDBRANCH   1  24
TORSDOF 9
ENDMDL
MODEL 9
REMARK VINA RESULT:      -6.1      4.746      9.228
REMARK  Name = 
REMARK  9 active torsions:
REMARK  status: ('A' for Active; 'I' for Inactive)
REMARK    1  A    between atoms: C_2  and  N_3
REMARK    2  A    between atoms: N_3  and  C_4
REMARK    3  A    between atoms: N_3  and  C_6
REMARK    4  A    between atoms: C_6  and  C_7
REMARK    5  A    between atoms: C_7  and  O_8
REMARK    6  A    between atoms: O_8  and  C_9
REMARK    7  A    between atoms: C_12  and  C_13
REMARK    8  A    between atoms: C_13  and  C_22
REMARK    9  A    between atoms: C_14  and  C_16
REMARK                            x       y       z     vdW  Elec       q    Type
REMARK                         _______ _______ _______ _____ _____    ______ ____
ROOT
ATOM      1  C   UNL     1      -9.316  16.257  67.034  0.00  0.00    +0.011 C 
ATOM      2  C   UNL     1     -10.392  15.793  66.399  0.00  0.00    +0.058 C 
ATOM      3 CL   UNL     1     -10.962  16.719  65.014  0.00  0.00    -0.082 Cl
ENDROOT
BRANCH   1   7
ATOM      4  C   UNL     1      -7.767  20.208  66.846  0.00  0.00    +0.139 A 
ATOM      5  C   UNL     1      -8.973  19.907  67.460  0.00  0.00    +0.037 A 
ATOM      6  C   UNL     1      -9.569  18.676  67.398  0.00  0.00    +0.003 A 
ATOM      7  C   UNL     1      -8.854  17.639  66.844  0.00  0.00    +0.001 A 
ATOM      8  C   UNL     1      -7.700  17.902  66.117  0.00  0.00    +0.003 A 
ATOM      9  C   UNL     1      -7.144  19.165  66.182  0.00  0.00    +0.037 A 
BRANCH   4  10
ATOM     10  O   UNL     1      -7.030  21.228  67.410  0.00  0.00    -0.474 OA
BRANCH  10  11
ATOM     11  C   UNL     1      -5.629  21.315  67.390  0.00  0.00    +0.223 C 
BRANCH  11  12
ATOM     12  C   UNL     1      -4.973  20.589  68.534  0.00  0.00    +0.120 C 
BRANCH  12  13
ATOM     13  N   UNL     1      -5.399  21.068  69.830  0.00  0.00    -0.270 NA
BRANCH  13  15
ATOM     14  C   UNL     1      -2.993  21.017  69.904  0.00  0.00    +0.019 C 
ATOM     15  C   UNL     1      -4.247  21.316  70.687  0.00  0.00    +0.072 C 
ENDBRANCH  13  15
BRANCH  13  16
ATOM     16  C   UNL     1      -6.162  20.009  70.486  0.00  0.00    +0.072 C 
ATOM     17  C   UNL     1      -5.972  18.681  69.779  0.00  0.00    +0.019 C 
ENDBRANCH  13  16
ENDBRANCH  12  13
ENDBRANCH  11  12
ENDBRANCH  10  11
ENDBRANCH   4  10
ENDBRANCH   1   7
BRANCH   2  18
ATOM     18  C   UNL     1     -11.245  14.799  67.064  0.00  0.00    +0.011 A 
ATOM     19  C   UNL     1     -11.671  15.014  68.368  0.00  0.00    +0.001 A 
ATOM     20  C   UNL     1     -11.978  13.941  69.196  0.00  0.00    +0.000 A 
ATOM     21  C   UNL     1     -11.482  12.684  68.873  0.00  0.00    +0.000 A 
ATOM     22  C   UNL     1     -11.324  12.429  67.518  0.00  0.00    +0.000 A 
ATOM     23  C   UNL     1     -11.311  13.481  66.628  0.00  0.00    +0.001 A 
ENDBRANCH   2  18
BRANCH   1  24
ATOM     24  C   UNL     1      -8.557  15.291  67.835  0.00  0.00    +0.001 A 
ATOM     25  C   UNL     1      -8.180  15.675  69.113  0.00  0.00    +0.000 A 
ATOM     26  C   UNL     1      -7.064  15.154  69.745  0.00  0.00    +0.000 A 
ATOM     27  C   UNL     1      -6.157  14.412  69.008  0.00  0.00    +0.000 A 
ATOM     28  C   UNL     1      -6.582  13.884  67.807  0.00  0.00    +0.000 A 
ATOM     29  C   UNL     1      -7.782  14.300  67.248  0.00  0.00    +0.000 A 
ENDBRANCH   1  24
TORSDOF 9
ENDMDL
