MODEL 1
REMARK VINA RESULT:      -5.2      0.000      0.000
REMARK  Name = 
REMARK  1 active torsions:
REMARK  status: ('A' for Active; 'I' for Inactive)
REMARK    1  A    between atoms: C_6  and  C_8
REMARK                            x       y       z     vdW  Elec       q    Type
REMARK                         _______ _______ _______ _____ _____    ______ ____
ROOT
ATOM      1  C   UNL     1     -10.937  15.935  65.004  0.00  0.00    +0.123 C 
ATOM      2  N   UNL     1     -10.982  14.775  65.751  0.00  0.00    -0.228 N 
ATOM      3  C   UNL     1      -9.970  14.269  66.619  0.00  0.00    +0.235 C 
ATOM      4  O   UNL     1      -8.754  14.574  66.550  0.00  0.00    -0.274 OA
ATOM      5  C   UNL     1     -10.605  13.377  67.612  0.00  0.00    +0.097 C 
ATOM      6  C   UNL     1      -9.699  12.256  68.038  0.00  0.00    +0.014 C 
ATOM      7  C   UNL     1     -11.757  12.798  66.839  0.00  0.00    +0.098 C 
ATOM      8  C   UNL     1     -12.023  13.793  65.755  0.00  0.00    +0.232 C 
ATOM      9  O   UNL     1     -13.185  13.918  65.265  0.00  0.00    -0.274 OA
ENDROOT
BRANCH   5  10
ATOM     10  C   UNL     1     -11.105  14.178  68.748  0.00  0.00    -0.014 A 
ATOM     11  C   UNL     1     -12.136  13.693  69.515  0.00  0.00    -0.004 A 
ATOM     12  C   UNL     1     -12.635  14.435  70.551  0.00  0.00    -0.000 A 
ATOM     13  C   UNL     1     -12.213  15.738  70.719  0.00  0.00    -0.000 A 
ATOM     14  C   UNL     1     -11.131  16.220  69.997  0.00  0.00    -0.000 A 
ATOM     15  C   UNL     1     -10.600  15.431  68.984  0.00  0.00    -0.004 A 
ENDBRANCH   5  10
TORSDOF 1
ENDMDL
MODEL 2
REMARK VINA RESULT:      -5.2      2.519      4.243
REMARK  Name = 
REMARK  1 active torsions:
REMARK  status: ('A' for Active; 'I' for Inactive)
REMARK    1  A    between atoms: C_6  and  C_8
REMARK                            x       y       z     vdW  Elec       q    Type
REMARK                         _______ _______ _______ _____ _____    ______ ____
ROOT
ATOM      1  C   UNL     1     -10.552  18.670  66.651  0.00  0.00    +0.123 C 
ATOM      2  N   UNL     1      -9.990  17.462  67.013  0.00  0.00    -0.228 N 
ATOM      3  C   UNL     1     -10.539  16.485  67.894  0.00  0.00    +0.235 C 
ATOM      4  O   UNL     1     -11.408  16.723  68.769  0.00  0.00    -0.274 OA
ATOM      5  C   UNL     1      -9.945  15.171  67.571  0.00  0.00    +0.097 C 
ATOM      6  C   UNL     1      -9.809  14.290  68.780  0.00  0.00    +0.014 C 
ATOM      7  C   UNL     1      -8.569  15.547  67.092  0.00  0.00    +0.098 C 
ATOM      8  C   UNL     1      -8.702  16.965  66.637  0.00  0.00    +0.232 C 
ATOM      9  O   UNL     1      -7.947  17.424  65.730  0.00  0.00    -0.274 OA
ENDROOT
BRANCH   5  10
ATOM     10  C   UNL     1     -10.710  14.538  66.477  0.00  0.00    -0.014 A 
ATOM     11  C   UNL     1     -12.063  14.350  66.620  0.00  0.00    -0.004 A 
ATOM     12  C   UNL     1     -12.783  13.736  65.632  0.00  0.00    -0.000 A 
ATOM     13  C   UNL     1     -12.122  13.160  64.565  0.00  0.00    -0.000 A 
ATOM     14  C   UNL     1     -10.769  13.397  64.374  0.00  0.00    -0.000 A 
ATOM     15  C   UNL     1     -10.062  14.070  65.363  0.00  0.00    -0.004 A 
ENDBRANCH   5  10
TORSDOF 1
ENDMDL
MODEL 3
REMARK VINA RESULT:      -5.2      1.597      2.332
REMARK  Name = 
REMARK  1 active torsions:
REMARK  status: ('A' for Active; 'I' for Inactive)
REMARK    1  A    between atoms: C_6  and  C_8
REMARK                            x       y       z     vdW  Elec       q    Type
REMARK                         _______ _______ _______ _____ _____    ______ ____
ROOT
ATOM      1  C   UNL     1     -12.793  14.040  65.736  0.00  0.00    +0.123 C 
ATOM      2  N   UNL     1     -11.811  13.829  66.683  0.00  0.00    -0.228 N 
ATOM      3  C   UNL     1     -11.084  14.818  67.407  0.00  0.00    +0.235 C 
ATOM      4  O   UNL     1     -10.938  16.008  67.037  0.00  0.00    -0.274 OA
ATOM      5  C   UNL     1     -10.585  14.213  68.660  0.00  0.00    +0.097 C 
ATOM      6  C   UNL     1      -9.273  14.801  69.097  0.00  0.00    +0.014 C 
ATOM      7  C   UNL     1     -10.360  12.780  68.260  0.00  0.00    +0.098 C 
ATOM      8  C   UNL     1     -11.260  12.571  67.084  0.00  0.00    +0.232 C 
ATOM      9  O   UNL     1     -11.725  11.421  66.825  0.00  0.00    -0.274 OA
ENDROOT
BRANCH   5  10
ATOM     10  C   UNL     1     -11.631  14.294  69.700  0.00  0.00    -0.014 A 
ATOM     11  C   UNL     1     -12.111  15.523  70.080  0.00  0.00    -0.004 A 
ATOM     12  C   UNL     1     -13.057  15.621  71.065  0.00  0.00    -0.000 A 
ATOM     13  C   UNL     1     -13.405  14.498  71.788  0.00  0.00    -0.000 A 
ATOM     14  C   UNL     1     -12.979  13.243  71.375  0.00  0.00    -0.000 A 
ATOM     15  C   UNL     1     -12.059  13.158  70.337  0.00  0.00    -0.004 A 
ENDBRANCH   5  10
TORSDOF 1
ENDMDL
MODEL 4
REMARK VINA RESULT:      -5.1      2.701      3.553
REMARK  Name = 
REMARK  1 active torsions:
REMARK  status: ('A' for Active; 'I' for Inactive)
REMARK    1  A    between atoms: C_6  and  C_8
REMARK                            x       y       z     vdW  Elec       q    Type
REMARK                         _______ _______ _______ _____ _____    ______ ____
ROOT
ATOM      1  C   UNL     1      -9.941  11.432  63.234  0.00  0.00    +0.123 C 
ATOM      2  N   UNL     1     -10.733  11.876  64.274  0.00  0.00    -0.228 N 
ATOM      3  C   UNL     1     -10.474  11.746  65.670  0.00  0.00    +0.235 C 
ATOM      4  O   UNL     1      -9.709  10.890  66.177  0.00  0.00    -0.274 OA
ATOM      5  C   UNL     1     -11.220  12.802  66.388  0.00  0.00    +0.097 C 
ATOM      6  C   UNL     1     -11.661  12.363  67.756  0.00  0.00    +0.014 C 
ATOM      7  C   UNL     1     -12.438  12.982  65.524  0.00  0.00    +0.098 C 
ATOM      8  C   UNL     1     -12.020  12.494  64.174  0.00  0.00    +0.232 C 
ATOM      9  O   UNL     1     -12.558  12.958  63.125  0.00  0.00    -0.274 OA
ENDROOT
BRANCH   5  10
ATOM     10  C   UNL     1     -10.421  14.044  66.408  0.00  0.00    -0.014 A 
ATOM     11  C   UNL     1     -10.925  15.180  65.823  0.00  0.00    -0.004 A 
ATOM     12  C   UNL     1     -10.186  16.332  65.802  0.00  0.00    -0.000 A 
ATOM     13  C   UNL     1      -8.872  16.306  66.223  0.00  0.00    -0.000 A 
ATOM     14  C   UNL     1      -8.371  15.188  66.874  0.00  0.00    -0.000 A 
ATOM     15  C   UNL     1      -9.155  14.042  66.934  0.00  0.00    -0.004 A 
ENDBRANCH   5  10
TORSDOF 1
ENDMDL
MODEL 5
REMARK VINA RESULT:      -5.1      2.693      3.546
REMARK  Name = 
REMARK  1 active torsions:
REMARK  status: ('A' for Active; 'I' for Inactive)
REMARK    1  A    between atoms: C_6  and  C_8
REMARK                            x       y       z     vdW  Elec       q    Type
REMARK                         _______ _______ _______ _____ _____    ______ ____
ROOT
ATOM      1  C   UNL     1     -10.061  11.425  63.127  0.00  0.00    +0.123 C 
ATOM      2  N   UNL     1     -10.800  11.885  64.199  0.00  0.00    -0.228 N 
ATOM      3  C   UNL     1     -10.481  11.763  65.583  0.00  0.00    +0.235 C 
ATOM      4  O   UNL     1      -9.701  10.903  66.061  0.00  0.00    -0.274 OA
ATOM      5  C   UNL     1     -11.182  12.831  66.325  0.00  0.00    +0.097 C 
ATOM      6  C   UNL     1     -11.565  12.407  67.715  0.00  0.00    +0.014 C 
ATOM      7  C   UNL     1     -12.436  13.017  65.516  0.00  0.00    +0.098 C 
ATOM      8  C   UNL     1     -12.084  12.515  64.152  0.00  0.00    +0.232 C 
ATOM      9  O   UNL     1     -12.665  12.977  63.125  0.00  0.00    -0.274 OA
ENDROOT
BRANCH   5  10
ATOM     10  C   UNL     1     -10.372  14.066  66.300  0.00  0.00    -0.014 A 
ATOM     11  C   UNL     1      -9.118  14.062  66.859  0.00  0.00    -0.004 A 
ATOM     12  C   UNL     1      -8.364  15.204  66.875  0.00  0.00    -0.000 A 
ATOM     13  C   UNL     1      -8.930  16.398  66.476  0.00  0.00    -0.000 A 
ATOM     14  C   UNL     1     -10.169  16.408  65.850  0.00  0.00    -0.000 A 
ATOM     15  C   UNL     1     -10.899  15.227  65.794  0.00  0.00    -0.004 A 
ENDBRANCH   5  10
TORSDOF 1
ENDMDL
MODEL 6
REMARK VINA RESULT:      -5.0      6.763      8.059
REMARK  Name = 
REMARK  1 active torsions:
REMARK  status: ('A' for Active; 'I' for Inactive)
REMARK    1  A    between atoms: C_6  and  C_8
REMARK                            x       y       z     vdW  Elec       q    Type
REMARK                         _______ _______ _______ _____ _____    ______ ____
ROOT
ATOM      1  C   UNL     1     -12.838  10.983  71.525  0.00  0.00    +0.123 C 
ATOM      2  N   UNL     1     -12.728   9.621  71.329  0.00  0.00    -0.228 N 
ATOM      3  C   UNL     1     -11.739   8.936  70.565  0.00  0.00    +0.235 C 
ATOM      4  O   UNL     1     -11.057   9.459  69.650  0.00  0.00    -0.274 OA
ATOM      5  C   UNL     1     -11.635   7.548  71.063  0.00  0.00    +0.097 C 
ATOM      6  C   UNL     1     -11.276   6.574  69.976  0.00  0.00    +0.014 C 
ATOM      7  C   UNL     1     -13.040   7.263  71.520  0.00  0.00    +0.098 C 
ATOM      8  C   UNL     1     -13.630   8.610  71.791  0.00  0.00    +0.232 C 
ATOM      9  O   UNL     1     -14.550   8.749  72.650  0.00  0.00    -0.274 OA
ENDROOT
BRANCH   5  10
ATOM     10  C   UNL     1     -10.707   7.502  72.211  0.00  0.00    -0.014 A 
ATOM     11  C   UNL     1      -9.562   8.260  72.184  0.00  0.00    -0.004 A 
ATOM     12  C   UNL     1      -8.673   8.206  73.223  0.00  0.00    -0.000 A 
ATOM     13  C   UNL     1      -8.847   7.267  74.219  0.00  0.00    -0.000 A 
ATOM     14  C   UNL     1     -10.027   6.541  74.295  0.00  0.00    -0.000 A 
ATOM     15  C   UNL     1     -10.945   6.648  73.258  0.00  0.00    -0.004 A 
ENDBRANCH   5  10
TORSDOF 1
ENDMDL
MODEL 7
REMARK VINA RESULT:      -5.0      2.314      3.822
REMARK  Name = 
REMARK  1 active torsions:
REMARK  status: ('A' for Active; 'I' for Inactive)
REMARK    1  A    between atoms: C_6  and  C_8
REMARK                            x       y       z     vdW  Elec       q    Type
REMARK                         _______ _______ _______ _____ _____    ______ ____
ROOT
ATOM      1  C   UNL     1     -12.789  11.924  63.399  0.00  0.00    +0.123 C 
ATOM      2  N   UNL     1     -11.988  12.636  64.269  0.00  0.00    -0.228 N 
ATOM      3  C   UNL     1     -12.413  13.473  65.343  0.00  0.00    +0.235 C 
ATOM      4  O   UNL     1     -13.549  13.999  65.430  0.00  0.00    -0.274 OA
ATOM      5  C   UNL     1     -11.314  13.570  66.328  0.00  0.00    +0.097 C 
ATOM      6  C   UNL     1     -11.288  14.899  67.028  0.00  0.00    +0.014 C 
ATOM      7  C   UNL     1     -10.091  13.458  65.460  0.00  0.00    +0.098 C 
ATOM      8  C   UNL     1     -10.562  12.747  64.232  0.00  0.00    +0.232 C 
ATOM      9  O   UNL     1      -9.764  12.036  63.552  0.00  0.00    -0.274 OA
ENDROOT
BRANCH   5  10
ATOM     10  C   UNL     1     -11.384  12.425  67.260  0.00  0.00    -0.014 A 
ATOM     11  C   UNL     1     -11.782  12.635  68.557  0.00  0.00    -0.004 A 
ATOM     12  C   UNL     1     -11.821  11.594  69.444  0.00  0.00    -0.000 A 
ATOM     13  C   UNL     1     -11.303  10.367  69.078  0.00  0.00    -0.000 A 
ATOM     14  C   UNL     1     -10.959  10.123  67.756  0.00  0.00    -0.000 A 
ATOM     15  C   UNL     1     -10.976  11.180  66.855  0.00  0.00    -0.004 A 
ENDBRANCH   5  10
TORSDOF 1
ENDMDL
MODEL 8
REMARK VINA RESULT:      -5.0      2.349      4.874
REMARK  Name = 
REMARK  1 active torsions:
REMARK  status: ('A' for Active; 'I' for Inactive)
REMARK    1  A    between atoms: C_6  and  C_8
REMARK                            x       y       z     vdW  Elec       q    Type
REMARK                         _______ _______ _______ _____ _____    ______ ____
ROOT
ATOM      1  C   UNL     1      -8.424  15.766  66.520  0.00  0.00    +0.123 C 
ATOM      2  N   UNL     1      -9.644  15.126  66.605  0.00  0.00    -0.228 N 
ATOM      3  C   UNL     1     -10.646  15.042  65.595  0.00  0.00    +0.235 C 
ATOM      4  O   UNL     1     -10.757  15.841  64.633  0.00  0.00    -0.274 OA
ATOM      5  C   UNL     1     -11.482  13.851  65.858  0.00  0.00    +0.097 C 
ATOM      6  C   UNL     1     -12.907  14.044  65.422  0.00  0.00    +0.014 C 
ATOM      7  C   UNL     1     -11.446  13.755  67.358  0.00  0.00    +0.098 C 
ATOM      8  C   UNL     1     -10.194  14.472  67.753  0.00  0.00    +0.232 C 
ATOM      9  O   UNL     1      -9.578  14.157  68.814  0.00  0.00    -0.274 OA
ENDROOT
BRANCH   5  10
ATOM     10  C   UNL     1     -10.849  12.660  65.255  0.00  0.00    -0.014 A 
ATOM     11  C   UNL     1     -10.625  12.627  63.901  0.00  0.00    -0.004 A 
ATOM     12  C   UNL     1     -10.070  11.519  63.320  0.00  0.00    -0.000 A 
ATOM     13  C   UNL     1      -9.889  10.375  64.070  0.00  0.00    -0.000 A 
ATOM     14  C   UNL     1     -10.049  10.413  65.448  0.00  0.00    -0.000 A 
ATOM     15  C   UNL     1     -10.563  11.565  66.030  0.00  0.00    -0.004 A 
ENDBRANCH   5  10
TORSDOF 1
ENDMDL
MODEL 9
REMARK VINA RESULT:      -4.9      6.419      8.223
REMARK  Name = 
REMARK  1 active torsions:
REMARK  status: ('A' for Active; 'I' for Inactive)
REMARK    1  A    between atoms: C_6  and  C_8
REMARK                            x       y       z     vdW  Elec       q    Type
REMARK                         _______ _______ _______ _____ _____    ______ ____
ROOT
ATOM      1  C   UNL     1     -14.461   7.622  71.667  0.00  0.00    +0.123 C 
ATOM      2  N   UNL     1     -13.127   7.979  71.675  0.00  0.00    -0.228 N 
ATOM      3  C   UNL     1     -12.002   7.106  71.747  0.00  0.00    +0.235 C 
ATOM      4  O   UNL     1     -12.036   5.935  72.198  0.00  0.00    -0.274 OA
ATOM      5  C   UNL     1     -10.830   7.799  71.171  0.00  0.00    +0.097 C 
ATOM      6  C   UNL     1      -9.542   7.391  71.828  0.00  0.00    +0.014 C 
ATOM      7  C   UNL     1     -11.108   9.238  71.507  0.00  0.00    +0.098 C 
ATOM      8  C   UNL     1     -12.591   9.305  71.688  0.00  0.00    +0.232 C 
ATOM      9  O   UNL     1     -13.221  10.380  71.460  0.00  0.00    -0.274 OA
ENDROOT
BRANCH   5  10
ATOM     10  C   UNL     1     -10.817   7.612  69.705  0.00  0.00    -0.014 A 
ATOM     11  C   UNL     1     -11.041   6.362  69.182  0.00  0.00    -0.004 A 
ATOM     12  C   UNL     1     -11.000   6.162  67.829  0.00  0.00    -0.000 A 
ATOM     13  C   UNL     1     -10.570   7.181  67.003  0.00  0.00    -0.000 A 
ATOM     14  C   UNL     1     -10.402   8.463  67.507  0.00  0.00    -0.000 A 
ATOM     15  C   UNL     1     -10.501   8.660  68.879  0.00  0.00    -0.004 A 
ENDBRANCH   5  10
TORSDOF 1
ENDMDL
