MODEL 1
REMARK VINA RESULT:      -6.6      0.000      0.000
REMARK  Name = 
REMARK  1 active torsions:
REMARK  status: ('A' for Active; 'I' for Inactive)
REMARK    1  A    between atoms: C_5  and  C_6
REMARK                            x       y       z     vdW  Elec       q    Type
REMARK                         _______ _______ _______ _____ _____    ______ ____
ROOT
ATOM      1  N   UNL     1     -13.204  12.029  63.725  0.00  0.00    -0.085 NA
ATOM      2  C   UNL     1     -12.143  12.988  63.736  0.00  0.00    +0.276 A 
ATOM      3  N   UNL     1     -12.379  14.319  63.632  0.00  0.00    -0.190 NA
ATOM      4  C   UNL     1     -11.689  15.206  64.393  0.00  0.00    +0.192 A 
ATOM      5  N   UNL     1     -11.690  16.609  64.101  0.00  0.00    -0.105 NA
ATOM      6  C   UNL     1     -10.593  14.717  65.095  0.00  0.00    +0.138 A 
ATOM      7  N   UNL     1     -10.100  13.495  64.774  0.00  0.00    -0.142 NA
ATOM      8  N   UNL     1     -10.880  12.653  64.095  0.00  0.00    -0.109 NA
ENDROOT
BRANCH   6   9
ATOM      9  C   UNL     1     -10.185  15.455  66.270  0.00  0.00    +0.034 A 
ATOM     10  C   UNL     1     -10.904  15.257  67.439  0.00  0.00    +0.070 A 
ATOM     11 CL   UNL     1     -12.117  13.980  67.485  0.00  0.00    -0.081 Cl
ATOM     12  C   UNL     1     -11.029  16.236  68.409  0.00  0.00    +0.068 A 
ATOM     13 CL   UNL     1     -11.921  15.899  69.870  0.00  0.00    -0.081 Cl
ATOM     14  C   UNL     1     -10.388  17.454  68.239  0.00  0.00    +0.012 A 
ATOM     15  C   UNL     1      -9.707  17.688  67.076  0.00  0.00    +0.001 A 
ATOM     16  C   UNL     1      -9.527  16.674  66.167  0.00  0.00    +0.003 A 
ENDBRANCH   6   9
TORSDOF 1
ENDMDL
MODEL 2
REMARK VINA RESULT:      -6.5      2.707      3.874
REMARK  Name = 
REMARK  1 active torsions:
REMARK  status: ('A' for Active; 'I' for Inactive)
REMARK    1  A    between atoms: C_5  and  C_6
REMARK                            x       y       z     vdW  Elec       q    Type
REMARK                         _______ _______ _______ _____ _____    ______ ____
ROOT
ATOM      1  N   UNL     1     -11.848  16.292  63.873  0.00  0.00    -0.085 NA
ATOM      2  C   UNL     1     -11.644  15.060  64.569  0.00  0.00    +0.276 A 
ATOM      3  N   UNL     1     -10.423  14.693  65.033  0.00  0.00    -0.190 NA
ATOM      4  C   UNL     1     -10.292  14.113  66.252  0.00  0.00    +0.192 A 
ATOM      5  N   UNL     1      -9.085  13.446  66.643  0.00  0.00    -0.105 NA
ATOM      6  C   UNL     1     -11.461  13.709  66.888  0.00  0.00    +0.138 A 
ATOM      7  N   UNL     1     -12.609  13.642  66.170  0.00  0.00    -0.142 NA
ATOM      8  N   UNL     1     -12.679  14.313  65.020  0.00  0.00    -0.109 NA
ENDROOT
BRANCH   6   9
ATOM      9  C   UNL     1     -11.417  13.595  68.329  0.00  0.00    +0.034 A 
ATOM     10  C   UNL     1     -11.496  12.324  68.879  0.00  0.00    +0.070 A 
ATOM     11 CL   UNL     1     -11.429  10.929  67.806  0.00  0.00    -0.081 Cl
ATOM     12  C   UNL     1     -12.030  12.090  70.134  0.00  0.00    +0.068 A 
ATOM     13 CL   UNL     1     -12.061  10.467  70.773  0.00  0.00    -0.081 Cl
ATOM     14  C   UNL     1     -12.475  13.158  70.899  0.00  0.00    +0.012 A 
ATOM     15  C   UNL     1     -12.445  14.416  70.362  0.00  0.00    +0.001 A 
ATOM     16  C   UNL     1     -11.836  14.634  69.151  0.00  0.00    +0.003 A 
ENDBRANCH   6   9
TORSDOF 1
ENDMDL
MODEL 3
REMARK VINA RESULT:      -6.3      3.146      5.454
REMARK  Name = 
REMARK  1 active torsions:
REMARK  status: ('A' for Active; 'I' for Inactive)
REMARK    1  A    between atoms: C_5  and  C_6
REMARK                            x       y       z     vdW  Elec       q    Type
REMARK                         _______ _______ _______ _____ _____    ______ ____
ROOT
ATOM      1  N   UNL     1     -11.273  16.678  64.174  0.00  0.00    -0.085 NA
ATOM      2  C   UNL     1     -11.388  15.404  64.812  0.00  0.00    +0.276 A 
ATOM      3  N   UNL     1     -12.401  14.548  64.527  0.00  0.00    -0.190 NA
ATOM      4  C   UNL     1     -12.169  13.217  64.402  0.00  0.00    +0.192 A 
ATOM      5  N   UNL     1     -13.239  12.263  64.405  0.00  0.00    -0.105 NA
ATOM      6  C   UNL     1     -10.920  12.754  64.801  0.00  0.00    +0.138 A 
ATOM      7  N   UNL     1     -10.126  13.565  65.543  0.00  0.00    -0.142 NA
ATOM      8  N   UNL     1     -10.377  14.875  65.541  0.00  0.00    -0.109 NA
ENDROOT
BRANCH   6   9
ATOM      9  C   UNL     1     -10.463  11.514  64.213  0.00  0.00    +0.034 A 
ATOM     10  C   UNL     1     -10.230  10.444  65.063  0.00  0.00    +0.070 A 
ATOM     11 CL   UNL     1     -10.703  10.583  66.754  0.00  0.00    -0.081 Cl
ATOM     12  C   UNL     1      -9.299   9.460  64.780  0.00  0.00    +0.068 A 
ATOM     13 CL   UNL     1      -9.090   8.123  65.883  0.00  0.00    -0.081 Cl
ATOM     14  C   UNL     1      -8.587   9.511  63.591  0.00  0.00    +0.012 A 
ATOM     15  C   UNL     1      -8.769  10.580  62.756  0.00  0.00    +0.001 A 
ATOM     16  C   UNL     1      -9.757  11.498  63.016  0.00  0.00    +0.003 A 
ENDBRANCH   6   9
TORSDOF 1
ENDMDL
MODEL 4
REMARK VINA RESULT:      -6.0      1.799      2.186
REMARK  Name = 
REMARK  1 active torsions:
REMARK  status: ('A' for Active; 'I' for Inactive)
REMARK    1  A    between atoms: C_5  and  C_6
REMARK                            x       y       z     vdW  Elec       q    Type
REMARK                         _______ _______ _______ _____ _____    ______ ____
ROOT
ATOM      1  N   UNL     1     -13.169  12.084  63.620  0.00  0.00    -0.085 NA
ATOM      2  C   UNL     1     -12.096  12.959  63.973  0.00  0.00    +0.276 A 
ATOM      3  N   UNL     1     -12.168  14.299  63.775  0.00  0.00    -0.190 NA
ATOM      4  C   UNL     1     -11.700  15.163  64.710  0.00  0.00    +0.192 A 
ATOM      5  N   UNL     1     -11.483  16.549  64.413  0.00  0.00    -0.105 NA
ATOM      6  C   UNL     1     -10.949  14.624  65.749  0.00  0.00    +0.138 A 
ATOM      7  N   UNL     1     -10.484  13.356  65.632  0.00  0.00    -0.142 NA
ATOM      8  N   UNL     1     -11.060  12.547  64.743  0.00  0.00    -0.109 NA
ENDROOT
BRANCH   6   9
ATOM      9  C   UNL     1     -10.898  15.380  66.981  0.00  0.00    +0.034 A 
ATOM     10  C   UNL     1      -9.697  15.987  67.317  0.00  0.00    +0.070 A 
ATOM     11 CL   UNL     1      -8.386  15.985  66.141  0.00  0.00    -0.081 Cl
ATOM     12  C   UNL     1      -9.325  16.219  68.630  0.00  0.00    +0.068 A 
ATOM     13 CL   UNL     1      -7.813  17.021  68.971  0.00  0.00    -0.081 Cl
ATOM     14  C   UNL     1     -10.187  15.871  69.659  0.00  0.00    +0.012 A 
ATOM     15  C   UNL     1     -11.359  15.234  69.354  0.00  0.00    +0.001 A 
ATOM     16  C   UNL     1     -11.745  15.090  68.044  0.00  0.00    +0.003 A 
ENDBRANCH   6   9
TORSDOF 1
ENDMDL
MODEL 5
REMARK VINA RESULT:      -6.0      2.703      3.569
REMARK  Name = 
REMARK  1 active torsions:
REMARK  status: ('A' for Active; 'I' for Inactive)
REMARK    1  A    between atoms: C_5  and  C_6
REMARK                            x       y       z     vdW  Elec       q    Type
REMARK                         _______ _______ _______ _____ _____    ______ ____
ROOT
ATOM      1  N   UNL     1     -12.142  13.680  63.720  0.00  0.00    -0.085 NA
ATOM      2  C   UNL     1     -12.038  14.835  64.554  0.00  0.00    +0.276 A 
ATOM      3  N   UNL     1     -11.981  14.741  65.906  0.00  0.00    -0.190 NA
ATOM      4  C   UNL     1     -11.135  15.526  66.619  0.00  0.00    +0.192 A 
ATOM      5  N   UNL     1     -11.260  15.671  68.040  0.00  0.00    -0.105 NA
ATOM      6  C   UNL     1     -10.516  16.569  65.939  0.00  0.00    +0.138 A 
ATOM      7  N   UNL     1     -10.987  16.927  64.719  0.00  0.00    -0.142 NA
ATOM      8  N   UNL     1     -11.746  16.058  64.050  0.00  0.00    -0.109 NA
ENDROOT
BRANCH   6   9
ATOM      9  C   UNL     1      -9.270  17.060  66.486  0.00  0.00    +0.034 A 
ATOM     10  C   UNL     1      -9.221  18.384  66.893  0.00  0.00    +0.070 A 
ATOM     11 CL   UNL     1     -10.714  19.320  66.923  0.00  0.00    -0.081 Cl
ATOM     12  C   UNL     1      -8.051  19.123  66.878  0.00  0.00    +0.068 A 
ATOM     13 CL   UNL     1      -8.063  20.774  67.441  0.00  0.00    -0.081 Cl
ATOM     14  C   UNL     1      -6.867  18.523  66.477  0.00  0.00    +0.012 A 
ATOM     15  C   UNL     1      -6.897  17.229  66.032  0.00  0.00    +0.001 A 
ATOM     16  C   UNL     1      -8.051  16.492  66.135  0.00  0.00    +0.003 A 
ENDBRANCH   6   9
TORSDOF 1
ENDMDL
MODEL 6
REMARK VINA RESULT:      -5.9      2.737      4.701
REMARK  Name = 
REMARK  1 active torsions:
REMARK  status: ('A' for Active; 'I' for Inactive)
REMARK    1  A    between atoms: C_5  and  C_6
REMARK                            x       y       z     vdW  Elec       q    Type
REMARK                         _______ _______ _______ _____ _____    ______ ____
ROOT
ATOM      1  N   UNL     1      -9.599  20.314  67.275  0.00  0.00    -0.085 NA
ATOM      2  C   UNL     1     -10.342  19.107  67.089  0.00  0.00    +0.276 A 
ATOM      3  N   UNL     1     -10.586  18.599  65.856  0.00  0.00    -0.190 NA
ATOM      4  C   UNL     1     -10.500  17.264  65.628  0.00  0.00    +0.192 A 
ATOM      5  N   UNL     1     -11.037  16.668  64.440  0.00  0.00    -0.105 NA
ATOM      6  C   UNL     1     -10.383  16.440  66.741  0.00  0.00    +0.138 A 
ATOM      7  N   UNL     1     -10.648  16.953  67.968  0.00  0.00    -0.142 NA
ATOM      8  N   UNL     1     -10.629  18.278  68.121  0.00  0.00    -0.109 NA
ENDROOT
BRANCH   6   9
ATOM      9  C   UNL     1      -9.776  15.143  66.536  0.00  0.00    +0.034 A 
ATOM     10  C   UNL     1     -10.599  14.028  66.595  0.00  0.00    +0.070 A 
ATOM     11 CL   UNL     1     -12.341  14.262  66.701  0.00  0.00    -0.081 Cl
ATOM     12  C   UNL     1     -10.136  12.785  66.989  0.00  0.00    +0.068 A 
ATOM     13 CL   UNL     1     -11.225  11.421  67.003  0.00  0.00    -0.081 Cl
ATOM     14  C   UNL     1      -8.796  12.621  67.306  0.00  0.00    +0.012 A 
ATOM     15  C   UNL     1      -7.974  13.715  67.294  0.00  0.00    +0.001 A 
ATOM     16  C   UNL     1      -8.435  14.918  66.821  0.00  0.00    +0.003 A 
ENDBRANCH   6   9
TORSDOF 1
ENDMDL
MODEL 7
REMARK VINA RESULT:      -5.9      3.586      5.756
REMARK  Name = 
REMARK  1 active torsions:
REMARK  status: ('A' for Active; 'I' for Inactive)
REMARK    1  A    between atoms: C_5  and  C_6
REMARK                            x       y       z     vdW  Elec       q    Type
REMARK                         _______ _______ _______ _____ _____    ______ ____
ROOT
ATOM      1  N   UNL     1     -12.102  16.071  69.504  0.00  0.00    -0.085 NA
ATOM      2  C   UNL     1     -11.423  14.902  69.039  0.00  0.00    +0.276 A 
ATOM      3  N   UNL     1     -11.888  13.654  69.294  0.00  0.00    -0.190 NA
ATOM      4  C   UNL     1     -11.856  12.694  68.336  0.00  0.00    +0.192 A 
ATOM      5  N   UNL     1     -12.050  11.310  68.651  0.00  0.00    -0.105 NA
ATOM      6  C   UNL     1     -11.127  12.975  67.185  0.00  0.00    +0.138 A 
ATOM      7  N   UNL     1     -10.271  14.027  67.191  0.00  0.00    -0.142 NA
ATOM      8  N   UNL     1     -10.429  14.969  68.121  0.00  0.00    -0.109 NA
ENDROOT
BRANCH   6   9
ATOM      9  C   UNL     1     -11.492  12.254  65.986  0.00  0.00    +0.034 A 
ATOM     10  C   UNL     1     -10.590  11.324  65.491  0.00  0.00    +0.070 A 
ATOM     11 CL   UNL     1      -9.170  10.924  66.453  0.00  0.00    -0.081 Cl
ATOM     12  C   UNL     1     -10.512  11.009  64.146  0.00  0.00    +0.068 A 
ATOM     13 CL   UNL     1      -9.375   9.801  63.605  0.00  0.00    -0.081 Cl
ATOM     14  C   UNL     1     -11.383  11.609  63.249  0.00  0.00    +0.012 A 
ATOM     15  C   UNL     1     -12.255  12.559  63.708  0.00  0.00    +0.001 A 
ATOM     16  C   UNL     1     -12.372  12.794  65.055  0.00  0.00    +0.003 A 
ENDBRANCH   6   9
TORSDOF 1
ENDMDL
MODEL 8
REMARK VINA RESULT:      -5.9      2.855      5.159
REMARK  Name = 
REMARK  1 active torsions:
REMARK  status: ('A' for Active; 'I' for Inactive)
REMARK    1  A    between atoms: C_5  and  C_6
REMARK                            x       y       z     vdW  Elec       q    Type
REMARK                         _______ _______ _______ _____ _____    ______ ____
ROOT
ATOM      1  N   UNL     1     -10.912  18.872  67.613  0.00  0.00    -0.085 NA
ATOM      2  C   UNL     1     -10.545  17.494  67.713  0.00  0.00    +0.276 A 
ATOM      3  N   UNL     1     -11.256  16.615  68.464  0.00  0.00    -0.190 NA
ATOM      4  C   UNL     1     -11.508  15.362  68.010  0.00  0.00    +0.192 A 
ATOM      5  N   UNL     1     -11.981  14.327  68.881  0.00  0.00    -0.105 NA
ATOM      6  C   UNL     1     -10.822  14.953  66.871  0.00  0.00    +0.138 A 
ATOM      7  N   UNL     1      -9.756  15.679  66.451  0.00  0.00    -0.142 NA
ATOM      8  N   UNL     1      -9.632  16.934  66.884  0.00  0.00    -0.109 NA
ENDROOT
BRANCH   6   9
ATOM      9  C   UNL     1     -11.426  13.899  66.086  0.00  0.00    +0.034 A 
ATOM     10  C   UNL     1     -10.815  12.655  66.097  0.00  0.00    +0.070 A 
ATOM     11 CL   UNL     1      -9.486  12.370  67.218  0.00  0.00    -0.081 Cl
ATOM     12  C   UNL     1     -10.897  11.778  65.030  0.00  0.00    +0.068 A 
ATOM     13 CL   UNL     1     -10.132  10.213  65.135  0.00  0.00    -0.081 Cl
ATOM     14  C   UNL     1     -11.642  12.125  63.913  0.00  0.00    +0.012 A 
ATOM     15  C   UNL     1     -12.220  13.365  63.861  0.00  0.00    +0.001 A 
ATOM     16  C   UNL     1     -12.195  14.183  64.964  0.00  0.00    +0.003 A 
ENDBRANCH   6   9
TORSDOF 1
ENDMDL
MODEL 9
REMARK VINA RESULT:      -5.8      2.858      4.836
REMARK  Name = 
REMARK  1 active torsions:
REMARK  status: ('A' for Active; 'I' for Inactive)
REMARK    1  A    between atoms: C_5  and  C_6
REMARK                            x       y       z     vdW  Elec       q    Type
REMARK                         _______ _______ _______ _____ _____    ______ ____
ROOT
ATOM      1  N   UNL     1      -8.738  19.481  65.804  0.00  0.00    -0.085 NA
ATOM      2  C   UNL     1      -8.895  18.241  66.497  0.00  0.00    +0.276 A 
ATOM      3  N   UNL     1      -9.843  18.067  67.450  0.00  0.00    -0.190 NA
ATOM      4  C   UNL     1     -10.553  16.913  67.517  0.00  0.00    +0.192 A 
ATOM      5  N   UNL     1     -11.334  16.575  68.672  0.00  0.00    -0.105 NA
ATOM      6  C   UNL     1     -10.112  15.853  66.732  0.00  0.00    +0.138 A 
ATOM      7  N   UNL     1      -8.874  15.915  66.183  0.00  0.00    -0.142 NA
ATOM      8  N   UNL     1      -8.283  17.106  66.080  0.00  0.00    -0.109 NA
ENDROOT
BRANCH   6   9
ATOM      9  C   UNL     1     -11.091  14.849  66.377  0.00  0.00    +0.034 A 
ATOM     10  C   UNL     1     -11.011  13.618  67.010  0.00  0.00    +0.070 A 
ATOM     11 CL   UNL     1      -9.878  13.419  68.344  0.00  0.00    -0.081 Cl
ATOM     12  C   UNL     1     -11.445  12.447  66.412  0.00  0.00    +0.068 A 
ATOM     13 CL   UNL     1     -11.346  10.941  67.288  0.00  0.00    -0.081 Cl
ATOM     14  C   UNL     1     -12.015  12.492  65.149  0.00  0.00    +0.012 A 
ATOM     15  C   UNL     1     -12.066  13.690  64.488  0.00  0.00    +0.001 A 
ATOM     16  C   UNL     1     -11.708  14.848  65.132  0.00  0.00    +0.003 A 
ENDBRANCH   6   9
TORSDOF 1
ENDMDL
