MODEL 1
REMARK VINA RESULT:      -8.5      0.000      0.000
REMARK  Name = 
REMARK  6 active torsions:
REMARK  status: ('A' for Active; 'I' for Inactive)
REMARK    1  A    between atoms: C_2  and  C_5
REMARK    2  A    between atoms: C_7  and  C_8
REMARK    3  A    between atoms: C_12  and  N_13
REMARK    4  A    between atoms: N_13  and  S_14
REMARK    5  A    between atoms: S_14  and  C_17
REMARK    6  A    between atoms: C_27  and  C_28
REMARK                            x       y       z     vdW  Elec       q    Type
REMARK                         _______ _______ _______ _____ _____    ______ ____
ROOT
ATOM      1  C   UNL     1     -11.414  13.461  66.961  0.00  0.00    +0.047 A 
ATOM      2  C   UNL     1     -10.282  14.199  66.634  0.00  0.00    +0.158 A 
ATOM      3  F   UNL     1      -9.274  14.159  67.548  0.00  0.00    -0.203 F 
ATOM      4  C   UNL     1     -10.301  15.210  65.692  0.00  0.00    +0.118 A 
ATOM      5  C   UNL     1     -11.299  15.163  64.731  0.00  0.00    +0.020 A 
ATOM      6  C   UNL     1     -12.449  14.465  65.058  0.00  0.00    +0.002 A 
ATOM      7  C   UNL     1     -12.538  13.687  66.205  0.00  0.00    +0.004 A 
ENDROOT
BRANCH   1  11
ATOM      8  C   UNL     1     -10.924  10.268  68.526  0.00  0.00    +0.087 A 
ATOM      9  S   UNL     1     -11.492  11.058  69.944  0.00  0.00    -0.069 S 
ATOM     10  C   UNL     1     -11.861  12.584  69.238  0.00  0.00    +0.066 A 
ATOM     11  C   UNL     1     -11.333  12.388  67.964  0.00  0.00    +0.091 A 
ATOM     12  N   UNL     1     -11.395  11.105  67.601  0.00  0.00    -0.243 NA
BRANCH  10  13
ATOM     13  C   UNL     1     -12.035  13.860  69.949  0.00  0.00    +0.093 A 
ATOM     14  N   UNL     1     -13.280  14.326  70.221  0.00  0.00    -0.211 NA
ATOM     15  C   UNL     1     -13.439  15.182  71.240  0.00  0.00    +0.257 A 
ATOM     16  N   UNL     1     -14.765  15.484  71.630  0.00  0.00    -0.086 NA
ATOM     17  N   UNL     1     -12.362  15.893  71.611  0.00  0.00    -0.210 NA
ATOM     18  C   UNL     1     -11.248  15.884  70.840  0.00  0.00    +0.103 A 
ATOM     19  C   UNL     1     -11.051  14.841  69.944  0.00  0.00    +0.040 A 
ENDBRANCH  10  13
BRANCH   8  21
ATOM     20  C   UNL     1      -8.736   9.259  68.481  0.00  0.00    +0.006 C 
ATOM     21  C   UNL     1     -10.224   8.954  68.378  0.00  0.00    +0.041 C 
ATOM     22  C   UNL     1     -10.608   8.006  69.479  0.00  0.00    +0.006 C 
ATOM     23  C   UNL     1     -10.519   8.422  67.003  0.00  0.00    +0.006 C 
ENDBRANCH   8  21
ENDBRANCH   1  11
BRANCH   4  24
ATOM     24  N   UNL     1      -9.364  16.282  65.729  0.00  0.00    -0.094 NA
BRANCH  24  25
ATOM     25  S   UNL     1      -9.815  17.741  66.514  0.00  0.00    +0.097 S 
ATOM     26  O   UNL     1     -10.728  17.420  67.657  0.00  0.00    -0.148 OA
ATOM     27  O   UNL     1     -10.588  18.602  65.550  0.00  0.00    -0.148 OA
BRANCH  25  28
ATOM     28  C   UNL     1      -8.437  18.616  67.103  0.00  0.00    +0.182 A 
ATOM     29  C   UNL     1      -8.504  19.993  67.271  0.00  0.00    +0.161 A 
ATOM     30  F   UNL     1      -9.654  20.668  66.988  0.00  0.00    -0.203 F 
ATOM     31  C   UNL     1      -7.317  20.670  67.489  0.00  0.00    +0.031 A 
ATOM     32  C   UNL     1      -6.179  19.937  67.780  0.00  0.00    +0.005 A 
ATOM     33  C   UNL     1      -6.344  18.633  68.196  0.00  0.00    +0.031 A 
ATOM     34  C   UNL     1      -7.489  17.957  67.860  0.00  0.00    +0.161 A 
ATOM     35  F   UNL     1      -7.609  16.678  68.248  0.00  0.00    -0.203 F 
ENDBRANCH  25  28
ENDBRANCH  24  25
ENDBRANCH   4  24
TORSDOF 6
ENDMDL
MODEL 2
REMARK VINA RESULT:      -8.4      2.153      4.644
REMARK  Name = 
REMARK  6 active torsions:
REMARK  status: ('A' for Active; 'I' for Inactive)
REMARK    1  A    between atoms: C_2  and  C_5
REMARK    2  A    between atoms: C_7  and  C_8
REMARK    3  A    between atoms: C_12  and  N_13
REMARK    4  A    between atoms: N_13  and  S_14
REMARK    5  A    between atoms: S_14  and  C_17
REMARK    6  A    between atoms: C_27  and  C_28
REMARK                            x       y       z     vdW  Elec       q    Type
REMARK                         _______ _______ _______ _____ _____    ______ ____
ROOT
ATOM      1  C   UNL     1      -9.760  14.665  67.910  0.00  0.00    +0.047 A 
ATOM      2  C   UNL     1      -9.994  15.978  67.518  0.00  0.00    +0.158 A 
ATOM      3  F   UNL     1     -11.294  16.379  67.566  0.00  0.00    -0.203 F 
ATOM      4  C   UNL     1      -9.091  16.699  66.760  0.00  0.00    +0.118 A 
ATOM      5  C   UNL     1      -7.764  16.302  66.808  0.00  0.00    +0.020 A 
ATOM      6  C   UNL     1      -7.517  14.986  67.158  0.00  0.00    +0.002 A 
ATOM      7  C   UNL     1      -8.520  14.148  67.626  0.00  0.00    +0.004 A 
ENDROOT
BRANCH   1  11
ATOM      8  C   UNL     1     -12.008  13.772  70.562  0.00  0.00    +0.087 A 
ATOM      9  S   UNL     1     -12.252  12.334  69.651  0.00  0.00    -0.069 S 
ATOM     10  C   UNL     1     -11.106  12.640  68.404  0.00  0.00    +0.066 A 
ATOM     11  C   UNL     1     -10.752  13.948  68.727  0.00  0.00    +0.091 A 
ATOM     12  N   UNL     1     -10.849  14.172  70.039  0.00  0.00    -0.243 NA
BRANCH  10  13
ATOM     13  C   UNL     1     -11.056  12.000  67.081  0.00  0.00    +0.093 A 
ATOM     14  N   UNL     1     -12.050  12.210  66.182  0.00  0.00    -0.211 NA
ATOM     15  C   UNL     1     -11.787  12.044  64.879  0.00  0.00    +0.257 A 
ATOM     16  N   UNL     1     -12.774  12.470  63.960  0.00  0.00    -0.086 NA
ATOM     17  N   UNL     1     -10.758  11.241  64.563  0.00  0.00    -0.210 NA
ATOM     18  C   UNL     1     -10.175  10.482  65.522  0.00  0.00    +0.103 A 
ATOM     19  C   UNL     1     -10.324  10.841  66.857  0.00  0.00    +0.040 A 
ENDBRANCH  10  13
BRANCH   8  21
ATOM     20  C   UNL     1     -13.815  15.282  71.078  0.00  0.00    +0.006 C 
ATOM     21  C   UNL     1     -12.802  14.330  71.701  0.00  0.00    +0.041 C 
ATOM     22  C   UNL     1     -13.537  13.244  72.435  0.00  0.00    +0.006 C 
ATOM     23  C   UNL     1     -11.868  15.116  72.577  0.00  0.00    +0.006 C 
ENDBRANCH   8  21
ENDBRANCH   1  11
BRANCH   4  24
ATOM     24  N   UNL     1      -9.508  17.777  65.927  0.00  0.00    -0.094 NA
BRANCH  24  25
ATOM     25  S   UNL     1      -9.616  19.349  66.609  0.00  0.00    +0.097 S 
ATOM     26  O   UNL     1     -10.567  19.316  67.766  0.00  0.00    -0.148 OA
ATOM     27  O   UNL     1     -10.189  20.293  65.584  0.00  0.00    -0.148 OA
BRANCH  25  28
ATOM     28  C   UNL     1      -8.074  19.933  67.146  0.00  0.00    +0.182 A 
ATOM     29  C   UNL     1      -7.593  19.581  68.400  0.00  0.00    +0.161 A 
ATOM     30  F   UNL     1      -8.319  18.764  69.214  0.00  0.00    -0.203 F 
ATOM     31  C   UNL     1      -6.495  20.274  68.883  0.00  0.00    +0.031 A 
ATOM     32  C   UNL     1      -5.788  21.085  68.012  0.00  0.00    +0.005 A 
ATOM     33  C   UNL     1      -5.969  20.888  66.659  0.00  0.00    +0.031 A 
ATOM     34  C   UNL     1      -7.125  20.301  66.213  0.00  0.00    +0.161 A 
ATOM     35  F   UNL     1      -7.292  20.153  64.889  0.00  0.00    -0.203 F 
ENDBRANCH  25  28
ENDBRANCH  24  25
ENDBRANCH   4  24
TORSDOF 6
ENDMDL
MODEL 3
REMARK VINA RESULT:      -8.1      1.901      2.313
REMARK  Name = 
REMARK  6 active torsions:
REMARK  status: ('A' for Active; 'I' for Inactive)
REMARK    1  A    between atoms: C_2  and  C_5
REMARK    2  A    between atoms: C_7  and  C_8
REMARK    3  A    between atoms: C_12  and  N_13
REMARK    4  A    between atoms: N_13  and  S_14
REMARK    5  A    between atoms: S_14  and  C_17
REMARK    6  A    between atoms: C_27  and  C_28
REMARK                            x       y       z     vdW  Elec       q    Type
REMARK                         _______ _______ _______ _____ _____    ______ ____
ROOT
ATOM      1  C   UNL     1     -10.931  13.174  68.089  0.00  0.00    +0.047 A 
ATOM      2  C   UNL     1      -9.606  13.469  67.790  0.00  0.00    +0.158 A 
ATOM      3  F   UNL     1      -8.697  13.096  68.733  0.00  0.00    -0.203 F 
ATOM      4  C   UNL     1      -9.250  14.408  66.842  0.00  0.00    +0.118 A 
ATOM      5  C   UNL     1     -10.178  14.695  65.853  0.00  0.00    +0.020 A 
ATOM      6  C   UNL     1     -11.507  14.445  66.151  0.00  0.00    +0.002 A 
ATOM      7  C   UNL     1     -11.888  13.764  67.300  0.00  0.00    +0.004 A 
ENDROOT
BRANCH   1  11
ATOM      8  C   UNL     1     -11.210  10.048  69.831  0.00  0.00    +0.087 A 
ATOM      9  S   UNL     1     -12.127  10.951  70.971  0.00  0.00    -0.069 S 
ATOM     10  C   UNL     1     -12.135  12.456  70.136  0.00  0.00    +0.066 A 
ATOM     11  C   UNL     1     -11.253  12.155  69.101  0.00  0.00    +0.091 A 
ATOM     12  N   UNL     1     -11.301  10.861  68.778  0.00  0.00    -0.243 NA
BRANCH  10  13
ATOM     13  C   UNL     1     -12.419  13.778  70.714  0.00  0.00    +0.093 A 
ATOM     14  N   UNL     1     -13.662  14.314  70.615  0.00  0.00    -0.211 NA
ATOM     15  C   UNL     1     -14.041  15.235  71.512  0.00  0.00    +0.257 A 
ATOM     16  N   UNL     1     -15.402  15.617  71.511  0.00  0.00    -0.086 NA
ATOM     17  N   UNL     1     -13.065  15.918  72.131  0.00  0.00    -0.210 NA
ATOM     18  C   UNL     1     -11.786  15.815  71.695  0.00  0.00    +0.103 A 
ATOM     19  C   UNL     1     -11.415  14.712  70.934  0.00  0.00    +0.040 A 
ENDBRANCH  10  13
BRANCH   8  21
ATOM     20  C   UNL     1     -10.435   8.173  68.529  0.00  0.00    +0.006 C 
ATOM     21  C   UNL     1     -10.605   8.685  69.953  0.00  0.00    +0.041 C 
ATOM     22  C   UNL     1      -9.258   8.745  70.616  0.00  0.00    +0.006 C 
ATOM     23  C   UNL     1     -11.586   7.804  70.675  0.00  0.00    +0.006 C 
ENDBRANCH   8  21
ENDBRANCH   1  11
BRANCH   4  24
ATOM     24  N   UNL     1      -8.000  15.090  66.899  0.00  0.00    -0.094 NA
BRANCH  24  25
ATOM     25  S   UNL     1      -7.833  16.411  67.984  0.00  0.00    +0.097 S 
ATOM     26  O   UNL     1      -6.382  16.765  68.102  0.00  0.00    -0.148 OA
ATOM     27  O   UNL     1      -8.306  15.991  69.350  0.00  0.00    -0.148 OA
BRANCH  25  28
ATOM     28  C   UNL     1      -8.725  17.802  67.457  0.00  0.00    +0.182 A 
ATOM     29  C   UNL     1      -8.289  18.538  66.363  0.00  0.00    +0.161 A 
ATOM     30  F   UNL     1      -7.166  18.168  65.686  0.00  0.00    -0.203 F 
ATOM     31  C   UNL     1      -8.876  19.773  66.146  0.00  0.00    +0.031 A 
ATOM     32  C   UNL     1     -10.020  20.096  66.856  0.00  0.00    +0.005 A 
ATOM     33  C   UNL     1     -10.719  19.069  67.453  0.00  0.00    +0.031 A 
ATOM     34  C   UNL     1     -10.069  17.900  67.758  0.00  0.00    +0.161 A 
ATOM     35  F   UNL     1     -10.763  16.928  68.371  0.00  0.00    -0.203 F 
ENDBRANCH  25  28
ENDBRANCH  24  25
ENDBRANCH   4  24
TORSDOF 6
ENDMDL
MODEL 4
REMARK VINA RESULT:      -8.1      2.400      4.707
REMARK  Name = 
REMARK  6 active torsions:
REMARK  status: ('A' for Active; 'I' for Inactive)
REMARK    1  A    between atoms: C_2  and  C_5
REMARK    2  A    between atoms: C_7  and  C_8
REMARK    3  A    between atoms: C_12  and  N_13
REMARK    4  A    between atoms: N_13  and  S_14
REMARK    5  A    between atoms: S_14  and  C_17
REMARK    6  A    between atoms: C_27  and  C_28
REMARK                            x       y       z     vdW  Elec       q    Type
REMARK                         _______ _______ _______ _____ _____    ______ ____
ROOT
ATOM      1  C   UNL     1     -10.364  14.925  67.806  0.00  0.00    +0.047 A 
ATOM      2  C   UNL     1      -8.975  14.889  67.827  0.00  0.00    +0.158 A 
ATOM      3  F   UNL     1      -8.419  14.414  68.977  0.00  0.00    -0.203 F 
ATOM      4  C   UNL     1      -8.199  15.633  66.960  0.00  0.00    +0.118 A 
ATOM      5  C   UNL     1      -8.783  16.024  65.764  0.00  0.00    +0.020 A 
ATOM      6  C   UNL     1     -10.164  16.104  65.740  0.00  0.00    +0.002 A 
ATOM      7  C   UNL     1     -10.947  15.635  66.786  0.00  0.00    +0.004 A 
ENDROOT
BRANCH   1  11
ATOM      8  C   UNL     1     -12.219  13.844  70.684  0.00  0.00    +0.087 A 
ATOM      9  S   UNL     1     -12.226  12.313  69.901  0.00  0.00    -0.069 S 
ATOM     10  C   UNL     1     -11.245  12.727  68.550  0.00  0.00    +0.066 A 
ATOM     11  C   UNL     1     -11.140  14.102  68.748  0.00  0.00    +0.091 A 
ATOM     12  N   UNL     1     -11.198  14.416  70.044  0.00  0.00    -0.243 NA
BRANCH  10  13
ATOM     13  C   UNL     1     -11.150  11.997  67.277  0.00  0.00    +0.093 A 
ATOM     14  N   UNL     1     -12.076  12.194  66.305  0.00  0.00    -0.211 NA
ATOM     15  C   UNL     1     -11.744  11.927  65.034  0.00  0.00    +0.257 A 
ATOM     16  N   UNL     1     -12.651  12.338  64.029  0.00  0.00    -0.086 NA
ATOM     17  N   UNL     1     -10.742  11.055  64.837  0.00  0.00    -0.210 NA
ATOM     18  C   UNL     1     -10.258  10.335  65.878  0.00  0.00    +0.103 A 
ATOM     19  C   UNL     1     -10.467  10.791  67.174  0.00  0.00    +0.040 A 
ENDBRANCH  10  13
BRANCH   8  21
ATOM     20  C   UNL     1     -13.653  13.093  72.469  0.00  0.00    +0.006 C 
ATOM     21  C   UNL     1     -13.036  14.333  71.837  0.00  0.00    +0.041 C 
ATOM     22  C   UNL     1     -12.177  15.027  72.857  0.00  0.00    +0.006 C 
ATOM     23  C   UNL     1     -14.135  15.202  71.293  0.00  0.00    +0.006 C 
ENDBRANCH   8  21
ENDBRANCH   1  11
BRANCH   4  24
ATOM     24  N   UNL     1      -6.870  16.023  67.293  0.00  0.00    -0.094 NA
BRANCH  24  25
ATOM     25  S   UNL     1      -6.629  17.527  68.085  0.00  0.00    +0.097 S 
ATOM     26  O   UNL     1      -5.323  18.110  67.641  0.00  0.00    -0.148 OA
ATOM     27  O   UNL     1      -6.535  17.294  69.570  0.00  0.00    -0.148 OA
BRANCH  25  28
ATOM     28  C   UNL     1      -7.906  18.652  67.749  0.00  0.00    +0.182 A 
ATOM     29  C   UNL     1      -7.991  19.261  66.504  0.00  0.00    +0.161 A 
ATOM     30  F   UNL     1      -7.082  18.970  65.531  0.00  0.00    -0.203 F 
ATOM     31  C   UNL     1      -8.857  20.332  66.372  0.00  0.00    +0.031 A 
ATOM     32  C   UNL     1      -9.766  20.579  67.387  0.00  0.00    +0.005 A 
ATOM     33  C   UNL     1     -10.018  19.564  68.285  0.00  0.00    +0.031 A 
ATOM     34  C   UNL     1      -9.081  18.581  68.471  0.00  0.00    +0.161 A 
ATOM     35  F   UNL     1      -9.336  17.622  69.376  0.00  0.00    -0.203 F 
ENDBRANCH  25  28
ENDBRANCH  24  25
ENDBRANCH   4  24
TORSDOF 6
ENDMDL
MODEL 5
REMARK VINA RESULT:      -8.0      3.844      9.163
REMARK  Name = 
REMARK  6 active torsions:
REMARK  status: ('A' for Active; 'I' for Inactive)
REMARK    1  A    between atoms: C_2  and  C_5
REMARK    2  A    between atoms: C_7  and  C_8
REMARK    3  A    between atoms: C_12  and  N_13
REMARK    4  A    between atoms: N_13  and  S_14
REMARK    5  A    between atoms: S_14  and  C_17
REMARK    6  A    between atoms: C_27  and  C_28
REMARK                            x       y       z     vdW  Elec       q    Type
REMARK                         _______ _______ _______ _____ _____    ______ ____
ROOT
ATOM      1  C   UNL     1      -7.987  19.338  66.930  0.00  0.00    +0.047 A 
ATOM      2  C   UNL     1      -8.262  18.000  66.677  0.00  0.00    +0.158 A 
ATOM      3  F   UNL     1      -7.176  17.219  66.421  0.00  0.00    -0.203 F 
ATOM      4  C   UNL     1      -9.516  17.555  66.307  0.00  0.00    +0.118 A 
ATOM      5  C   UNL     1     -10.599  18.345  66.661  0.00  0.00    +0.020 A 
ATOM      6  C   UNL     1     -10.348  19.689  66.877  0.00  0.00    +0.002 A 
ATOM      7  C   UNL     1      -9.057  20.199  66.929  0.00  0.00    +0.004 A 
ENDROOT
BRANCH   1  11
ATOM      8  C   UNL     1      -5.102  20.155  68.905  0.00  0.00    +0.087 A 
ATOM      9  S   UNL     1      -4.403  20.606  67.400  0.00  0.00    -0.069 S 
ATOM     10  C   UNL     1      -5.782  20.347  66.404  0.00  0.00    +0.066 A 
ATOM     11  C   UNL     1      -6.634  19.754  67.333  0.00  0.00    +0.091 A 
ATOM     12  N   UNL     1      -6.393  20.193  68.570  0.00  0.00    -0.243 NA
BRANCH  10  13
ATOM     13  C   UNL     1      -5.791  20.176  64.944  0.00  0.00    +0.093 A 
ATOM     14  N   UNL     1      -6.585  20.956  64.169  0.00  0.00    -0.211 NA
ATOM     15  C   UNL     1      -6.254  21.139  62.883  0.00  0.00    +0.257 A 
ATOM     16  N   UNL     1      -6.976  22.117  62.161  0.00  0.00    -0.086 NA
ATOM     17  N   UNL     1      -5.479  20.200  62.316  0.00  0.00    -0.210 NA
ATOM     18  C   UNL     1      -5.242  19.035  62.966  0.00  0.00    +0.103 A 
ATOM     19  C   UNL     1      -5.411  18.981  64.345  0.00  0.00    +0.040 A 
ENDBRANCH  10  13
BRANCH   8  21
ATOM     20  C   UNL     1      -4.232  21.301  70.838  0.00  0.00    +0.006 C 
ATOM     21  C   UNL     1      -4.452  19.921  70.232  0.00  0.00    +0.041 C 
ATOM     22  C   UNL     1      -5.343  19.122  71.141  0.00  0.00    +0.006 C 
ATOM     23  C   UNL     1      -3.116  19.276  69.988  0.00  0.00    +0.006 C 
ENDBRANCH   8  21
ENDBRANCH   1  11
BRANCH   4  24
ATOM     24  N   UNL     1      -9.692  16.361  65.551  0.00  0.00    -0.094 NA
BRANCH  24  25
ATOM     25  S   UNL     1      -9.865  14.874  66.392  0.00  0.00    +0.097 S 
ATOM     26  O   UNL     1     -10.782  15.075  67.559  0.00  0.00    -0.148 OA
ATOM     27  O   UNL     1      -8.525  14.458  66.940  0.00  0.00    -0.148 OA
BRANCH  25  28
ATOM     28  C   UNL     1     -10.495  13.619  65.372  0.00  0.00    +0.182 A 
ATOM     29  C   UNL     1     -10.298  12.285  65.705  0.00  0.00    +0.161 A 
ATOM     30  F   UNL     1      -9.621  11.949  66.839  0.00  0.00    -0.203 F 
ATOM     31  C   UNL     1     -10.586  11.335  64.739  0.00  0.00    +0.031 A 
ATOM     32  C   UNL     1     -11.281  11.729  63.609  0.00  0.00    +0.005 A 
ATOM     33  C   UNL     1     -11.964  12.925  63.658  0.00  0.00    +0.031 A 
ATOM     34  C   UNL     1     -11.573  13.888  64.553  0.00  0.00    +0.161 A 
ATOM     35  F   UNL     1     -12.232  15.058  64.557  0.00  0.00    -0.203 F 
ENDBRANCH  25  28
ENDBRANCH  24  25
ENDBRANCH   4  24
TORSDOF 6
ENDMDL
MODEL 6
REMARK VINA RESULT:      -7.9      3.357      6.991
REMARK  Name = 
REMARK  6 active torsions:
REMARK  status: ('A' for Active; 'I' for Inactive)
REMARK    1  A    between atoms: C_2  and  C_5
REMARK    2  A    between atoms: C_7  and  C_8
REMARK    3  A    between atoms: C_12  and  N_13
REMARK    4  A    between atoms: N_13  and  S_14
REMARK    5  A    between atoms: S_14  and  C_17
REMARK    6  A    between atoms: C_27  and  C_28
REMARK                            x       y       z     vdW  Elec       q    Type
REMARK                         _______ _______ _______ _____ _____    ______ ____
ROOT
ATOM      1  C   UNL     1     -11.325  13.928  67.696  0.00  0.00    +0.047 A 
ATOM      2  C   UNL     1     -10.467  12.838  67.612  0.00  0.00    +0.158 A 
ATOM      3  F   UNL     1      -9.562  12.728  68.624  0.00  0.00    -0.203 F 
ATOM      4  C   UNL     1     -10.249  12.154  66.433  0.00  0.00    +0.118 A 
ATOM      5  C   UNL     1     -11.237  12.230  65.463  0.00  0.00    +0.020 A 
ATOM      6  C   UNL     1     -12.075  13.331  65.510  0.00  0.00    +0.002 A 
ATOM      7  C   UNL     1     -12.063  14.221  66.576  0.00  0.00    +0.004 A 
ENDROOT
BRANCH   1  11
ATOM      8  C   UNL     1     -12.632  14.872  70.904  0.00  0.00    +0.087 A 
ATOM      9  S   UNL     1     -11.462  16.130  70.829  0.00  0.00    -0.069 S 
ATOM     10  C   UNL     1     -10.863  15.809  69.248  0.00  0.00    +0.066 A 
ATOM     11  C   UNL     1     -11.528  14.614  68.983  0.00  0.00    +0.091 A 
ATOM     12  N   UNL     1     -12.705  14.559  69.610  0.00  0.00    -0.243 NA
BRANCH  10  13
ATOM     13  C   UNL     1      -9.584  16.266  68.684  0.00  0.00    +0.093 A 
ATOM     14  N   UNL     1      -9.552  16.894  67.483  0.00  0.00    -0.211 NA
ATOM     15  C   UNL     1      -8.523  17.707  67.206  0.00  0.00    +0.257 A 
ATOM     16  N   UNL     1      -8.622  18.504  66.042  0.00  0.00    -0.086 NA
ATOM     17  N   UNL     1      -7.381  17.493  67.880  0.00  0.00    -0.210 NA
ATOM     18  C   UNL     1      -7.239  16.374  68.631  0.00  0.00    +0.103 A 
ATOM     19  C   UNL     1      -8.374  15.694  69.058  0.00  0.00    +0.040 A 
ENDBRANCH  10  13
BRANCH   8  21
ATOM     20  C   UNL     1     -14.861  14.830  71.819  0.00  0.00    +0.006 C 
ATOM     21  C   UNL     1     -13.430  14.374  72.068  0.00  0.00    +0.041 C 
ATOM     22  C   UNL     1     -13.400  12.874  72.146  0.00  0.00    +0.006 C 
ATOM     23  C   UNL     1     -12.912  15.047  73.308  0.00  0.00    +0.006 C 
ENDBRANCH   8  21
ENDBRANCH   1  11
BRANCH   4  24
ATOM     24  N   UNL     1      -9.041  11.435  66.198  0.00  0.00    -0.094 NA
BRANCH  24  25
ATOM     25  S   UNL     1      -8.973   9.776  66.633  0.00  0.00    +0.097 S 
ATOM     26  O   UNL     1      -7.700   9.185  66.110  0.00  0.00    -0.148 OA
ATOM     27  O   UNL     1     -10.112   9.045  65.972  0.00  0.00    -0.148 OA
BRANCH  25  28
ATOM     28  C   UNL     1      -9.051   9.549  68.351  0.00  0.00    +0.182 A 
ATOM     29  C   UNL     1      -7.959   9.870  69.147  0.00  0.00    +0.161 A 
ATOM     30  F   UNL     1      -6.824  10.379  68.590  0.00  0.00    -0.203 F 
ATOM     31  C   UNL     1      -7.973   9.432  70.461  0.00  0.00    +0.031 A 
ATOM     32  C   UNL     1      -9.154   8.931  70.980  0.00  0.00    +0.005 A 
ATOM     33  C   UNL     1     -10.325   9.223  70.313  0.00  0.00    +0.031 A 
ATOM     34  C   UNL     1     -10.280   9.542  68.980  0.00  0.00    +0.161 A 
ATOM     35  F   UNL     1     -11.437   9.789  68.346  0.00  0.00    -0.203 F 
ENDBRANCH  25  28
ENDBRANCH  24  25
ENDBRANCH   4  24
TORSDOF 6
ENDMDL
MODEL 7
REMARK VINA RESULT:      -7.9      2.640      4.122
REMARK  Name = 
REMARK  6 active torsions:
REMARK  status: ('A' for Active; 'I' for Inactive)
REMARK    1  A    between atoms: C_2  and  C_5
REMARK    2  A    between atoms: C_7  and  C_8
REMARK    3  A    between atoms: C_12  and  N_13
REMARK    4  A    between atoms: N_13  and  S_14
REMARK    5  A    between atoms: S_14  and  C_17
REMARK    6  A    between atoms: C_27  and  C_28
REMARK                            x       y       z     vdW  Elec       q    Type
REMARK                         _______ _______ _______ _____ _____    ______ ____
ROOT
ATOM      1  C   UNL     1     -10.786  12.514  68.779  0.00  0.00    +0.047 A 
ATOM      2  C   UNL     1      -9.768  13.411  68.480  0.00  0.00    +0.158 A 
ATOM      3  F   UNL     1      -8.544  12.856  68.264  0.00  0.00    -0.203 F 
ATOM      4  C   UNL     1      -9.858  14.759  68.768  0.00  0.00    +0.118 A 
ATOM      5  C   UNL     1     -11.129  15.297  68.898  0.00  0.00    +0.020 A 
ATOM      6  C   UNL     1     -12.147  14.422  69.236  0.00  0.00    +0.002 A 
ATOM      7  C   UNL     1     -11.958  13.047  69.258  0.00  0.00    +0.004 A 
ENDROOT
BRANCH   1  11
ATOM      8  C   UNL     1     -10.338   8.961  69.035  0.00  0.00    +0.087 A 
ATOM      9  S   UNL     1     -10.353   9.000  67.316  0.00  0.00    -0.069 S 
ATOM     10  C   UNL     1     -10.451  10.706  67.113  0.00  0.00    +0.066 A 
ATOM     11  C   UNL     1     -10.642  11.089  68.439  0.00  0.00    +0.091 A 
ATOM     12  N   UNL     1     -10.053  10.240  69.284  0.00  0.00    -0.243 NA
BRANCH  10  13
ATOM     13  C   UNL     1     -10.881  11.423  65.903  0.00  0.00    +0.093 A 
ATOM     14  N   UNL     1     -12.015  12.168  65.917  0.00  0.00    -0.211 NA
ATOM     15  C   UNL     1     -12.145  13.163  65.029  0.00  0.00    +0.257 A 
ATOM     16  N   UNL     1     -13.235  14.047  65.202  0.00  0.00    -0.086 NA
ATOM     17  N   UNL     1     -11.417  13.072  63.904  0.00  0.00    -0.210 NA
ATOM     18  C   UNL     1     -10.764  11.921  63.612  0.00  0.00    +0.103 A 
ATOM     19  C   UNL     1     -10.480  11.023  64.634  0.00  0.00    +0.040 A 
ENDBRANCH  10  13
BRANCH   8  21
ATOM     20  C   UNL     1     -10.947   6.631  69.114  0.00  0.00    +0.006 C 
ATOM     21  C   UNL     1     -10.473   7.799  69.968  0.00  0.00    +0.041 C 
ATOM     22  C   UNL     1      -9.152   7.447  70.591  0.00  0.00    +0.006 C 
ATOM     23  C   UNL     1     -11.538   8.132  70.975  0.00  0.00    +0.006 C 
ENDBRANCH   8  21
ENDBRANCH   1  11
BRANCH   4  24
ATOM     24  N   UNL     1      -8.696  15.558  68.971  0.00  0.00    -0.094 NA
BRANCH  24  25
ATOM     25  S   UNL     1      -8.024  16.390  67.628  0.00  0.00    +0.097 S 
ATOM     26  O   UNL     1      -7.973  15.461  66.453  0.00  0.00    -0.148 OA
ATOM     27  O   UNL     1      -6.607  16.785  67.949  0.00  0.00    -0.148 OA
BRANCH  25  28
ATOM     28  C   UNL     1      -8.944  17.800  67.209  0.00  0.00    +0.182 A 
ATOM     29  C   UNL     1     -10.069  17.685  66.403  0.00  0.00    +0.161 A 
ATOM     30  F   UNL     1     -10.469  16.465  65.945  0.00  0.00    -0.203 F 
ATOM     31  C   UNL     1     -10.610  18.850  65.887  0.00  0.00    +0.031 A 
ATOM     32  C   UNL     1     -10.173  20.063  66.392  0.00  0.00    +0.005 A 
ATOM     33  C   UNL     1      -9.517  20.057  67.604  0.00  0.00    +0.031 A 
ATOM     34  C   UNL     1      -8.894  18.911  68.027  0.00  0.00    +0.161 A 
ATOM     35  F   UNL     1      -8.233  18.940  69.195  0.00  0.00    -0.203 F 
ENDBRANCH  25  28
ENDBRANCH  24  25
ENDBRANCH   4  24
TORSDOF 6
ENDMDL
MODEL 8
REMARK VINA RESULT:      -7.9      2.535      3.976
REMARK  Name = 
REMARK  6 active torsions:
REMARK  status: ('A' for Active; 'I' for Inactive)
REMARK    1  A    between atoms: C_2  and  C_5
REMARK    2  A    between atoms: C_7  and  C_8
REMARK    3  A    between atoms: C_12  and  N_13
REMARK    4  A    between atoms: N_13  and  S_14
REMARK    5  A    between atoms: S_14  and  C_17
REMARK    6  A    between atoms: C_27  and  C_28
REMARK                            x       y       z     vdW  Elec       q    Type
REMARK                         _______ _______ _______ _____ _____    ______ ____
ROOT
ATOM      1  C   UNL     1      -8.963  12.759  68.095  0.00  0.00    +0.047 A 
ATOM      2  C   UNL     1      -9.445  13.876  68.767  0.00  0.00    +0.158 A 
ATOM      3  F   UNL     1     -10.745  13.802  69.168  0.00  0.00    -0.203 F 
ATOM      4  C   UNL     1      -8.832  15.111  68.692  0.00  0.00    +0.118 A 
ATOM      5  C   UNL     1      -7.485  15.131  68.360  0.00  0.00    +0.020 A 
ATOM      6  C   UNL     1      -6.999  14.044  67.655  0.00  0.00    +0.002 A 
ATOM      7  C   UNL     1      -7.759  12.899  67.451  0.00  0.00    +0.004 A 
ENDROOT
BRANCH   1  11
ATOM      8  C   UNL     1     -10.152   9.625  69.379  0.00  0.00    +0.087 A 
ATOM      9  S   UNL     1     -10.861   9.443  67.823  0.00  0.00    -0.069 S 
ATOM     10  C   UNL     1     -10.232  10.873  67.102  0.00  0.00    +0.066 A 
ATOM     11  C   UNL     1      -9.652  11.465  68.221  0.00  0.00    +0.091 A 
ATOM     12  N   UNL     1      -9.233  10.549  69.098  0.00  0.00    -0.243 NA
BRANCH  10  13
ATOM     13  C   UNL     1     -10.740  11.544  65.896  0.00  0.00    +0.093 A 
ATOM     14  N   UNL     1     -11.898  12.248  65.943  0.00  0.00    -0.211 NA
ATOM     15  C   UNL     1     -12.101  13.216  65.038  0.00  0.00    +0.257 A 
ATOM     16  N   UNL     1     -13.214  14.066  65.239  0.00  0.00    -0.086 NA
ATOM     17  N   UNL     1     -11.421  13.123  63.884  0.00  0.00    -0.210 NA
ATOM     18  C   UNL     1     -10.740  11.989  63.591  0.00  0.00    +0.103 A 
ATOM     19  C   UNL     1     -10.380  11.127  64.620  0.00  0.00    +0.040 A 
ENDBRANCH  10  13
BRANCH   8  21
ATOM     20  C   UNL     1     -10.865   7.479  70.213  0.00  0.00    +0.006 C 
ATOM     21  C   UNL     1     -10.408   8.866  70.643  0.00  0.00    +0.041 C 
ATOM     22  C   UNL     1      -9.155   8.737  71.463  0.00  0.00    +0.006 C 
ATOM     23  C   UNL     1     -11.532   9.545  71.374  0.00  0.00    +0.006 C 
ENDBRANCH   8  21
ENDBRANCH   1  11
BRANCH   4  24
ATOM     24  N   UNL     1      -9.557  16.320  68.899  0.00  0.00    -0.094 NA
BRANCH  24  25
ATOM     25  S   UNL     1      -9.962  17.281  67.536  0.00  0.00    +0.097 S 
ATOM     26  O   UNL     1     -11.199  18.068  67.842  0.00  0.00    -0.148 OA
ATOM     27  O   UNL     1     -10.279  16.380  66.372  0.00  0.00    -0.148 OA
BRANCH  25  28
ATOM     28  C   UNL     1      -8.680  18.368  67.102  0.00  0.00    +0.182 A 
ATOM     29  C   UNL     1      -8.295  19.377  67.975  0.00  0.00    +0.161 A 
ATOM     30  F   UNL     1      -8.909  19.514  69.185  0.00  0.00    -0.203 F 
ATOM     31  C   UNL     1      -7.462  20.366  67.483  0.00  0.00    +0.031 A 
ATOM     32  C   UNL     1      -6.859  20.173  66.253  0.00  0.00    +0.005 A 
ATOM     33  C   UNL     1      -6.814  18.889  65.753  0.00  0.00    +0.031 A 
ATOM     34  C   UNL     1      -7.733  17.967  66.182  0.00  0.00    +0.161 A 
ATOM     35  F   UNL     1      -7.689  16.733  65.654  0.00  0.00    -0.203 F 
ENDBRANCH  25  28
ENDBRANCH  24  25
ENDBRANCH   4  24
TORSDOF 6
ENDMDL
MODEL 9
REMARK VINA RESULT:      -7.8      3.857      7.967
REMARK  Name = 
REMARK  6 active torsions:
REMARK  status: ('A' for Active; 'I' for Inactive)
REMARK    1  A    between atoms: C_2  and  C_5
REMARK    2  A    between atoms: C_7  and  C_8
REMARK    3  A    between atoms: C_12  and  N_13
REMARK    4  A    between atoms: N_13  and  S_14
REMARK    5  A    between atoms: S_14  and  C_17
REMARK    6  A    between atoms: C_27  and  C_28
REMARK                            x       y       z     vdW  Elec       q    Type
REMARK                         _______ _______ _______ _____ _____    ______ ____
ROOT
ATOM      1  C   UNL     1     -11.040  12.949  68.004  0.00  0.00    +0.047 A 
ATOM      2  C   UNL     1     -10.506  11.699  68.294  0.00  0.00    +0.158 A 
ATOM      3  F   UNL     1      -9.880  11.596  69.499  0.00  0.00    -0.203 F 
ATOM      4  C   UNL     1     -10.253  10.754  67.318  0.00  0.00    +0.118 A 
ATOM      5  C   UNL     1     -10.976  10.852  66.138  0.00  0.00    +0.020 A 
ATOM      6  C   UNL     1     -11.479  12.101  65.816  0.00  0.00    +0.002 A 
ATOM      7  C   UNL     1     -11.438  13.164  66.708  0.00  0.00    +0.004 A 
ENDROOT
BRANCH   1  11
ATOM      8  C   UNL     1     -12.512  14.621  70.819  0.00  0.00    +0.087 A 
ATOM      9  S   UNL     1     -11.297  15.806  70.543  0.00  0.00    -0.069 S 
ATOM     10  C   UNL     1     -10.612  15.124  69.119  0.00  0.00    +0.066 A 
ATOM     11  C   UNL     1     -11.299  13.912  69.086  0.00  0.00    +0.091 A 
ATOM     12  N   UNL     1     -12.514  14.024  69.627  0.00  0.00    -0.243 NA
BRANCH  10  13
ATOM     13  C   UNL     1      -9.285  15.416  68.556  0.00  0.00    +0.093 A 
ATOM     14  N   UNL     1      -9.173  15.965  67.321  0.00  0.00    -0.211 NA
ATOM     15  C   UNL     1      -8.063  16.653  67.019  0.00  0.00    +0.257 A 
ATOM     16  N   UNL     1      -8.065  17.384  65.808  0.00  0.00    -0.086 NA
ATOM     17  N   UNL     1      -6.959  16.367  67.727  0.00  0.00    -0.210 NA
ATOM     18  C   UNL     1      -6.941  15.287  68.545  0.00  0.00    +0.103 A 
ATOM     19  C   UNL     1      -8.144  14.750  68.987  0.00  0.00    +0.040 A 
ENDBRANCH  10  13
BRANCH   8  21
ATOM     20  C   UNL     1     -13.520  12.909  72.182  0.00  0.00    +0.006 C 
ATOM     21  C   UNL     1     -13.397  14.416  72.007  0.00  0.00    +0.041 C 
ATOM     22  C   UNL     1     -12.787  15.006  73.248  0.00  0.00    +0.006 C 
ATOM     23  C   UNL     1     -14.751  14.982  71.682  0.00  0.00    +0.006 C 
ENDBRANCH   8  21
ENDBRANCH   1  11
BRANCH   4  24
ATOM     24  N   UNL     1      -9.261   9.747  67.492  0.00  0.00    -0.094 NA
BRANCH  24  25
ATOM     25  S   UNL     1      -9.762   8.167  67.937  0.00  0.00    +0.097 S 
ATOM     26  O   UNL     1      -8.604   7.228  67.795  0.00  0.00    -0.148 OA
ATOM     27  O   UNL     1     -10.836   7.703  66.988  0.00  0.00    -0.148 OA
BRANCH  25  28
ATOM     28  C   UNL     1     -10.356   8.107  69.567  0.00  0.00    +0.182 A 
ATOM     29  C   UNL     1     -11.223   7.095  69.956  0.00  0.00    +0.161 A 
ATOM     30  F   UNL     1     -11.605   6.133  69.069  0.00  0.00    -0.203 F 
ATOM     31  C   UNL     1     -11.868   7.237  71.173  0.00  0.00    +0.031 A 
ATOM     32  C   UNL     1     -11.436   8.225  72.041  0.00  0.00    +0.005 A 
ATOM     33  C   UNL     1     -10.185   8.766  71.828  0.00  0.00    +0.031 A 
ATOM     34  C   UNL     1      -9.629   8.706  70.576  0.00  0.00    +0.161 A 
ATOM     35  F   UNL     1      -8.426   9.270  70.387  0.00  0.00    -0.203 F 
ENDBRANCH  25  28
ENDBRANCH  24  25
ENDBRANCH   4  24
TORSDOF 6
ENDMDL
