MODEL 1
REMARK VINA RESULT:      -7.1      0.000      0.000
REMARK  Name = 
REMARK  6 active torsions:
REMARK  status: ('A' for Active; 'I' for Inactive)
REMARK    1  A    between atoms: C_5  and  C_6
REMARK    2  A    between atoms: C_6  and  S_7
REMARK    3  A    between atoms: S_7  and  C_8
REMARK    4  A    between atoms: C_8  and  C_9
REMARK    5  A    between atoms: C_8  and  C_15
REMARK    6  A    between atoms: C_9  and  N_10
REMARK                            x       y       z     vdW  Elec       q    Type
REMARK                         _______ _______ _______ _____ _____    ______ ____
ROOT
ATOM      1  C   UNL     1     -10.536  15.852  67.072  0.00  0.00    +0.093 C 
ENDROOT
BRANCH   1   2
ATOM      2  C   UNL     1      -9.300  16.715  67.485  0.00  0.00    +0.000 A 
ATOM      3  C   UNL     1      -9.236  18.006  67.011  0.00  0.00    +0.055 A 
ATOM      4 CL   UNL     1     -10.514  18.638  65.984  0.00  0.00    -0.083 Cl
ATOM      5  C   UNL     1      -8.234  18.842  67.489  0.00  0.00    +0.022 A 
ATOM      6  C   UNL     1      -7.418  18.456  68.525  0.00  0.00    +0.058 A 
ATOM      7 CL   UNL     1      -5.989  19.352  69.006  0.00  0.00    -0.082 Cl
ATOM      8  C   UNL     1      -7.472  17.136  68.948  0.00  0.00    +0.011 A 
ATOM      9  C   UNL     1      -8.604  16.403  68.614  0.00  0.00    -0.002 A 
ENDBRANCH   1   2
BRANCH   1  10
ATOM     10  S   UNL     1     -10.329  14.552  68.457  0.00  0.00    -0.130 S 
BRANCH  10  11
ATOM     11  C   UNL     1     -11.976  14.082  69.022  0.00  0.00    +0.084 C 
BRANCH  11  16
ATOM     12 CL   UNL     1     -12.441  15.640  74.588  0.00  0.00    -0.082 Cl
ATOM     13  C   UNL     1     -12.479  15.315  73.042  0.00  0.00    +0.058 A 
ATOM     14  C   UNL     1     -11.931  16.165  72.101  0.00  0.00    +0.011 A 
ATOM     15  C   UNL     1     -11.804  15.836  70.778  0.00  0.00    -0.003 A 
ATOM     16  C   UNL     1     -12.309  14.623  70.351  0.00  0.00    -0.011 A 
ATOM     17  C   UNL     1     -13.076  13.875  71.204  0.00  0.00    -0.003 A 
ATOM     18  C   UNL     1     -13.159  14.214  72.541  0.00  0.00    +0.011 A 
ENDBRANCH  11  16
ENDBRANCH  10  11
ENDBRANCH   1  10
BRANCH   1  19
ATOM     19  C   UNL     1      -9.763  15.003  65.965  0.00  0.00    +0.123 C 
BRANCH  19  20
ATOM     20  N   UNL     1     -10.735  14.384  65.106  0.00  0.00    -0.307 N 
ATOM     21  C   UNL     1     -11.807  15.001  64.582  0.00  0.00    +0.179 A 
ATOM     22  N   UNL     1     -12.581  14.104  63.935  0.00  0.00    -0.222 NA
ATOM     23  C   UNL     1     -11.829  12.984  63.880  0.00  0.00    +0.119 A 
ATOM     24  C   UNL     1     -10.570  13.240  64.411  0.00  0.00    +0.098 A 
ENDBRANCH  19  20
ENDBRANCH   1  19
TORSDOF 6
ENDMDL
MODEL 2
REMARK VINA RESULT:      -6.8      3.658      5.259
REMARK  Name = 
REMARK  6 active torsions:
REMARK  status: ('A' for Active; 'I' for Inactive)
REMARK    1  A    between atoms: C_5  and  C_6
REMARK    2  A    between atoms: C_6  and  S_7
REMARK    3  A    between atoms: S_7  and  C_8
REMARK    4  A    between atoms: C_8  and  C_9
REMARK    5  A    between atoms: C_8  and  C_15
REMARK    6  A    between atoms: C_9  and  N_10
REMARK                            x       y       z     vdW  Elec       q    Type
REMARK                         _______ _______ _______ _____ _____    ______ ____
ROOT
ATOM      1  C   UNL     1     -10.380  12.238  67.590  0.00  0.00    +0.093 C 
ENDROOT
BRANCH   1   2
ATOM      2  C   UNL     1     -10.600  11.147  68.688  0.00  0.00    +0.000 A 
ATOM      3  C   UNL     1      -9.490  10.488  69.165  0.00  0.00    +0.055 A 
ATOM      4 CL   UNL     1      -7.893  10.882  68.548  0.00  0.00    -0.083 Cl
ATOM      5  C   UNL     1      -9.638   9.631  70.248  0.00  0.00    +0.022 A 
ATOM      6  C   UNL     1     -10.824   9.553  70.939  0.00  0.00    +0.058 A 
ATOM      7 CL   UNL     1     -11.152   8.324  72.146  0.00  0.00    -0.082 Cl
ATOM      8  C   UNL     1     -11.937  10.188  70.407  0.00  0.00    +0.011 A 
ATOM      9  C   UNL     1     -11.714  11.191  69.471  0.00  0.00    -0.002 A 
ENDBRANCH   1   2
BRANCH   1  10
ATOM     10  S   UNL     1     -10.348  13.717  68.799  0.00  0.00    -0.130 S 
BRANCH  10  11
ATOM     11  C   UNL     1     -12.041  14.312  68.985  0.00  0.00    +0.084 C 
BRANCH  11  16
ATOM     12 CL   UNL     1     -12.429  15.524  74.642  0.00  0.00    -0.082 Cl
ATOM     13  C   UNL     1     -12.480  15.307  73.078  0.00  0.00    +0.058 A 
ATOM     14  C   UNL     1     -11.866  16.176  72.197  0.00  0.00    +0.011 A 
ATOM     15  C   UNL     1     -11.754  15.928  70.855  0.00  0.00    -0.003 A 
ATOM     16  C   UNL     1     -12.342  14.785  70.347  0.00  0.00    -0.011 A 
ATOM     17  C   UNL     1     -13.167  14.040  71.146  0.00  0.00    -0.003 A 
ATOM     18  C   UNL     1     -13.234  14.294  72.503  0.00  0.00    +0.011 A 
ENDBRANCH  11  16
ENDBRANCH  10  11
ENDBRANCH   1  10
BRANCH   1  19
ATOM     19  C   UNL     1     -11.924  12.392  67.220  0.00  0.00    +0.123 C 
BRANCH  19  20
ATOM     20  N   UNL     1     -12.028  12.659  65.812  0.00  0.00    -0.307 N 
ATOM     21  C   UNL     1     -12.567  13.765  65.272  0.00  0.00    +0.179 A 
ATOM     22  N   UNL     1     -12.628  13.638  63.931  0.00  0.00    -0.222 NA
ATOM     23  C   UNL     1     -11.897  12.535  63.661  0.00  0.00    +0.119 A 
ATOM     24  C   UNL     1     -11.323  12.057  64.832  0.00  0.00    +0.098 A 
ENDBRANCH  19  20
ENDBRANCH   1  19
TORSDOF 6
ENDMDL
MODEL 3
REMARK VINA RESULT:      -6.7      1.730      5.798
REMARK  Name = 
REMARK  6 active torsions:
REMARK  status: ('A' for Active; 'I' for Inactive)
REMARK    1  A    between atoms: C_5  and  C_6
REMARK    2  A    between atoms: C_6  and  S_7
REMARK    3  A    between atoms: S_7  and  C_8
REMARK    4  A    between atoms: C_8  and  C_9
REMARK    5  A    between atoms: C_8  and  C_15
REMARK    6  A    between atoms: C_9  and  N_10
REMARK                            x       y       z     vdW  Elec       q    Type
REMARK                         _______ _______ _______ _____ _____    ______ ____
ROOT
ATOM      1  C   UNL     1     -10.745  13.956  68.104  0.00  0.00    +0.093 C 
ENDROOT
BRANCH   1   2
ATOM      2  C   UNL     1     -11.455  14.421  69.416  0.00  0.00    +0.000 A 
ATOM      3  C   UNL     1     -12.065  13.458  70.187  0.00  0.00    +0.055 A 
ATOM      4 CL   UNL     1     -12.026  11.772  69.695  0.00  0.00    -0.083 Cl
ATOM      5  C   UNL     1     -12.564  13.820  71.433  0.00  0.00    +0.022 A 
ATOM      6  C   UNL     1     -12.324  15.065  71.963  0.00  0.00    +0.058 A 
ATOM      7 CL   UNL     1     -13.125  15.665  73.404  0.00  0.00    -0.082 Cl
ATOM      8  C   UNL     1     -11.752  16.029  71.145  0.00  0.00    +0.011 A 
ATOM      9  C   UNL     1     -11.080  15.588  70.012  0.00  0.00    -0.002 A 
ENDBRANCH   1   2
BRANCH   1  10
ATOM     10  S   UNL     1      -9.296  15.196  68.226  0.00  0.00    -0.130 S 
BRANCH  10  11
ATOM     11  C   UNL     1      -9.523  16.437  66.937  0.00  0.00    +0.084 C 
BRANCH  11  16
ATOM     12 CL   UNL     1      -6.232  21.113  67.901  0.00  0.00    -0.082 Cl
ATOM     13  C   UNL     1      -7.274  19.939  67.722  0.00  0.00    +0.058 A 
ATOM     14  C   UNL     1      -8.109  19.861  66.624  0.00  0.00    +0.011 A 
ATOM     15  C   UNL     1      -8.902  18.776  66.361  0.00  0.00    -0.003 A 
ATOM     16  C   UNL     1      -8.917  17.738  67.272  0.00  0.00    -0.011 A 
ATOM     17  C   UNL     1      -8.299  17.895  68.483  0.00  0.00    -0.003 A 
ATOM     18  C   UNL     1      -7.480  18.984  68.708  0.00  0.00    +0.011 A 
ENDBRANCH  11  16
ENDBRANCH  10  11
ENDBRANCH   1  10
BRANCH   1  19
ATOM     19  C   UNL     1     -11.623  14.863  67.129  0.00  0.00    +0.123 C 
BRANCH  19  20
ATOM     20  N   UNL     1     -11.965  14.084  65.970  0.00  0.00    -0.307 N 
ATOM     21  C   UNL     1     -11.982  14.543  64.707  0.00  0.00    +0.179 A 
ATOM     22  N   UNL     1     -12.473  13.595  63.882  0.00  0.00    -0.222 NA
ATOM     23  C   UNL     1     -12.526  12.479  64.640  0.00  0.00    +0.119 A 
ATOM     24  C   UNL     1     -11.979  12.737  65.891  0.00  0.00    +0.098 A 
ENDBRANCH  19  20
ENDBRANCH   1  19
TORSDOF 6
ENDMDL
MODEL 4
REMARK VINA RESULT:      -6.6      1.347      1.400
REMARK  Name = 
REMARK  6 active torsions:
REMARK  status: ('A' for Active; 'I' for Inactive)
REMARK    1  A    between atoms: C_5  and  C_6
REMARK    2  A    between atoms: C_6  and  S_7
REMARK    3  A    between atoms: S_7  and  C_8
REMARK    4  A    between atoms: C_8  and  C_9
REMARK    5  A    between atoms: C_8  and  C_15
REMARK    6  A    between atoms: C_9  and  N_10
REMARK                            x       y       z     vdW  Elec       q    Type
REMARK                         _______ _______ _______ _____ _____    ______ ____
ROOT
ATOM      1  C   UNL     1     -10.248  16.397  66.449  0.00  0.00    +0.093 C 
ENDROOT
BRANCH   1   2
ATOM      2  C   UNL     1      -9.062  17.393  66.241  0.00  0.00    +0.000 A 
ATOM      3  C   UNL     1      -9.278  18.717  66.551  0.00  0.00    +0.055 A 
ATOM      4 CL   UNL     1     -10.841  19.240  67.161  0.00  0.00    -0.083 Cl
ATOM      5  C   UNL     1      -8.200  19.592  66.526  0.00  0.00    +0.022 A 
ATOM      6  C   UNL     1      -6.915  19.135  66.356  0.00  0.00    +0.058 A 
ATOM      7 CL   UNL     1      -5.549  20.197  66.069  0.00  0.00    -0.082 Cl
ATOM      8  C   UNL     1      -6.731  17.807  65.997  0.00  0.00    +0.011 A 
ATOM      9  C   UNL     1      -7.781  16.929  66.240  0.00  0.00    -0.002 A 
ENDBRANCH   1   2
BRANCH   1  10
ATOM     10  S   UNL     1      -9.610  15.689  68.105  0.00  0.00    -0.130 S 
BRANCH  10  11
ATOM     11  C   UNL     1     -10.762  14.405  68.635  0.00  0.00    +0.084 C 
BRANCH  11  16
ATOM     12 CL   UNL     1     -12.745  15.307  74.009  0.00  0.00    -0.082 Cl
ATOM     13  C   UNL     1     -12.375  15.133  72.483  0.00  0.00    +0.058 A 
ATOM     14  C   UNL     1     -11.804  16.154  71.746  0.00  0.00    +0.011 A 
ATOM     15  C   UNL     1     -11.325  15.982  70.475  0.00  0.00    -0.003 A 
ATOM     16  C   UNL     1     -11.479  14.747  69.875  0.00  0.00    -0.011 A 
ATOM     17  C   UNL     1     -12.259  13.798  70.479  0.00  0.00    -0.003 A 
ATOM     18  C   UNL     1     -12.701  13.985  71.775  0.00  0.00    +0.011 A 
ENDBRANCH  11  16
ENDBRANCH  10  11
ENDBRANCH   1  10
BRANCH   1  19
ATOM     19  C   UNL     1      -9.627  15.236  65.550  0.00  0.00    +0.123 C 
BRANCH  19  20
ATOM     20  N   UNL     1     -10.703  14.424  65.050  0.00  0.00    -0.307 N 
ATOM     21  C   UNL     1     -11.890  14.889  64.627  0.00  0.00    +0.179 A 
ATOM     22  N   UNL     1     -12.714  13.858  64.350  0.00  0.00    -0.222 NA
ATOM     23  C   UNL     1     -11.918  12.767  64.388  0.00  0.00    +0.119 A 
ATOM     24  C   UNL     1     -10.601  13.158  64.596  0.00  0.00    +0.098 A 
ENDBRANCH  19  20
ENDBRANCH   1  19
TORSDOF 6
ENDMDL
MODEL 5
REMARK VINA RESULT:      -6.6      1.656      2.123
REMARK  Name = 
REMARK  6 active torsions:
REMARK  status: ('A' for Active; 'I' for Inactive)
REMARK    1  A    between atoms: C_5  and  C_6
REMARK    2  A    between atoms: C_6  and  S_7
REMARK    3  A    between atoms: S_7  and  C_8
REMARK    4  A    between atoms: C_8  and  C_9
REMARK    5  A    between atoms: C_8  and  C_15
REMARK    6  A    between atoms: C_9  and  N_10
REMARK                            x       y       z     vdW  Elec       q    Type
REMARK                         _______ _______ _______ _____ _____    ______ ____
ROOT
ATOM      1  C   UNL     1     -10.537  16.879  67.640  0.00  0.00    +0.093 C 
ENDROOT
BRANCH   1   2
ATOM      2  C   UNL     1      -9.268  17.786  67.734  0.00  0.00    +0.000 A 
ATOM      3  C   UNL     1      -9.362  19.068  67.241  0.00  0.00    +0.055 A 
ATOM      4 CL   UNL     1     -10.869  19.640  66.541  0.00  0.00    -0.083 Cl
ATOM      5  C   UNL     1      -8.305  19.943  67.454  0.00  0.00    +0.022 A 
ATOM      6  C   UNL     1      -7.252  19.604  68.270  0.00  0.00    +0.058 A 
ATOM      7 CL   UNL     1      -5.781  20.553  68.383  0.00  0.00    -0.082 Cl
ATOM      8  C   UNL     1      -7.159  18.292  68.712  0.00  0.00    +0.011 A 
ATOM      9  C   UNL     1      -8.313  17.520  68.669  0.00  0.00    -0.002 A 
ENDBRANCH   1   2
BRANCH   1  10
ATOM     10  S   UNL     1     -10.130  15.828  69.184  0.00  0.00    -0.130 S 
BRANCH  10  11
ATOM     11  C   UNL     1     -11.542  15.925  70.303  0.00  0.00    +0.084 C 
BRANCH  11  16
ATOM     12 CL   UNL     1     -13.121  10.584  71.915  0.00  0.00    -0.082 Cl
ATOM     13  C   UNL     1     -12.851  12.040  71.366  0.00  0.00    +0.058 A 
ATOM     14  C   UNL     1     -13.391  13.162  71.966  0.00  0.00    +0.011 A 
ATOM     15  C   UNL     1     -13.046  14.439  71.614  0.00  0.00    -0.003 A 
ATOM     16  C   UNL     1     -12.165  14.617  70.564  0.00  0.00    -0.011 A 
ATOM     17  C   UNL     1     -11.811  13.542  69.793  0.00  0.00    -0.003 A 
ATOM     18  C   UNL     1     -12.147  12.262  70.191  0.00  0.00    +0.011 A 
ENDBRANCH  11  16
ENDBRANCH  10  11
ENDBRANCH   1  10
BRANCH   1  19
ATOM     19  C   UNL     1      -9.907  15.848  66.599  0.00  0.00    +0.123 C 
BRANCH  19  20
ATOM     20  N   UNL     1     -10.978  15.240  65.858  0.00  0.00    -0.307 N 
ATOM     21  C   UNL     1     -11.333  15.564  64.604  0.00  0.00    +0.179 A 
ATOM     22  N   UNL     1     -12.455  14.899  64.258  0.00  0.00    -0.222 NA
ATOM     23  C   UNL     1     -12.628  13.991  65.243  0.00  0.00    +0.119 A 
ATOM     24  C   UNL     1     -11.559  14.052  66.128  0.00  0.00    +0.098 A 
ENDBRANCH  19  20
ENDBRANCH   1  19
TORSDOF 6
ENDMDL
MODEL 6
REMARK VINA RESULT:      -6.5      2.861      4.982
REMARK  Name = 
REMARK  6 active torsions:
REMARK  status: ('A' for Active; 'I' for Inactive)
REMARK    1  A    between atoms: C_5  and  C_6
REMARK    2  A    between atoms: C_6  and  S_7
REMARK    3  A    between atoms: S_7  and  C_8
REMARK    4  A    between atoms: C_8  and  C_9
REMARK    5  A    between atoms: C_8  and  C_15
REMARK    6  A    between atoms: C_9  and  N_10
REMARK                            x       y       z     vdW  Elec       q    Type
REMARK                         _______ _______ _______ _____ _____    ______ ____
ROOT
ATOM      1  C   UNL     1     -10.071  14.905  67.488  0.00  0.00    +0.093 C 
ENDROOT
BRANCH   1   2
ATOM      2  C   UNL     1      -9.937  13.832  66.361  0.00  0.00    +0.000 A 
ATOM      3  C   UNL     1      -9.336  12.637  66.685  0.00  0.00    +0.055 A 
ATOM      4 CL   UNL     1      -8.754  12.352  68.318  0.00  0.00    -0.083 Cl
ATOM      5  C   UNL     1      -9.346  11.610  65.749  0.00  0.00    +0.022 A 
ATOM      6  C   UNL     1     -10.071  11.713  64.586  0.00  0.00    +0.058 A 
ATOM      7 CL   UNL     1      -9.929  10.570  63.263  0.00  0.00    -0.082 Cl
ATOM      8  C   UNL     1     -10.624  12.944  64.262  0.00  0.00    +0.011 A 
ATOM      9  C   UNL     1     -10.782  13.863  65.292  0.00  0.00    -0.002 A 
ENDBRANCH   1   2
BRANCH   1  10
ATOM     10  S   UNL     1     -11.901  14.526  67.891  0.00  0.00    -0.130 S 
BRANCH  10  11
ATOM     11  C   UNL     1     -11.936  13.490  69.367  0.00  0.00    +0.084 C 
BRANCH  11  16
ATOM     12 CL   UNL     1     -12.464  15.885  74.620  0.00  0.00    -0.082 Cl
ATOM     13  C   UNL     1     -12.481  15.332  73.141  0.00  0.00    +0.058 A 
ATOM     14  C   UNL     1     -11.881  16.012  72.097  0.00  0.00    +0.011 A 
ATOM     15  C   UNL     1     -11.738  15.482  70.843  0.00  0.00    -0.003 A 
ATOM     16  C   UNL     1     -12.277  14.236  70.590  0.00  0.00    -0.011 A 
ATOM     17  C   UNL     1     -13.090  13.651  71.524  0.00  0.00    -0.003 A 
ATOM     18  C   UNL     1     -13.190  14.191  72.792  0.00  0.00    +0.011 A 
ENDBRANCH  11  16
ENDBRANCH  10  11
ENDBRANCH   1  10
BRANCH   1  19
ATOM     19  C   UNL     1     -10.392  16.118  66.504  0.00  0.00    +0.123 C 
BRANCH  19  20
ATOM     20  N   UNL     1     -10.068  17.346  67.176  0.00  0.00    -0.307 N 
ATOM     21  C   UNL     1     -10.511  18.563  66.819  0.00  0.00    +0.179 A 
ATOM     22  N   UNL     1      -9.914  19.509  67.574  0.00  0.00    -0.222 NA
ATOM     23  C   UNL     1      -9.285  18.817  68.549  0.00  0.00    +0.119 A 
ATOM     24  C   UNL     1      -9.584  17.465  68.430  0.00  0.00    +0.098 A 
ENDBRANCH  19  20
ENDBRANCH   1  19
TORSDOF 6
ENDMDL
MODEL 7
REMARK VINA RESULT:      -6.5      2.603      6.090
REMARK  Name = 
REMARK  6 active torsions:
REMARK  status: ('A' for Active; 'I' for Inactive)
REMARK    1  A    between atoms: C_5  and  C_6
REMARK    2  A    between atoms: C_6  and  S_7
REMARK    3  A    between atoms: S_7  and  C_8
REMARK    4  A    between atoms: C_8  and  C_9
REMARK    5  A    between atoms: C_8  and  C_15
REMARK    6  A    between atoms: C_9  and  N_10
REMARK                            x       y       z     vdW  Elec       q    Type
REMARK                         _______ _______ _______ _____ _____    ______ ____
ROOT
ATOM      1  C   UNL     1     -10.442  13.594  67.480  0.00  0.00    +0.093 C 
ENDROOT
BRANCH   1   2
ATOM      2  C   UNL     1     -11.254  12.819  68.567  0.00  0.00    +0.000 A 
ATOM      3  C   UNL     1     -11.135  11.448  68.596  0.00  0.00    +0.055 A 
ATOM      4 CL   UNL     1     -10.094  10.624  67.445  0.00  0.00    -0.083 Cl
ATOM      5  C   UNL     1     -11.718  10.751  69.647  0.00  0.00    +0.022 A 
ATOM      6  C   UNL     1     -12.268  11.409  70.721  0.00  0.00    +0.058 A 
ATOM      7 CL   UNL     1     -13.231  10.606  71.947  0.00  0.00    -0.082 Cl
ATOM      8  C   UNL     1     -12.419  12.786  70.641  0.00  0.00    +0.011 A 
ATOM      9  C   UNL     1     -11.647  13.460  69.703  0.00  0.00    -0.002 A 
ENDBRANCH   1   2
BRANCH   1  10
ATOM     10  S   UNL     1      -9.990  15.073  68.603  0.00  0.00    -0.130 S 
BRANCH  10  11
ATOM     11  C   UNL     1     -10.866  16.523  67.981  0.00  0.00    +0.084 C 
BRANCH  11  16
ATOM     12 CL   UNL     1      -7.205  20.958  67.240  0.00  0.00    -0.082 Cl
ATOM     13  C   UNL     1      -8.257  19.838  67.607  0.00  0.00    +0.058 A 
ATOM     14  C   UNL     1      -9.588  19.937  67.250  0.00  0.00    +0.011 A 
ATOM     15  C   UNL     1     -10.484  18.914  67.409  0.00  0.00    -0.003 A 
ATOM     16  C   UNL     1     -10.052  17.751  68.017  0.00  0.00    -0.011 A 
ATOM     17  C   UNL     1      -8.816  17.716  68.604  0.00  0.00    -0.003 A 
ATOM     18  C   UNL     1      -7.922  18.748  68.399  0.00  0.00    +0.011 A 
ENDBRANCH  11  16
ENDBRANCH  10  11
ENDBRANCH   1  10
BRANCH   1  19
ATOM     19  C   UNL     1     -11.710  14.300  66.820  0.00  0.00    +0.123 C 
BRANCH  19  20
ATOM     20  N   UNL     1     -11.832  13.839  65.464  0.00  0.00    -0.307 N 
ATOM     21  C   UNL     1     -12.392  14.533  64.459  0.00  0.00    +0.179 A 
ATOM     22  N   UNL     1     -12.464  13.762  63.354  0.00  0.00    -0.222 NA
ATOM     23  C   UNL     1     -11.718  12.675  63.649  0.00  0.00    +0.119 A 
ATOM     24  C   UNL     1     -11.125  12.840  64.895  0.00  0.00    +0.098 A 
ENDBRANCH  19  20
ENDBRANCH   1  19
TORSDOF 6
ENDMDL
MODEL 8
REMARK VINA RESULT:      -6.5      3.632      5.778
REMARK  Name = 
REMARK  6 active torsions:
REMARK  status: ('A' for Active; 'I' for Inactive)
REMARK    1  A    between atoms: C_5  and  C_6
REMARK    2  A    between atoms: C_6  and  S_7
REMARK    3  A    between atoms: S_7  and  C_8
REMARK    4  A    between atoms: C_8  and  C_9
REMARK    5  A    between atoms: C_8  and  C_15
REMARK    6  A    between atoms: C_9  and  N_10
REMARK                            x       y       z     vdW  Elec       q    Type
REMARK                         _______ _______ _______ _____ _____    ______ ____
ROOT
ATOM      1  C   UNL     1     -11.650  13.092  67.973  0.00  0.00    +0.093 C 
ENDROOT
BRANCH   1   2
ATOM      2  C   UNL     1     -12.071  13.848  69.274  0.00  0.00    +0.000 A 
ATOM      3  C   UNL     1     -12.334  13.093  70.394  0.00  0.00    +0.055 A 
ATOM      4 CL   UNL     1     -12.188  11.343  70.338  0.00  0.00    -0.083 Cl
ATOM      5  C   UNL     1     -12.556  13.746  71.601  0.00  0.00    +0.022 A 
ATOM      6  C   UNL     1     -12.365  15.101  71.723  0.00  0.00    +0.058 A 
ATOM      7 CL   UNL     1     -12.861  16.016  73.135  0.00  0.00    -0.082 Cl
ATOM      8  C   UNL     1     -12.150  15.842  70.570  0.00  0.00    +0.011 A 
ATOM      9  C   UNL     1     -11.724  15.155  69.439  0.00  0.00    -0.002 A 
ENDBRANCH   1   2
BRANCH   1  10
ATOM     10  S   UNL     1      -9.789  13.507  68.110  0.00  0.00    -0.130 S 
BRANCH  10  11
ATOM     11  C   UNL     1      -8.870  12.198  67.276  0.00  0.00    +0.084 C 
BRANCH  11  16
ATOM     12 CL   UNL     1     -10.920   7.386  69.778  0.00  0.00    -0.082 Cl
ATOM     13  C   UNL     1     -10.212   8.588  69.037  0.00  0.00    +0.058 A 
ATOM     14  C   UNL     1     -10.411   8.841  67.693  0.00  0.00    +0.011 A 
ATOM     15  C   UNL     1      -9.943   9.964  67.065  0.00  0.00    -0.003 A 
ATOM     16  C   UNL     1      -9.178  10.854  67.793  0.00  0.00    -0.011 A 
ATOM     17  C   UNL     1      -8.755  10.508  69.048  0.00  0.00    -0.003 A 
ATOM     18  C   UNL     1      -9.269   9.386  69.670  0.00  0.00    +0.011 A 
ENDBRANCH  11  16
ENDBRANCH  10  11
ENDBRANCH   1  10
BRANCH   1  19
ATOM     19  C   UNL     1     -11.990  14.295  66.983  0.00  0.00    +0.123 C 
BRANCH  19  20
ATOM     20  N   UNL     1     -12.184  13.757  65.664  0.00  0.00    -0.307 N 
ATOM     21  C   UNL     1     -12.192  14.476  64.529  0.00  0.00    +0.179 A 
ATOM     22  N   UNL     1     -12.530  13.686  63.489  0.00  0.00    -0.222 NA
ATOM     23  C   UNL     1     -12.491  12.432  63.988  0.00  0.00    +0.119 A 
ATOM     24  C   UNL     1     -12.038  12.465  65.301  0.00  0.00    +0.098 A 
ENDBRANCH  19  20
ENDBRANCH   1  19
TORSDOF 6
ENDMDL
MODEL 9
REMARK VINA RESULT:      -6.3      2.729      3.335
REMARK  Name = 
REMARK  6 active torsions:
REMARK  status: ('A' for Active; 'I' for Inactive)
REMARK    1  A    between atoms: C_5  and  C_6
REMARK    2  A    between atoms: C_6  and  S_7
REMARK    3  A    between atoms: S_7  and  C_8
REMARK    4  A    between atoms: C_8  and  C_9
REMARK    5  A    between atoms: C_8  and  C_15
REMARK    6  A    between atoms: C_9  and  N_10
REMARK                            x       y       z     vdW  Elec       q    Type
REMARK                         _______ _______ _______ _____ _____    ______ ____
ROOT
ATOM      1  C   UNL     1     -10.915  14.468  66.893  0.00  0.00    +0.093 C 
ENDROOT
BRANCH   1   2
ATOM      2  C   UNL     1     -10.264  15.851  67.219  0.00  0.00    +0.000 A 
ATOM      3  C   UNL     1     -10.714  16.521  68.334  0.00  0.00    +0.055 A 
ATOM      4 CL   UNL     1     -11.972  15.821  69.341  0.00  0.00    -0.083 Cl
ATOM      5  C   UNL     1     -10.046  17.672  68.734  0.00  0.00    +0.022 A 
ATOM      6  C   UNL     1      -8.869  18.057  68.138  0.00  0.00    +0.058 A 
ATOM      7 CL   UNL     1      -8.114  19.614  68.422  0.00  0.00    -0.082 Cl
ATOM      8  C   UNL     1      -8.467  17.393  66.987  0.00  0.00    +0.011 A 
ATOM      9  C   UNL     1      -9.020  16.141  66.746  0.00  0.00    -0.002 A 
ENDBRANCH   1   2
BRANCH   1  10
ATOM     10  S   UNL     1      -9.689  13.434  67.933  0.00  0.00    -0.130 S 
BRANCH  10  11
ATOM     11  C   UNL     1     -10.226  11.713  67.868  0.00  0.00    +0.084 C 
BRANCH  11  16
ATOM     12 CL   UNL     1     -13.289   9.445  72.237  0.00  0.00    -0.082 Cl
ATOM     13  C   UNL     1     -12.338  10.137  71.183  0.00  0.00    +0.058 A 
ATOM     14  C   UNL     1     -11.199   9.517  70.704  0.00  0.00    +0.011 A 
ATOM     15  C   UNL     1     -10.449  10.020  69.676  0.00  0.00    -0.003 A 
ATOM     16  C   UNL     1     -10.807  11.239  69.135  0.00  0.00    -0.011 A 
ATOM     17  C   UNL     1     -11.771  11.992  69.751  0.00  0.00    -0.003 A 
ATOM     18  C   UNL     1     -12.535  11.446  70.765  0.00  0.00    +0.011 A 
ENDBRANCH  11  16
ENDBRANCH  10  11
ENDBRANCH   1  10
BRANCH   1  19
ATOM     19  C   UNL     1     -10.140  14.259  65.515  0.00  0.00    +0.123 C 
BRANCH  19  20
ATOM     20  N   UNL     1     -10.928  13.396  64.678  0.00  0.00    -0.307 N 
ATOM     21  C   UNL     1     -12.187  13.645  64.279  0.00  0.00    +0.179 A 
ATOM     22  N   UNL     1     -12.678  12.576  63.617  0.00  0.00    -0.222 NA
ATOM     23  C   UNL     1     -11.606  11.777  63.421  0.00  0.00    +0.119 A 
ATOM     24  C   UNL     1     -10.460  12.412  63.883  0.00  0.00    +0.098 A 
ENDBRANCH  19  20
ENDBRANCH   1  19
TORSDOF 6
ENDMDL
