MODEL 1
REMARK VINA RESULT:      -7.3      0.000      0.000
REMARK  Name = 
REMARK  2 active torsions:
REMARK  status: ('A' for Active; 'I' for Inactive)
REMARK    1  A    between atoms: C_3  and  C_4
REMARK    2  A    between atoms: N_6  and  C_7
REMARK                            x       y       z     vdW  Elec       q    Type
REMARK                         _______ _______ _______ _____ _____    ______ ____
ROOT
ATOM      1  C   UNL     1     -12.039  16.457  72.129  0.00  0.00    +0.139 C 
ATOM      2  N   UNL     1     -12.450  15.317  71.358  0.00  0.00    -0.181 N 
ATOM      3  S   UNL     1     -13.316  14.041  72.157  0.00  0.00    +0.077 S 
ATOM      4  O   UNL     1     -12.957  13.960  73.608  0.00  0.00    -0.150 OA
ATOM      5  O   UNL     1     -14.781  14.235  71.943  0.00  0.00    -0.150 OA
ATOM      6  C   UNL     1     -12.857  12.562  71.373  0.00  0.00    +0.129 A 
ATOM      7  C   UNL     1     -12.022  12.574  70.282  0.00  0.00    +0.059 A 
ATOM      8  C   UNL     1     -11.688  11.356  69.698  0.00  0.00    +0.005 A 
ATOM      9  C   UNL     1     -11.723  10.242  70.492  0.00  0.00    +0.000 A 
ATOM     10  C   UNL     1     -12.697  10.220  71.483  0.00  0.00    +0.001 A 
ATOM     11  C   UNL     1     -11.982  13.831  69.524  0.00  0.00    +0.216 C 
ATOM     12  O   UNL     1     -11.402  13.759  68.251  0.00  0.00    -0.285 OA
ATOM     13  C   UNL     1     -13.356  11.380  71.842  0.00  0.00    +0.020 A 
ATOM     14  C   UNL     1     -11.747  14.984  70.155  0.00  0.00    +0.163 C 
ENDROOT
BRANCH  14  15
ATOM     15  C   UNL     1     -10.790  15.974  69.631  0.00  0.00    +0.288 C 
ATOM     16  N   UNL     1     -11.137  16.959  68.686  0.00  0.00    -0.155 NA
ATOM     17  O   UNL     1      -9.574  15.613  69.649  0.00  0.00    -0.266 OA
BRANCH  16  18
ATOM     18  C   UNL     1     -10.372  17.259  67.510  0.00  0.00    +0.155 A 
ATOM     19  N   UNL     1      -9.313  18.104  67.538  0.00  0.00    -0.227 NA
ATOM     20  C   UNL     1      -8.079  17.725  67.124  0.00  0.00    +0.100 A 
ATOM     21  C   UNL     1      -7.928  16.665  66.239  0.00  0.00    +0.021 A 
ATOM     22  C   UNL     1      -9.056  15.959  65.930  0.00  0.00    +0.005 A 
ATOM     23  C   UNL     1     -10.202  16.171  66.658  0.00  0.00    +0.036 A 
ENDBRANCH  16  18
ENDBRANCH  14  15
TORSDOF 2
ENDMDL
MODEL 2
REMARK VINA RESULT:      -7.2      3.113      4.750
REMARK  Name = 
REMARK  2 active torsions:
REMARK  status: ('A' for Active; 'I' for Inactive)
REMARK    1  A    between atoms: C_3  and  C_4
REMARK    2  A    between atoms: N_6  and  C_7
REMARK                            x       y       z     vdW  Elec       q    Type
REMARK                         _______ _______ _______ _____ _____    ______ ____
ROOT
ATOM      1  C   UNL     1     -10.813  15.706  65.000  0.00  0.00    +0.139 C 
ATOM      2  N   UNL     1     -10.550  15.544  66.403  0.00  0.00    -0.181 N 
ATOM      3  S   UNL     1     -11.189  14.146  67.213  0.00  0.00    +0.077 S 
ATOM      4  O   UNL     1     -12.438  13.654  66.553  0.00  0.00    -0.150 OA
ATOM      5  O   UNL     1     -10.129  13.096  67.283  0.00  0.00    -0.150 OA
ATOM      6  C   UNL     1     -11.555  14.637  68.836  0.00  0.00    +0.129 A 
ATOM      7  C   UNL     1     -11.258  15.906  69.272  0.00  0.00    +0.059 A 
ATOM      8  C   UNL     1     -11.579  16.242  70.583  0.00  0.00    +0.005 A 
ATOM      9  C   UNL     1     -12.607  15.563  71.177  0.00  0.00    +0.000 A 
ATOM     10  C   UNL     1     -12.762  14.231  70.812  0.00  0.00    +0.001 A 
ATOM     11  C   UNL     1     -10.193  16.600  68.536  0.00  0.00    +0.216 C 
ATOM     12  O   UNL     1      -9.663  17.739  69.156  0.00  0.00    -0.285 OA
ATOM     13  C   UNL     1     -12.127  13.736  69.689  0.00  0.00    +0.020 A 
ATOM     14  C   UNL     1     -10.254  16.694  67.205  0.00  0.00    +0.163 C 
ENDROOT
BRANCH  14  15
ATOM     15  C   UNL     1      -9.987  17.961  66.504  0.00  0.00    +0.288 C 
ATOM     16  N   UNL     1      -8.698  18.369  66.109  0.00  0.00    -0.155 NA
ATOM     17  O   UNL     1     -10.831  18.884  66.715  0.00  0.00    -0.266 OA
BRANCH  16  18
ATOM     18  C   UNL     1      -8.157  19.678  66.336  0.00  0.00    +0.155 A 
ATOM     19  N   UNL     1      -7.953  20.165  67.583  0.00  0.00    -0.227 NA
ATOM     20  C   UNL     1      -6.736  20.597  67.999  0.00  0.00    +0.100 A 
ATOM     21  C   UNL     1      -5.781  21.002  67.075  0.00  0.00    +0.021 A 
ATOM     22  C   UNL     1      -6.083  20.812  65.757  0.00  0.00    +0.005 A 
ATOM     23  C   UNL     1      -7.173  20.045  65.421  0.00  0.00    +0.036 A 
ENDBRANCH  16  18
ENDBRANCH  14  15
TORSDOF 2
ENDMDL
MODEL 3
REMARK VINA RESULT:      -7.0      3.314      4.869
REMARK  Name = 
REMARK  2 active torsions:
REMARK  status: ('A' for Active; 'I' for Inactive)
REMARK    1  A    between atoms: C_3  and  C_4
REMARK    2  A    between atoms: N_6  and  C_7
REMARK                            x       y       z     vdW  Elec       q    Type
REMARK                         _______ _______ _______ _____ _____    ______ ____
ROOT
ATOM      1  C   UNL     1      -9.798  18.346  68.915  0.00  0.00    +0.139 C 
ATOM      2  N   UNL     1     -10.530  17.435  68.080  0.00  0.00    -0.181 N 
ATOM      3  S   UNL     1     -10.964  15.881  68.727  0.00  0.00    +0.077 S 
ATOM      4  O   UNL     1      -9.994  15.432  69.773  0.00  0.00    -0.150 OA
ATOM      5  O   UNL     1     -12.366  15.940  69.238  0.00  0.00    -0.150 OA
ATOM      6  C   UNL     1     -10.931  14.764  67.399  0.00  0.00    +0.129 A 
ATOM      7  C   UNL     1     -10.674  15.197  66.121  0.00  0.00    +0.059 A 
ATOM      8  C   UNL     1     -10.658  14.254  65.099  0.00  0.00    +0.005 A 
ATOM      9  C   UNL     1     -10.351  12.963  65.434  0.00  0.00    +0.000 A 
ATOM     10  C   UNL     1     -10.776  12.531  66.684  0.00  0.00    +0.001 A 
ATOM     11  C   UNL     1     -10.959  16.614  65.859  0.00  0.00    +0.216 C 
ATOM     12  O   UNL     1     -11.014  16.988  64.510  0.00  0.00    -0.285 OA
ATOM     13  C   UNL     1     -11.185  13.443  67.637  0.00  0.00    +0.020 A 
ATOM     14  C   UNL     1     -10.447  17.556  66.656  0.00  0.00    +0.163 C 
ENDROOT
BRANCH  14  15
ATOM     15  C   UNL     1      -9.812  18.769  66.113  0.00  0.00    +0.288 C 
ATOM     16  N   UNL     1      -8.419  18.912  65.962  0.00  0.00    -0.155 NA
ATOM     17  O   UNL     1     -10.476  19.840  66.262  0.00  0.00    -0.266 OA
BRANCH  16  18
ATOM     18  C   UNL     1      -7.672  20.063  66.379  0.00  0.00    +0.155 A 
ATOM     19  N   UNL     1      -7.428  20.327  67.685  0.00  0.00    -0.227 NA
ATOM     20  C   UNL     1      -6.170  20.481  68.167  0.00  0.00    +0.100 A 
ATOM     21  C   UNL     1      -5.131  20.842  67.318  0.00  0.00    +0.021 A 
ATOM     22  C   UNL     1      -5.420  20.895  65.984  0.00  0.00    +0.005 A 
ATOM     23  C   UNL     1      -6.612  20.381  65.534  0.00  0.00    +0.036 A 
ENDBRANCH  16  18
ENDBRANCH  14  15
TORSDOF 2
ENDMDL
MODEL 4
REMARK VINA RESULT:      -6.8      3.424      7.512
REMARK  Name = 
REMARK  2 active torsions:
REMARK  status: ('A' for Active; 'I' for Inactive)
REMARK    1  A    between atoms: C_3  and  C_4
REMARK    2  A    between atoms: N_6  and  C_7
REMARK                            x       y       z     vdW  Elec       q    Type
REMARK                         _______ _______ _______ _____ _____    ______ ____
ROOT
ATOM      1  C   UNL     1     -10.801  10.762  65.598  0.00  0.00    +0.139 C 
ATOM      2  N   UNL     1     -11.328  12.036  65.999  0.00  0.00    -0.181 N 
ATOM      3  S   UNL     1     -11.307  13.342  64.854  0.00  0.00    +0.077 S 
ATOM      4  O   UNL     1     -10.187  13.193  63.873  0.00  0.00    -0.150 OA
ATOM      5  O   UNL     1     -12.641  13.429  64.187  0.00  0.00    -0.150 OA
ATOM      6  C   UNL     1     -11.077  14.800  65.767  0.00  0.00    +0.129 A 
ATOM      7  C   UNL     1     -11.025  14.770  67.139  0.00  0.00    +0.059 A 
ATOM      8  C   UNL     1     -10.835  15.970  67.816  0.00  0.00    +0.005 A 
ATOM      9  C   UNL     1     -10.187  16.976  67.152  0.00  0.00    +0.000 A 
ATOM     10  C   UNL     1     -10.404  17.052  65.781  0.00  0.00    +0.001 A 
ATOM     11  C   UNL     1     -11.679  13.620  67.777  0.00  0.00    +0.216 C 
ATOM     12  O   UNL     1     -11.916  13.735  69.153  0.00  0.00    -0.285 OA
ATOM     13  C   UNL     1     -10.969  15.989  65.103  0.00  0.00    +0.020 A 
ATOM     14  C   UNL     1     -11.373  12.378  67.389  0.00  0.00    +0.163 C 
ENDROOT
BRANCH  14  15
ATOM     15  C   UNL     1     -11.107  11.305  68.362  0.00  0.00    +0.288 C 
ATOM     16  N   UNL     1     -12.117  10.677  69.116  0.00  0.00    -0.155 NA
ATOM     17  O   UNL     1      -9.945  11.313  68.872  0.00  0.00    -0.266 OA
BRANCH  16  18
ATOM     18  C   UNL     1     -12.047  10.444  70.530  0.00  0.00    +0.155 A 
ATOM     19  N   UNL     1     -13.131  10.564  71.333  0.00  0.00    -0.227 NA
ATOM     20  C   UNL     1     -13.563   9.546  72.118  0.00  0.00    +0.100 A 
ATOM     21  C   UNL     1     -12.691   8.534  72.500  0.00  0.00    +0.021 A 
ATOM     22  C   UNL     1     -11.446   8.553  71.938  0.00  0.00    +0.005 A 
ATOM     23  C   UNL     1     -11.197   9.399  70.885  0.00  0.00    +0.036 A 
ENDBRANCH  16  18
ENDBRANCH  14  15
TORSDOF 2
ENDMDL
MODEL 5
REMARK VINA RESULT:      -6.8      3.808      4.930
REMARK  Name = 
REMARK  2 active torsions:
REMARK  status: ('A' for Active; 'I' for Inactive)
REMARK    1  A    between atoms: C_3  and  C_4
REMARK    2  A    between atoms: N_6  and  C_7
REMARK                            x       y       z     vdW  Elec       q    Type
REMARK                         _______ _______ _______ _____ _____    ______ ____
ROOT
ATOM      1  C   UNL     1      -8.882  14.531  68.770  0.00  0.00    +0.139 C 
ATOM      2  N   UNL     1      -9.765  13.660  68.046  0.00  0.00    -0.181 N 
ATOM      3  S   UNL     1      -9.156  12.130  67.492  0.00  0.00    +0.077 S 
ATOM      4  O   UNL     1      -7.680  12.184  67.250  0.00  0.00    -0.150 OA
ATOM      5  O   UNL     1      -9.533  11.070  68.474  0.00  0.00    -0.150 OA
ATOM      6  C   UNL     1      -9.968  11.783  65.999  0.00  0.00    +0.129 A 
ATOM      7  C   UNL     1     -10.947  12.619  65.519  0.00  0.00    +0.059 A 
ATOM      8  C   UNL     1     -11.560  12.289  64.315  0.00  0.00    +0.005 A 
ATOM      9  C   UNL     1     -10.846  11.530  63.428  0.00  0.00    +0.000 A 
ATOM     10  C   UNL     1      -9.984  10.588  63.975  0.00  0.00    +0.001 A 
ATOM     11  C   UNL     1     -11.617  13.457  66.522  0.00  0.00    +0.216 C 
ATOM     12  O   UNL     1     -12.813  14.063  66.114  0.00  0.00    -0.285 OA
ATOM     13  C   UNL     1      -9.637  10.650  65.311  0.00  0.00    +0.020 A 
ATOM     14  C   UNL     1     -10.892  14.210  67.354  0.00  0.00    +0.163 C 
ENDROOT
BRANCH  14  15
ATOM     15  C   UNL     1     -11.235  15.617  67.624  0.00  0.00    +0.288 C 
ATOM     16  N   UNL     1     -10.564  16.704  67.031  0.00  0.00    -0.155 NA
ATOM     17  O   UNL     1     -11.778  15.835  68.750  0.00  0.00    -0.266 OA
BRANCH  16  18
ATOM     18  C   UNL     1     -10.089  17.852  67.749  0.00  0.00    +0.155 A 
ATOM     19  N   UNL     1      -8.829  17.919  68.243  0.00  0.00    -0.227 NA
ATOM     20  C   UNL     1      -7.978  18.922  67.912  0.00  0.00    +0.100 A 
ATOM     21  C   UNL     1      -8.468  20.139  67.457  0.00  0.00    +0.021 A 
ATOM     22  C   UNL     1      -9.814  20.215  67.238  0.00  0.00    +0.005 A 
ATOM     23  C   UNL     1     -10.562  19.062  67.250  0.00  0.00    +0.036 A 
ENDBRANCH  16  18
ENDBRANCH  14  15
TORSDOF 2
ENDMDL
MODEL 6
REMARK VINA RESULT:      -6.7      4.184      5.457
REMARK  Name = 
REMARK  2 active torsions:
REMARK  status: ('A' for Active; 'I' for Inactive)
REMARK    1  A    between atoms: C_3  and  C_4
REMARK    2  A    between atoms: N_6  and  C_7
REMARK                            x       y       z     vdW  Elec       q    Type
REMARK                         _______ _______ _______ _____ _____    ______ ____
ROOT
ATOM      1  C   UNL     1      -9.219  10.026  67.968  0.00  0.00    +0.139 C 
ATOM      2  N   UNL     1      -9.916   9.926  69.220  0.00  0.00    -0.181 N 
ATOM      3  S   UNL     1      -9.910   8.404  70.057  0.00  0.00    +0.077 S 
ATOM      4  O   UNL     1      -9.767   7.257  69.107  0.00  0.00    -0.150 OA
ATOM      5  O   UNL     1      -8.835   8.421  71.094  0.00  0.00    -0.150 OA
ATOM      6  C   UNL     1     -11.434   8.281  70.877  0.00  0.00    +0.129 A 
ATOM      7  C   UNL     1     -12.337   9.316  70.842  0.00  0.00    +0.059 A 
ATOM      8  C   UNL     1     -13.544   9.157  71.516  0.00  0.00    +0.005 A 
ATOM      9  C   UNL     1     -14.006   7.882  71.694  0.00  0.00    +0.000 A 
ATOM     10  C   UNL     1     -13.046   6.896  71.882  0.00  0.00    +0.001 A 
ATOM     11  C   UNL     1     -11.773  10.645  70.572  0.00  0.00    +0.216 C 
ATOM     12  O   UNL     1     -12.610  11.733  70.851  0.00  0.00    -0.285 OA
ATOM     13  C   UNL     1     -11.720   7.145  71.579  0.00  0.00    +0.020 A 
ATOM     14  C   UNL     1     -10.988  10.832  69.508  0.00  0.00    +0.163 C 
ENDROOT
BRANCH  14  15
ATOM     15  C   UNL     1     -11.161  11.987  68.610  0.00  0.00    +0.288 C 
ATOM     16  N   UNL     1     -11.852  11.917  67.384  0.00  0.00    -0.155 NA
ATOM     17  O   UNL     1     -10.269  12.884  68.704  0.00  0.00    -0.266 OA
BRANCH  16  18
ATOM     18  C   UNL     1     -11.363  12.453  66.147  0.00  0.00    +0.155 A 
ATOM     19  N   UNL     1     -10.892  11.658  65.156  0.00  0.00    -0.227 NA
ATOM     20  C   UNL     1     -11.406  11.689  63.901  0.00  0.00    +0.100 A 
ATOM     21  C   UNL     1     -12.081  12.814  63.445  0.00  0.00    +0.021 A 
ATOM     22  C   UNL     1     -12.309  13.804  64.358  0.00  0.00    +0.005 A 
ATOM     23  C   UNL     1     -12.080  13.556  65.690  0.00  0.00    +0.036 A 
ENDBRANCH  16  18
ENDBRANCH  14  15
TORSDOF 2
ENDMDL
MODEL 7
REMARK VINA RESULT:      -6.7      4.028      5.463
REMARK  Name = 
REMARK  2 active torsions:
REMARK  status: ('A' for Active; 'I' for Inactive)
REMARK    1  A    between atoms: C_3  and  C_4
REMARK    2  A    between atoms: N_6  and  C_7
REMARK                            x       y       z     vdW  Elec       q    Type
REMARK                         _______ _______ _______ _____ _____    ______ ____
ROOT
ATOM      1  C   UNL     1     -12.167  14.521  64.278  0.00  0.00    +0.139 C 
ATOM      2  N   UNL     1     -11.083  13.722  64.778  0.00  0.00    -0.181 N 
ATOM      3  S   UNL     1     -10.843  12.136  64.111  0.00  0.00    +0.077 S 
ATOM      4  O   UNL     1     -12.126  11.551  63.610  0.00  0.00    -0.150 OA
ATOM      5  O   UNL     1      -9.796  12.206  63.048  0.00  0.00    -0.150 OA
ATOM      6  C   UNL     1     -10.226  11.145  65.395  0.00  0.00    +0.129 A 
ATOM      7  C   UNL     1      -9.952  11.682  66.629  0.00  0.00    +0.059 A 
ATOM      8  C   UNL     1      -9.463  10.836  67.620  0.00  0.00    +0.005 A 
ATOM      9  C   UNL     1      -9.781   9.509  67.533  0.00  0.00    +0.000 A 
ATOM     10  C   UNL     1      -9.891   8.982  66.252  0.00  0.00    +0.001 A 
ATOM     11  C   UNL     1      -9.695  13.128  66.652  0.00  0.00    +0.216 C 
ATOM     12  O   UNL     1      -9.105  13.626  67.821  0.00  0.00    -0.285 OA
ATOM     13  C   UNL     1      -9.995   9.819  65.158  0.00  0.00    +0.020 A 
ATOM     14  C   UNL     1     -10.566  13.970  66.091  0.00  0.00    +0.163 C 
ENDROOT
BRANCH  14  15
ATOM     15  C   UNL     1     -11.005  15.199  66.772  0.00  0.00    +0.288 C 
ATOM     16  N   UNL     1     -10.333  16.432  66.653  0.00  0.00    -0.155 NA
ATOM     17  O   UNL     1     -11.669  15.020  67.839  0.00  0.00    -0.266 OA
BRANCH  16  18
ATOM     18  C   UNL     1      -9.991  17.278  67.759  0.00  0.00    +0.155 A 
ATOM     19  N   UNL     1      -8.825  17.141  68.436  0.00  0.00    -0.227 NA
ATOM     20  C   UNL     1      -7.945  18.163  68.571  0.00  0.00    +0.100 A 
ATOM     21  C   UNL     1      -8.373  19.480  68.453  0.00  0.00    +0.021 A 
ATOM     22  C   UNL     1      -9.669  19.671  68.066  0.00  0.00    +0.005 A 
ATOM     23  C   UNL     1     -10.395  18.601  67.600  0.00  0.00    +0.036 A 
ENDBRANCH  16  18
ENDBRANCH  14  15
TORSDOF 2
ENDMDL
MODEL 8
REMARK VINA RESULT:      -6.7      3.432      4.853
REMARK  Name = 
REMARK  2 active torsions:
REMARK  status: ('A' for Active; 'I' for Inactive)
REMARK    1  A    between atoms: C_3  and  C_4
REMARK    2  A    between atoms: N_6  and  C_7
REMARK                            x       y       z     vdW  Elec       q    Type
REMARK                         _______ _______ _______ _____ _____    ______ ____
ROOT
ATOM      1  C   UNL     1     -11.405  16.391  64.518  0.00  0.00    +0.139 C 
ATOM      2  N   UNL     1     -10.808  15.425  65.396  0.00  0.00    -0.181 N 
ATOM      3  S   UNL     1     -11.239  13.752  65.209  0.00  0.00    +0.077 S 
ATOM      4  O   UNL     1     -12.616  13.602  64.643  0.00  0.00    -0.150 OA
ATOM      5  O   UNL     1     -10.204  13.071  64.375  0.00  0.00    -0.150 OA
ATOM      6  C   UNL     1     -11.192  13.046  66.793  0.00  0.00    +0.129 A 
ATOM      7  C   UNL     1     -10.788  13.783  67.880  0.00  0.00    +0.059 A 
ATOM      8  C   UNL     1     -10.774  13.162  69.125  0.00  0.00    +0.005 A 
ATOM      9  C   UNL     1     -11.631  12.114  69.319  0.00  0.00    +0.000 A 
ATOM     10  C   UNL     1     -11.881  11.307  68.216  0.00  0.00    +0.001 A 
ATOM     11  C   UNL     1      -9.930  14.937  67.583  0.00  0.00    +0.216 C 
ATOM     12  O   UNL     1      -9.254  15.495  68.677  0.00  0.00    -0.285 OA
ATOM     13  C   UNL     1     -11.545  11.735  66.946  0.00  0.00    +0.020 A 
ATOM     14  C   UNL     1     -10.315  15.839  66.676  0.00  0.00    +0.163 C 
ENDROOT
BRANCH  14  15
ATOM     15  C   UNL     1     -10.217  17.286  66.930  0.00  0.00    +0.288 C 
ATOM     16  N   UNL     1      -9.050  18.037  66.687  0.00  0.00    -0.155 NA
ATOM     17  O   UNL     1     -10.998  17.732  67.825  0.00  0.00    -0.266 OA
BRANCH  16  18
ATOM     18  C   UNL     1      -8.480  18.972  67.613  0.00  0.00    +0.155 A 
ATOM     19  N   UNL     1      -7.714  18.573  68.657  0.00  0.00    -0.227 NA
ATOM     20  C   UNL     1      -6.451  19.029  68.840  0.00  0.00    +0.100 A 
ATOM     21  C   UNL     1      -6.050  20.236  68.280  0.00  0.00    +0.021 A 
ATOM     22  C   UNL     1      -6.939  20.848  67.442  0.00  0.00    +0.005 A 
ATOM     23  C   UNL     1      -8.050  20.157  67.021  0.00  0.00    +0.036 A 
ENDBRANCH  16  18
ENDBRANCH  14  15
TORSDOF 2
ENDMDL
MODEL 9
REMARK VINA RESULT:      -6.7      3.938      7.318
REMARK  Name = 
REMARK  2 active torsions:
REMARK  status: ('A' for Active; 'I' for Inactive)
REMARK    1  A    between atoms: C_3  and  C_4
REMARK    2  A    between atoms: N_6  and  C_7
REMARK                            x       y       z     vdW  Elec       q    Type
REMARK                         _______ _______ _______ _____ _____    ______ ____
ROOT
ATOM      1  C   UNL     1      -8.520  14.077  67.352  0.00  0.00    +0.139 C 
ATOM      2  N   UNL     1      -8.610  15.338  66.670  0.00  0.00    -0.181 N 
ATOM      3  S   UNL     1      -7.587  16.641  67.193  0.00  0.00    +0.077 S 
ATOM      4  O   UNL     1      -7.244  16.519  68.645  0.00  0.00    -0.150 OA
ATOM      5  O   UNL     1      -6.374  16.690  66.324  0.00  0.00    -0.150 OA
ATOM      6  C   UNL     1      -8.480  18.107  66.939  0.00  0.00    +0.129 A 
ATOM      7  C   UNL     1      -9.719  18.082  66.346  0.00  0.00    +0.059 A 
ATOM      8  C   UNL     1     -10.388  19.289  66.172  0.00  0.00    +0.005 A 
ATOM      9  C   UNL     1     -10.087  20.310  67.032  0.00  0.00    +0.000 A 
ATOM     10  C   UNL     1      -8.773  20.376  67.478  0.00  0.00    +0.001 A 
ATOM     11  C   UNL     1      -9.995  16.917  65.495  0.00  0.00    +0.216 C 
ATOM     12  O   UNL     1     -11.100  17.031  64.641  0.00  0.00    -0.285 OA
ATOM     13  C   UNL     1      -7.925  19.296  67.318  0.00  0.00    +0.020 A 
ATOM     14  C   UNL     1      -9.814  15.683  65.974  0.00  0.00    +0.163 C 
ENDROOT
BRANCH  14  15
ATOM     15  C   UNL     1     -10.815  14.621  65.780  0.00  0.00    +0.288 C 
ATOM     16  N   UNL     1     -11.739  14.238  66.771  0.00  0.00    -0.155 NA
ATOM     17  O   UNL     1     -10.505  13.735  64.926  0.00  0.00    -0.266 OA
BRANCH  16  18
ATOM     18  C   UNL     1     -12.013  12.880  67.143  0.00  0.00    +0.155 A 
ATOM     19  N   UNL     1     -11.703  11.838  66.335  0.00  0.00    -0.227 NA
ATOM     20  C   UNL     1     -10.907  10.819  66.746  0.00  0.00    +0.100 A 
ATOM     21  C   UNL     1     -10.759  10.543  68.099  0.00  0.00    +0.021 A 
ATOM     22  C   UNL     1     -11.338  11.422  68.971  0.00  0.00    +0.005 A 
ATOM     23  C   UNL     1     -11.820  12.619  68.497  0.00  0.00    +0.036 A 
ENDBRANCH  16  18
ENDBRANCH  14  15
TORSDOF 2
ENDMDL
