MODEL 1
REMARK VINA RESULT:      -7.7      0.000      0.000
REMARK  Name = 
REMARK  3 active torsions:
REMARK  status: ('A' for Active; 'I' for Inactive)
REMARK    1  A    between atoms: C_17  and  O_18
REMARK    2  A    between atoms: O_18  and  C_19
REMARK    3  A    between atoms: C_32  and  C_33
REMARK                            x       y       z     vdW  Elec       q    Type
REMARK                         _______ _______ _______ _____ _____    ______ ____
ROOT
ATOM      1  C   UNL     1      -6.174   3.269  74.821  0.00  0.00    +0.007 C 
ATOM      2  C   UNL     1      -5.958   2.739  73.305  0.00  0.00    +0.053 C 
ATOM      3  C   UNL     1      -6.381   1.152  73.797  0.00  0.00    +0.159 C 
ATOM      4  O   UNL     1      -5.061   0.981  74.491  0.00  0.00    -0.223 OA
ATOM      5  C   UNL     1      -5.957   0.551  72.268  0.00  0.00    +0.071 C 
ATOM      6  C   UNL     1      -5.957  -0.979  72.755  0.00  0.00    +0.006 C 
ATOM      7  C   UNL     1      -4.282   0.906  72.302  0.00  0.00    +0.171 C 
ATOM      8  C   UNL     1      -3.747  -0.440  73.103  0.00  0.00    +0.047 C 
ATOM      9  O   UNL     1      -4.313   0.119  71.011  0.00  0.00    -0.452 OA
ATOM     10  C   UNL     1      -3.152   0.241  70.303  0.00  0.00    +0.319 C 
ATOM     11  O   UNL     1      -3.504  -0.770  69.655  0.00  0.00    -0.250 OA
ATOM     12  C   UNL     1      -2.969   1.529  69.619  0.00  0.00    +0.142 C 
ATOM     13  C   UNL     1      -2.016   0.897  68.400  0.00  0.00    +0.166 C 
ATOM     14  O   UNL     1      -2.956  -0.216  67.964  0.00  0.00    -0.222 OA
ATOM     15  C   UNL     1      -2.696   1.819  67.209  0.00  0.00    +0.066 C 
ATOM     16  C   UNL     1      -3.030   0.614  66.105  0.00  0.00    +0.157 C 
ATOM     17  O   UNL     1      -4.486   1.040  66.028  0.00  0.00    -0.223 OA
ATOM     18  C   UNL     1      -2.526   1.516  64.838  0.00  0.00    +0.066 C 
ATOM     19  C   UNL     1      -3.327   2.924  65.145  0.00  0.00    +0.155 C 
ATOM     20  O   UNL     1      -2.123   3.729  64.688  0.00  0.00    -0.223 OA
ATOM     21  C   UNL     1      -4.038   2.810  63.667  0.00  0.00    +0.036 C 
ATOM     22  C   UNL     1      -3.001   2.993  62.638  0.00  0.00    +0.038 C 
ATOM     23  C   UNL     1      -3.485   4.188  61.610  0.00  0.00    +0.183 C 
ATOM     24  O   UNL     1      -4.693   3.362  61.207  0.00  0.00    -0.220 OA
ATOM     25  C   UNL     1      -4.402   5.005  62.850  0.00  0.00    +0.189 C 
ATOM     26  O   UNL     1      -3.442   6.182  62.773  0.00  0.00    -0.220 OA
ATOM     27  C   UNL     1      -5.422   5.614  61.713  0.00  0.00    +0.100 C 
ATOM     28  C   UNL     1      -5.485   7.043  61.831  0.00  0.00    +0.156 C 
ATOM     29  O   UNL     1      -5.331   7.686  60.794  0.00  0.00    -0.296 OA
ATOM     30  C   UNL     1      -5.471   7.696  63.131  0.00  0.00    +0.098 C 
ATOM     31  C   UNL     1      -7.043   7.842  63.605  0.00  0.00    +0.172 C 
ATOM     32  O   UNL     1      -6.590   8.768  64.718  0.00  0.00    -0.222 OA
ATOM     33  C   UNL     1      -7.323   9.035  62.398  0.00  0.00    +0.164 C 
ATOM     34  C   UNL     1      -7.668  10.326  63.468  0.00  0.00    +0.168 C 
ATOM     35  O   UNL     1      -8.478  11.029  62.399  0.00  0.00    -0.222 OA
ATOM     36  C   UNL     1      -8.965   9.583  64.147  0.00  0.00    +0.068 C 
ATOM     37  C   UNL     1      -9.073  10.606  65.443  0.00  0.00    +0.142 C 
ATOM     38  C   UNL     1      -9.757   9.433  66.348  0.00  0.00    +0.003 C 
ATOM     39  C   UNL     1     -10.632   9.712  67.201  0.00  0.00    -0.002 C 
ATOM     40  C   UNL     1     -10.114  10.273  68.435  0.00  0.00    -0.000 C 
ATOM     41  C   UNL     1      -9.704   9.345  69.258  0.00  0.00    -0.000 C 
ATOM     42  C   UNL     1     -10.520   9.575  70.482  0.00  0.00    -0.000 C 
ATOM     43  C   UNL     1     -11.597   8.826  70.472  0.00  0.00    -0.000 C 
ATOM     44  C   UNL     1     -11.601   7.808  71.541  0.00  0.00    -0.005 C 
ATOM     45  C   UNL     1     -10.520   7.602  72.282  0.00  0.00    -0.026 C 
ATOM     46  C   UNL     1     -10.537   6.958  73.598  0.00  0.00    +0.031 C 
ATOM     47  C   UNL     1      -9.124   6.758  74.081  0.00  0.00    +0.031 C 
ATOM     48  C   UNL     1      -8.474   5.603  73.436  0.00  0.00    -0.026 C 
ATOM     49  C   UNL     1      -9.189   4.480  73.352  0.00  0.00    -0.005 C 
ATOM     50  C   UNL     1      -8.413   3.263  73.629  0.00  0.00    -0.005 C 
ATOM     51  C   UNL     1      -7.445   3.029  72.825  0.00  0.00    -0.024 C 
ENDROOT
BRANCH  33  52
ATOM     52  C   UNL     1      -8.798   8.526  62.119  0.00  0.00    +0.369 C 
ATOM     53  O   UNL     1      -9.540   9.027  61.083  0.00  0.00    -0.245 OA
ATOM     54  O   UNL     1      -8.987   7.279  62.118  0.00  0.00    -0.245 OA
ENDBRANCH  33  52
BRANCH  37  55
ATOM     55  O   UNL     1     -10.403  11.104  64.913  0.00  0.00    -0.327 OA
BRANCH  55  56
ATOM     56  C   UNL     1      -9.969  12.575  64.776  0.00  0.00    +0.268 C 
ATOM     57  C   UNL     1     -11.351  13.117  63.854  0.00  0.00    +0.228 C 
ATOM     58  O   UNL     1     -12.485  12.244  64.380  0.00  0.00    -0.216 OA
ATOM     59  C   UNL     1     -11.576  14.530  64.774  0.00  0.00    +0.160 C 
ATOM     60  N   UNL     1     -12.705  14.952  63.817  0.00  0.00    -0.127 NA
ATOM     61  C   UNL     1     -12.681  13.930  65.885  0.00  0.00    +0.199 C 
ATOM     62  O   UNL     1     -11.975  14.395  67.116  0.00  0.00    -0.219 OA
ATOM     63  C   UNL     1     -11.774  12.462  65.864  0.00  0.00    +0.150 C 
ATOM     64  C   UNL     1     -11.449  12.691  64.296  0.00  0.00    +0.035 C 
ATOM     65  O   UNL     1     -10.416  13.003  66.177  0.00  0.00    -0.328 OA
ENDBRANCH  55  56
ENDBRANCH  37  55
TORSDOF 3
ENDMDL
MODEL 2
REMARK VINA RESULT:      -7.1      2.854      4.803
REMARK  Name = 
REMARK  3 active torsions:
REMARK  status: ('A' for Active; 'I' for Inactive)
REMARK    1  A    between atoms: C_17  and  O_18
REMARK    2  A    between atoms: O_18  and  C_19
REMARK    3  A    between atoms: C_32  and  C_33
REMARK                            x       y       z     vdW  Elec       q    Type
REMARK                         _______ _______ _______ _____ _____    ______ ____
ROOT
ATOM      1  C   UNL     1      -7.088   0.444  70.818  0.00  0.00    +0.007 C 
ATOM      2  C   UNL     1      -7.461   0.785  69.279  0.00  0.00    +0.053 C 
ATOM      3  C   UNL     1      -8.228  -0.741  69.123  0.00  0.00    +0.159 C 
ATOM      4  O   UNL     1      -6.900  -1.440  69.086  0.00  0.00    -0.223 OA
ATOM      5  C   UNL     1      -8.438  -0.480  67.460  0.00  0.00    +0.071 C 
ATOM      6  C   UNL     1      -8.802  -2.015  67.161  0.00  0.00    +0.006 C 
ATOM      7  C   UNL     1      -6.791  -0.438  66.991  0.00  0.00    +0.171 C 
ATOM      8  C   UNL     1      -6.527  -2.062  66.818  0.00  0.00    +0.047 C 
ATOM      9  O   UNL     1      -7.412  -0.396  65.613  0.00  0.00    -0.452 OA
ATOM     10  C   UNL     1      -6.503  -0.078  64.646  0.00  0.00    +0.319 C 
ATOM     11  O   UNL     1      -7.319  -0.523  63.808  0.00  0.00    -0.250 OA
ATOM     12  C   UNL     1      -6.102   1.335  64.606  0.00  0.00    +0.142 C 
ATOM     13  C   UNL     1      -5.758   1.330  62.970  0.00  0.00    +0.166 C 
ATOM     14  O   UNL     1      -7.086   0.768  62.486  0.00  0.00    -0.222 OA
ATOM     15  C   UNL     1      -6.393   2.830  62.696  0.00  0.00    +0.066 C 
ATOM     16  C   UNL     1      -7.375   2.466  61.399  0.00  0.00    +0.157 C 
ATOM     17  O   UNL     1      -8.582   3.066  62.099  0.00  0.00    -0.223 OA
ATOM     18  C   UNL     1      -6.959   3.826  60.591  0.00  0.00    +0.066 C 
ATOM     19  C   UNL     1      -7.153   4.946  61.786  0.00  0.00    +0.155 C 
ATOM     20  O   UNL     1      -5.918   5.692  61.311  0.00  0.00    -0.223 OA
ATOM     21  C   UNL     1      -8.225   5.743  60.827  0.00  0.00    +0.036 C 
ATOM     22  C   UNL     1      -7.494   6.301  59.678  0.00  0.00    +0.038 C 
ATOM     23  C   UNL     1      -7.818   7.915  59.582  0.00  0.00    +0.183 C 
ATOM     24  O   UNL     1      -9.289   7.613  59.359  0.00  0.00    -0.220 OA
ATOM     25  C   UNL     1      -8.063   8.059  61.304  0.00  0.00    +0.189 C 
ATOM     26  O   UNL     1      -6.831   8.946  61.396  0.00  0.00    -0.220 OA
ATOM     27  C   UNL     1      -9.093   9.318  61.066  0.00  0.00    +0.100 C 
ATOM     28  C   UNL     1      -8.659  10.453  61.829  0.00  0.00    +0.156 C 
ATOM     29  O   UNL     1      -8.584  11.523  61.227  0.00  0.00    -0.296 OA
ATOM     30  C   UNL     1      -8.094  10.298  63.160  0.00  0.00    +0.098 C 
ATOM     31  C   UNL     1      -9.352  10.386  64.223  0.00  0.00    +0.172 C 
ATOM     32  O   UNL     1      -8.349  10.496  65.356  0.00  0.00    -0.222 OA
ATOM     33  C   UNL     1      -9.540  12.065  63.902  0.00  0.00    +0.164 C 
ATOM     34  C   UNL     1      -9.156  12.614  65.477  0.00  0.00    +0.168 C 
ATOM     35  O   UNL     1      -9.946  13.886  65.253  0.00  0.00    -0.222 OA
ATOM     36  C   UNL     1     -10.396  11.813  66.195  0.00  0.00    +0.068 C 
ATOM     37  C   UNL     1      -9.825  11.985  67.737  0.00  0.00    +0.142 C 
ATOM     38  C   UNL     1     -10.586  10.620  68.203  0.00  0.00    +0.003 C 
ATOM     39  C   UNL     1     -11.068  10.517  69.356  0.00  0.00    -0.002 C 
ATOM     40  C   UNL     1     -10.092  10.250  70.396  0.00  0.00    -0.000 C 
ATOM     41  C   UNL     1      -9.801   8.978  70.477  0.00  0.00    -0.000 C 
ATOM     42  C   UNL     1     -10.148   8.628  71.882  0.00  0.00    -0.000 C 
ATOM     43  C   UNL     1     -11.371   8.161  71.958  0.00  0.00    -0.000 C 
ATOM     44  C   UNL     1     -11.422   6.741  72.358  0.00  0.00    -0.005 C 
ATOM     45  C   UNL     1     -10.311   6.021  72.437  0.00  0.00    -0.026 C 
ATOM     46  C   UNL     1     -10.188   4.781  73.208  0.00  0.00    +0.031 C 
ATOM     47  C   UNL     1      -8.841   4.158  72.952  0.00  0.00    +0.031 C 
ATOM     48  C   UNL     1      -8.791   3.451  71.660  0.00  0.00    -0.026 C 
ATOM     49  C   UNL     1      -9.825   2.661  71.366  0.00  0.00    -0.005 C 
ATOM     50  C   UNL     1      -9.439   1.392  70.736  0.00  0.00    -0.005 C 
ATOM     51  C   UNL     1      -8.845   1.492  69.607  0.00  0.00    -0.024 C 
ENDROOT
BRANCH  33  52
ATOM     52  C   UNL     1     -11.118  11.997  64.026  0.00  0.00    +0.369 C 
ATOM     53  O   UNL     1     -11.896  13.103  63.812  0.00  0.00    -0.245 OA
ATOM     54  O   UNL     1     -11.701  11.038  63.452  0.00  0.00    -0.245 OA
ENDBRANCH  33  52
BRANCH  37  55
ATOM     55  O   UNL     1     -11.012  12.870  68.058  0.00  0.00    -0.327 OA
BRANCH  55  56
ATOM     56  C   UNL     1     -10.273  13.748  69.085  0.00  0.00    +0.268 C 
ATOM     57  C   UNL     1     -10.500  15.273  68.262  0.00  0.00    +0.228 C 
ATOM     58  O   UNL     1     -11.855  15.102  67.581  0.00  0.00    -0.216 OA
ATOM     59  C   UNL     1     -10.949  16.115  69.669  0.00  0.00    +0.160 C 
ATOM     60  N   UNL     1     -11.003  17.417  68.851  0.00  0.00    -0.127 NA
ATOM     61  C   UNL     1     -12.612  15.922  69.556  0.00  0.00    +0.199 C 
ATOM     62  O   UNL     1     -12.834  15.421  70.945  0.00  0.00    -0.219 OA
ATOM     63  C   UNL     1     -12.300  14.327  68.979  0.00  0.00    +0.150 C 
ATOM     64  C   UNL     1     -10.966  14.860  68.238  0.00  0.00    +0.035 C 
ATOM     65  O   UNL     1     -11.429  13.826  70.087  0.00  0.00    -0.328 OA
ENDBRANCH  55  56
ENDBRANCH  37  55
TORSDOF 3
ENDMDL
MODEL 3
REMARK VINA RESULT:      -6.6      3.179      8.972
REMARK  Name = 
REMARK  3 active torsions:
REMARK  status: ('A' for Active; 'I' for Inactive)
REMARK    1  A    between atoms: C_17  and  O_18
REMARK    2  A    between atoms: O_18  and  C_19
REMARK    3  A    between atoms: C_32  and  C_33
REMARK                            x       y       z     vdW  Elec       q    Type
REMARK                         _______ _______ _______ _____ _____    ______ ____
ROOT
ATOM      1  C   UNL     1      -5.353   2.120  59.000  0.00  0.00    +0.007 C 
ATOM      2  C   UNL     1      -5.106   1.814  60.572  0.00  0.00    +0.053 C 
ATOM      3  C   UNL     1      -3.530   1.238  60.215  0.00  0.00    +0.159 C 
ATOM      4  O   UNL     1      -4.091  -0.024  59.627  0.00  0.00    -0.223 OA
ATOM      5  C   UNL     1      -3.340   0.724  61.820  0.00  0.00    +0.071 C 
ATOM      6  C   UNL     1      -2.048  -0.171  61.489  0.00  0.00    +0.006 C 
ATOM      7  C   UNL     1      -4.565  -0.473  61.858  0.00  0.00    +0.171 C 
ATOM      8  C   UNL     1      -3.709  -1.743  61.231  0.00  0.00    +0.047 C 
ATOM      9  O   UNL     1      -3.957  -0.739  63.217  0.00  0.00    -0.452 OA
ATOM     10  C   UNL     1      -4.738  -1.557  63.982  0.00  0.00    +0.319 C 
ATOM     11  O   UNL     1      -3.733  -1.750  64.704  0.00  0.00    -0.250 OA
ATOM     12  C   UNL     1      -5.939  -0.926  64.545  0.00  0.00    +0.142 C 
ATOM     13  C   UNL     1      -6.004  -1.930  65.880  0.00  0.00    +0.166 C 
ATOM     14  O   UNL     1      -4.578  -1.716  66.363  0.00  0.00    -0.222 OA
ATOM     15  C   UNL     1      -6.446  -0.731  66.926  0.00  0.00    +0.066 C 
ATOM     16  C   UNL     1      -5.314  -0.996  68.121  0.00  0.00    +0.157 C 
ATOM     17  O   UNL     1      -4.859   0.452  68.061  0.00  0.00    -0.223 OA
ATOM     18  C   UNL     1      -6.402  -0.780  69.322  0.00  0.00    +0.066 C 
ATOM     19  C   UNL     1      -7.110   0.624  68.825  0.00  0.00    +0.155 C 
ATOM     20  O   UNL     1      -8.469   0.118  69.276  0.00  0.00    -0.223 OA
ATOM     21  C   UNL     1      -6.689   1.311  70.259  0.00  0.00    +0.036 C 
ATOM     22  C   UNL     1      -7.466   0.665  71.329  0.00  0.00    +0.038 C 
ATOM     23  C   UNL     1      -8.237   1.834  72.199  0.00  0.00    +0.183 C 
ATOM     24  O   UNL     1      -6.899   2.424  72.604  0.00  0.00    -0.220 OA
ATOM     25  C   UNL     1      -8.346   2.907  70.827  0.00  0.00    +0.189 C 
ATOM     26  O   UNL     1      -9.860   2.768  70.848  0.00  0.00    -0.220 OA
ATOM     27  C   UNL     1      -8.337   4.210  71.830  0.00  0.00    +0.100 C 
ATOM     28  C   UNL     1      -9.481   5.035  71.566  0.00  0.00    +0.156 C 
ATOM     29  O   UNL     1     -10.150   5.374  72.542  0.00  0.00    -0.296 OA
ATOM     30  C   UNL     1      -9.969   5.241  70.212  0.00  0.00    +0.098 C 
ATOM     31  C   UNL     1      -9.194   6.572  69.625  0.00  0.00    +0.172 C 
ATOM     32  O   UNL     1     -10.161   6.585  68.456  0.00  0.00    -0.222 OA
ATOM     33  C   UNL     1     -10.084   7.591  70.687  0.00  0.00    +0.164 C 
ATOM     34  C   UNL     1     -10.912   8.470  69.473  0.00  0.00    +0.168 C 
ATOM     35  O   UNL     1     -11.096   9.643  70.413  0.00  0.00    -0.222 OA
ATOM     36  C   UNL     1      -9.542   9.062  68.790  0.00  0.00    +0.068 C 
ATOM     37  C   UNL     1     -10.269   9.573  67.395  0.00  0.00    +0.142 C 
ATOM     38  C   UNL     1      -8.873   9.397  66.568  0.00  0.00    +0.003 C 
ATOM     39  C   UNL     1      -8.577  10.182  65.637  0.00  0.00    -0.002 C 
ATOM     40  C   UNL     1      -9.272   9.927  64.390  0.00  0.00    -0.000 C 
ATOM     41  C   UNL     1      -8.692   8.987  63.691  0.00  0.00    -0.000 C 
ATOM     42  C   UNL     1      -8.370   9.657  62.401  0.00  0.00    -0.000 C 
ATOM     43  C   UNL     1      -7.151  10.138  62.416  0.00  0.00    -0.000 C 
ATOM     44  C   UNL     1      -6.254   9.466  61.456  0.00  0.00    -0.005 C 
ATOM     45  C   UNL     1      -6.649   8.377  60.810  0.00  0.00    -0.026 C 
ATOM     46  C   UNL     1      -6.043   7.893  59.566  0.00  0.00    +0.031 C 
ATOM     47  C   UNL     1      -6.640   6.561  59.198  0.00  0.00    +0.031 C 
ATOM     48  C   UNL     1      -6.075   5.457  59.994  0.00  0.00    -0.026 C 
ATOM     49  C   UNL     1      -4.749   5.441  60.144  0.00  0.00    -0.005 C 
ATOM     50  C   UNL     1      -4.159   4.101  60.041  0.00  0.00    -0.005 C 
ATOM     51  C   UNL     1      -4.541   3.257  60.924  0.00  0.00    -0.024 C 
ENDROOT
BRANCH  33  52
ATOM     52  C   UNL     1      -8.855   8.563  70.919  0.00  0.00    +0.369 C 
ATOM     53  O   UNL     1      -8.659   9.188  72.123  0.00  0.00    -0.245 OA
ATOM     54  O   UNL     1      -7.720   8.160  70.542  0.00  0.00    -0.245 OA
ENDBRANCH  33  52
BRANCH  37  55
ATOM     55  O   UNL     1      -9.967  11.006  67.785  0.00  0.00    -0.327 OA
BRANCH  55  56
ATOM     56  C   UNL     1     -11.400  11.527  67.566  0.00  0.00    +0.268 C 
ATOM     57  C   UNL     1     -11.346  12.801  68.761  0.00  0.00    +0.228 C 
ATOM     58  O   UNL     1      -9.887  13.247  68.728  0.00  0.00    -0.216 OA
ATOM     59  C   UNL     1     -12.063  13.962  67.746  0.00  0.00    +0.160 C 
ATOM     60  N   UNL     1     -12.062  14.960  68.917  0.00  0.00    -0.127 NA
ATOM     61  C   UNL     1     -10.663  14.636  67.112  0.00  0.00    +0.199 C 
ATOM     62  O   UNL     1     -11.051  14.544  65.673  0.00  0.00    -0.219 OA
ATOM     63  C   UNL     1     -10.009  13.040  67.086  0.00  0.00    +0.150 C 
ATOM     64  C   UNL     1     -10.827  12.688  68.436  0.00  0.00    +0.035 C 
ATOM     65  O   UNL     1     -11.081  12.343  66.310  0.00  0.00    -0.328 OA
ENDBRANCH  55  56
ENDBRANCH  37  55
TORSDOF 3
ENDMDL
MODEL 4
REMARK VINA RESULT:      -6.2      5.159      9.817
REMARK  Name = 
REMARK  3 active torsions:
REMARK  status: ('A' for Active; 'I' for Inactive)
REMARK    1  A    between atoms: C_17  and  O_18
REMARK    2  A    between atoms: O_18  and  C_19
REMARK    3  A    between atoms: C_32  and  C_33
REMARK                            x       y       z     vdW  Elec       q    Type
REMARK                         _______ _______ _______ _____ _____    ______ ____
ROOT
ATOM      1  C   UNL     1     -12.312   3.146  59.059  0.00  0.00    +0.007 C 
ATOM      2  C   UNL     1     -11.417   2.471  60.228  0.00  0.00    +0.053 C 
ATOM      3  C   UNL     1     -10.750   1.376  59.089  0.00  0.00    +0.159 C 
ATOM      4  O   UNL     1     -12.031   0.596  59.040  0.00  0.00    -0.223 OA
ATOM      5  C   UNL     1      -9.971   0.532  60.337  0.00  0.00    +0.071 C 
ATOM      6  C   UNL     1      -9.633  -0.735  59.409  0.00  0.00    +0.006 C 
ATOM      7  C   UNL     1     -11.355  -0.036  61.173  0.00  0.00    +0.171 C 
ATOM      8  C   UNL     1     -11.655  -1.399  60.284  0.00  0.00    +0.047 C 
ATOM      9  O   UNL     1     -10.302  -0.785  61.959  0.00  0.00    -0.452 OA
ATOM     10  C   UNL     1     -10.805  -1.337  63.101  0.00  0.00    +0.319 C 
ATOM     11  O   UNL     1      -9.786  -2.062  63.135  0.00  0.00    -0.250 OA
ATOM     12  C   UNL     1     -11.071  -0.388  64.190  0.00  0.00    +0.142 C 
ATOM     13  C   UNL     1     -10.839  -1.512  65.406  0.00  0.00    +0.166 C 
ATOM     14  O   UNL     1      -9.467  -2.002  64.969  0.00  0.00    -0.222 OA
ATOM     15  C   UNL     1     -10.048  -0.462  66.407  0.00  0.00    +0.066 C 
ATOM     16  C   UNL     1      -8.712  -1.395  66.760  0.00  0.00    +0.157 C 
ATOM     17  O   UNL     1      -7.775  -0.282  66.325  0.00  0.00    -0.223 OA
ATOM     18  C   UNL     1      -8.735  -0.984  68.342  0.00  0.00    +0.066 C 
ATOM     19  C   UNL     1      -8.881   0.654  68.216  0.00  0.00    +0.155 C 
ATOM     20  O   UNL     1      -9.827   0.678  69.404  0.00  0.00    -0.223 OA
ATOM     21  C   UNL     1      -7.495   0.816  69.087  0.00  0.00    +0.036 C 
ATOM     22  C   UNL     1      -7.753   0.356  70.461  0.00  0.00    +0.038 C 
ATOM     23  C   UNL     1      -7.305   1.548  71.508  0.00  0.00    +0.183 C 
ATOM     24  O   UNL     1      -5.871   1.444  71.024  0.00  0.00    -0.220 OA
ATOM     25  C   UNL     1      -7.650   2.812  70.355  0.00  0.00    +0.189 C 
ATOM     26  O   UNL     1      -8.776   3.309  71.248  0.00  0.00    -0.220 OA
ATOM     27  C   UNL     1      -6.516   3.777  71.054  0.00  0.00    +0.100 C 
ATOM     28  C   UNL     1      -7.103   5.034  71.419  0.00  0.00    +0.156 C 
ATOM     29  O   UNL     1      -6.896   5.424  72.567  0.00  0.00    -0.296 OA
ATOM     30  C   UNL     1      -8.095   5.679  70.572  0.00  0.00    +0.098 C 
ATOM     31  C   UNL     1      -7.270   6.656  69.533  0.00  0.00    +0.172 C 
ATOM     32  O   UNL     1      -8.587   7.291  69.129  0.00  0.00    -0.222 OA
ATOM     33  C   UNL     1      -6.869   7.727  70.818  0.00  0.00    +0.164 C 
ATOM     34  C   UNL     1      -7.726   9.084  70.222  0.00  0.00    +0.168 C 
ATOM     35  O   UNL     1      -6.820  10.024  70.990  0.00  0.00    -0.222 OA
ATOM     36  C   UNL     1      -6.860   9.177  68.830  0.00  0.00    +0.068 C 
ATOM     37  C   UNL     1      -7.907  10.200  68.060  0.00  0.00    +0.142 C 
ATOM     38  C   UNL     1      -7.444   9.626  66.605  0.00  0.00    +0.003 C 
ATOM     39  C   UNL     1      -7.390  10.381  65.606  0.00  0.00    -0.002 C 
ATOM     40  C   UNL     1      -8.677  10.681  65.006  0.00  0.00    -0.000 C 
ATOM     41  C   UNL     1      -9.064   9.738  64.188  0.00  0.00    -0.000 C 
ATOM     42  C   UNL     1      -9.238  10.450  62.892  0.00  0.00    -0.000 C 
ATOM     43  C   UNL     1      -8.149  10.372  62.166  0.00  0.00    -0.000 C 
ATOM     44  C   UNL     1      -8.335   9.588  60.930  0.00  0.00    -0.005 C 
ATOM     45  C   UNL     1      -9.453   8.906  60.723  0.00  0.00    -0.026 C 
ATOM     46  C   UNL     1      -9.915   8.463  59.405  0.00  0.00    +0.031 C 
ATOM     47  C   UNL     1     -11.136   7.594  59.562  0.00  0.00    +0.031 C 
ATOM     48  C   UNL     1     -10.793   6.225  59.988  0.00  0.00    -0.026 C 
ATOM     49  C   UNL     1      -9.777   5.635  59.356  0.00  0.00    -0.005 C 
ATOM     50  C   UNL     1     -10.013   4.218  59.053  0.00  0.00    -0.005 C 
ATOM     51  C   UNL     1     -10.181   3.455  60.067  0.00  0.00    -0.024 C 
ENDROOT
BRANCH  33  52
ATOM     52  C   UNL     1      -5.435   8.040  70.221  0.00  0.00    +0.369 C 
ATOM     53  O   UNL     1      -4.473   8.663  70.971  0.00  0.00    -0.245 OA
ATOM     54  O   UNL     1      -4.852   7.110  69.601  0.00  0.00    -0.245 OA
ENDBRANCH  33  52
BRANCH  37  55
ATOM     55  O   UNL     1      -6.841  11.276  68.081  0.00  0.00    -0.327 OA
BRANCH  55  56
ATOM     56  C   UNL     1      -7.766  12.397  68.590  0.00  0.00    +0.268 C 
ATOM     57  C   UNL     1      -6.615  13.147  69.670  0.00  0.00    +0.228 C 
ATOM     58  O   UNL     1      -5.280  12.918  68.969  0.00  0.00    -0.216 OA
ATOM     59  C   UNL     1      -6.978  14.730  69.168  0.00  0.00    +0.160 C 
ATOM     60  N   UNL     1      -6.016  15.272  70.240  0.00  0.00    -0.127 NA
ATOM     61  C   UNL     1      -5.808  14.888  67.976  0.00  0.00    +0.199 C 
ATOM     62  O   UNL     1      -6.715  15.366  66.890  0.00  0.00    -0.219 OA
ATOM     63  C   UNL     1      -6.120  13.239  67.574  0.00  0.00    +0.150 C 
ATOM     64  C   UNL     1      -6.400  12.917  69.134  0.00  0.00    +0.035 C 
ATOM     65  O   UNL     1      -7.599  13.307  67.370  0.00  0.00    -0.328 OA
ENDBRANCH  55  56
ENDBRANCH  37  55
TORSDOF 3
ENDMDL
MODEL 5
REMARK VINA RESULT:      -5.7      3.192      5.822
REMARK  Name = 
REMARK  3 active torsions:
REMARK  status: ('A' for Active; 'I' for Inactive)
REMARK    1  A    between atoms: C_17  and  O_18
REMARK    2  A    between atoms: O_18  and  C_19
REMARK    3  A    between atoms: C_32  and  C_33
REMARK                            x       y       z     vdW  Elec       q    Type
REMARK                         _______ _______ _______ _____ _____    ______ ____
ROOT
ATOM      1  C   UNL     1     -10.197   5.607  74.148  0.00  0.00    +0.007 C 
ATOM      2  C   UNL     1      -9.781   4.397  73.155  0.00  0.00    +0.053 C 
ATOM      3  C   UNL     1     -11.170   3.517  73.640  0.00  0.00    +0.159 C 
ATOM      4  O   UNL     1     -10.544   3.201  74.968  0.00  0.00    -0.223 OA
ATOM      5  C   UNL     1     -10.636   2.165  72.766  0.00  0.00    +0.071 C 
ATOM      6  C   UNL     1     -11.678   1.167  73.471  0.00  0.00    +0.006 C 
ATOM      7  C   UNL     1      -9.209   1.827  73.651  0.00  0.00    +0.171 C 
ATOM      8  C   UNL     1      -9.866   0.920  74.869  0.00  0.00    +0.047 C 
ATOM      9  O   UNL     1      -9.203   0.610  72.754  0.00  0.00    -0.452 OA
ATOM     10  C   UNL     1      -8.016  -0.063  72.804  0.00  0.00    +0.319 C 
ATOM     11  O   UNL     1      -8.610  -1.039  72.292  0.00  0.00    -0.250 OA
ATOM     12  C   UNL     1      -6.903   0.579  72.091  0.00  0.00    +0.142 C 
ATOM     13  C   UNL     1      -6.108  -0.855  71.766  0.00  0.00    +0.166 C 
ATOM     14  O   UNL     1      -7.272  -1.590  71.120  0.00  0.00    -0.222 OA
ATOM     15  C   UNL     1      -5.654  -0.413  70.241  0.00  0.00    +0.066 C 
ATOM     16  C   UNL     1      -6.177  -1.762  69.412  0.00  0.00    +0.157 C 
ATOM     17  O   UNL     1      -6.985  -0.904  68.454  0.00  0.00    -0.223 OA
ATOM     18  C   UNL     1      -4.830  -1.821  68.486  0.00  0.00    +0.066 C 
ATOM     19  C   UNL     1      -4.740  -0.248  68.001  0.00  0.00    +0.155 C 
ATOM     20  O   UNL     1      -3.227  -0.275  68.137  0.00  0.00    -0.223 OA
ATOM     21  C   UNL     1      -4.788  -0.756  66.438  0.00  0.00    +0.036 C 
ATOM     22  C   UNL     1      -3.542  -1.482  66.147  0.00  0.00    +0.038 C 
ATOM     23  C   UNL     1      -2.847  -0.820  64.805  0.00  0.00    +0.183 C 
ATOM     24  O   UNL     1      -4.059  -1.208  63.978  0.00  0.00    -0.220 OA
ATOM     25  C   UNL     1      -3.519   0.758  65.129  0.00  0.00    +0.189 C 
ATOM     26  O   UNL     1      -2.116   1.298  65.359  0.00  0.00    -0.220 OA
ATOM     27  C   UNL     1      -3.512   1.105  63.522  0.00  0.00    +0.100 C 
ATOM     28  C   UNL     1      -2.796   2.326  63.289  0.00  0.00    +0.156 C 
ATOM     29  O   UNL     1      -1.938   2.300  62.408  0.00  0.00    -0.296 OA
ATOM     30  C   UNL     1      -2.893   3.447  64.212  0.00  0.00    +0.098 C 
ATOM     31  C   UNL     1      -4.146   4.383  63.691  0.00  0.00    +0.172 C 
ATOM     32  O   UNL     1      -3.696   5.467  64.651  0.00  0.00    -0.222 OA
ATOM     33  C   UNL     1      -3.237   4.882  62.319  0.00  0.00    +0.164 C 
ATOM     34  C   UNL     1      -3.155   6.542  62.726  0.00  0.00    +0.168 C 
ATOM     35  O   UNL     1      -2.965   6.916  61.271  0.00  0.00    -0.222 OA
ATOM     36  C   UNL     1      -4.783   6.757  62.705  0.00  0.00    +0.068 C 
ATOM     37  C   UNL     1      -4.760   8.218  63.480  0.00  0.00    +0.142 C 
ATOM     38  C   UNL     1      -6.260   7.962  64.070  0.00  0.00    +0.003 C 
ATOM     39  C   UNL     1      -7.062   8.914  64.215  0.00  0.00    -0.002 C 
ATOM     40  C   UNL     1      -6.814   9.739  65.382  0.00  0.00    -0.000 C 
ATOM     41  C   UNL     1      -7.337   9.223  66.463  0.00  0.00    -0.000 C 
ATOM     42  C   UNL     1      -8.259  10.286  66.949  0.00  0.00    -0.000 C 
ATOM     43  C   UNL     1      -9.474  10.092  66.496  0.00  0.00    -0.000 C 
ATOM     44  C   UNL     1     -10.444   9.777  67.563  0.00  0.00    -0.005 C 
ATOM     45  C   UNL     1     -10.033   9.546  68.803  0.00  0.00    -0.026 C 
ATOM     46  C   UNL     1     -10.891   9.648  69.986  0.00  0.00    +0.031 C 
ATOM     47  C   UNL     1     -10.136   9.175  71.201  0.00  0.00    +0.031 C 
ATOM     48  C   UNL     1     -10.071   7.705  71.278  0.00  0.00    -0.026 C 
ATOM     49  C   UNL     1     -11.204   7.039  71.043  0.00  0.00    -0.005 C 
ATOM     50  C   UNL     1     -11.419   5.900  71.945  0.00  0.00    -0.005 C 
ATOM     51  C   UNL     1     -10.540   4.971  71.883  0.00  0.00    -0.024 C 
ENDROOT
BRANCH  33  52
ATOM     52  C   UNL     1      -4.513   4.906  61.379  0.00  0.00    +0.369 C 
ATOM     53  O   UNL     1      -4.393   4.873  60.015  0.00  0.00    -0.245 OA
ATOM     54  O   UNL     1      -5.459   4.123  61.669  0.00  0.00    -0.245 OA
ENDBRANCH  33  52
BRANCH  37  55
ATOM     55  O   UNL     1      -5.268   8.876  62.213  0.00  0.00    -0.327 OA
BRANCH  55  56
ATOM     56  C   UNL     1      -4.339  10.102  62.297  0.00  0.00    +0.268 C 
ATOM     57  C   UNL     1      -3.841  10.103  60.621  0.00  0.00    +0.228 C 
ATOM     58  O   UNL     1      -5.073   9.578  59.892  0.00  0.00    -0.216 OA
ATOM     59  C   UNL     1      -4.041  11.781  60.428  0.00  0.00    +0.160 C 
ATOM     60  N   UNL     1      -3.477  11.666  59.001  0.00  0.00    -0.127 NA
ATOM     61  C   UNL     1      -5.617  11.780  59.854  0.00  0.00    +0.199 C 
ATOM     62  O   UNL     1      -6.160  12.797  60.803  0.00  0.00    -0.219 OA
ATOM     63  C   UNL     1      -5.931  10.503  60.971  0.00  0.00    +0.150 C 
ATOM     64  C   UNL     1      -4.430   9.945  60.747  0.00  0.00    +0.035 C 
ATOM     65  O   UNL     1      -5.453  11.150  62.231  0.00  0.00    -0.328 OA
ENDBRANCH  55  56
ENDBRANCH  37  55
TORSDOF 3
ENDMDL
MODEL 6
REMARK VINA RESULT:      -5.2      5.468      9.082
REMARK  Name = 
REMARK  3 active torsions:
REMARK  status: ('A' for Active; 'I' for Inactive)
REMARK    1  A    between atoms: C_17  and  O_18
REMARK    2  A    between atoms: O_18  and  C_19
REMARK    3  A    between atoms: C_32  and  C_33
REMARK                            x       y       z     vdW  Elec       q    Type
REMARK                         _______ _______ _______ _____ _____    ______ ____
ROOT
ATOM      1  C   UNL     1      -7.305   8.359  76.386  0.00  0.00    +0.007 C 
ATOM      2  C   UNL     1      -6.266   8.809  75.228  0.00  0.00    +0.053 C 
ATOM      3  C   UNL     1      -5.004   8.887  76.387  0.00  0.00    +0.159 C 
ATOM      4  O   UNL     1      -5.566  10.156  76.959  0.00  0.00    -0.223 OA
ATOM      5  C   UNL     1      -3.963   9.556  75.227  0.00  0.00    +0.071 C 
ATOM      6  C   UNL     1      -2.877  10.018  76.317  0.00  0.00    +0.006 C 
ATOM      7  C   UNL     1      -4.792  11.029  74.947  0.00  0.00    +0.171 C 
ATOM      8  C   UNL     1      -4.164  11.922  76.191  0.00  0.00    +0.047 C 
ATOM      9  O   UNL     1      -3.556  11.314  74.124  0.00  0.00    -0.452 OA
ATOM     10  C   UNL     1      -3.710  12.411  73.325  0.00  0.00    +0.319 C 
ATOM     11  O   UNL     1      -2.464  12.431  73.206  0.00  0.00    -0.250 OA
ATOM     12  C   UNL     1      -4.560  12.209  72.144  0.00  0.00    +0.142 C 
ATOM     13  C   UNL     1      -3.789  13.374  71.225  0.00  0.00    +0.166 C 
ATOM     14  O   UNL     1      -2.369  12.860  71.396  0.00  0.00    -0.222 OA
ATOM     15  C   UNL     1      -3.845  12.498  69.826  0.00  0.00    +0.066 C 
ATOM     16  C   UNL     1      -2.244  12.620  69.378  0.00  0.00    +0.157 C 
ATOM     17  O   UNL     1      -2.123  11.110  69.265  0.00  0.00    -0.223 OA
ATOM     18  C   UNL     1      -2.613  12.875  67.805  0.00  0.00    +0.066 C 
ATOM     19  C   UNL     1      -3.693  11.654  67.558  0.00  0.00    +0.155 C 
ATOM     20  O   UNL     1      -4.547  12.562  66.689  0.00  0.00    -0.223 OA
ATOM     21  C   UNL     1      -2.737  11.092  66.344  0.00  0.00    +0.036 C 
ATOM     22  C   UNL     1      -2.764  12.067  65.242  0.00  0.00    +0.038 C 
ATOM     23  C   UNL     1      -3.183  11.282  63.853  0.00  0.00    +0.183 C 
ATOM     24  O   UNL     1      -1.938  10.420  63.957  0.00  0.00    -0.220 OA
ATOM     25  C   UNL     1      -4.131  10.092  64.708  0.00  0.00    +0.189 C 
ATOM     26  O   UNL     1      -5.389  10.631  64.046  0.00  0.00    -0.220 OA
ATOM     27  C   UNL     1      -3.841   8.990  63.523  0.00  0.00    +0.100 C 
ATOM     28  C   UNL     1      -5.083   8.470  63.026  0.00  0.00    +0.156 C 
ATOM     29  O   UNL     1      -5.225   8.465  61.804  0.00  0.00    -0.296 OA
ATOM     30  C   UNL     1      -6.204   8.211  63.916  0.00  0.00    +0.098 C 
ATOM     31  C   UNL     1      -6.051   6.652  64.429  0.00  0.00    +0.172 C 
ATOM     32  O   UNL     1      -7.457   6.731  64.994  0.00  0.00    -0.222 OA
ATOM     33  C   UNL     1      -6.452   6.069  62.861  0.00  0.00    +0.164 C 
ATOM     34  C   UNL     1      -7.904   5.279  63.307  0.00  0.00    +0.168 C 
ATOM     35  O   UNL     1      -7.787   4.343  62.122  0.00  0.00    -0.222 OA
ATOM     36  C   UNL     1      -7.170   4.252  64.358  0.00  0.00    +0.068 C 
ATOM     37  C   UNL     1      -8.565   3.759  65.098  0.00  0.00    +0.142 C 
ATOM     38  C   UNL     1      -7.755   3.438  66.477  0.00  0.00    +0.003 C 
ATOM     39  C   UNL     1      -8.092   2.478  67.209  0.00  0.00    -0.002 C 
ATOM     40  C   UNL     1      -9.261   2.728  68.030  0.00  0.00    -0.000 C 
ATOM     41  C   UNL     1      -8.958   3.370  69.128  0.00  0.00    -0.000 C 
ATOM     42  C   UNL     1      -9.432   2.462  70.208  0.00  0.00    -0.000 C 
ATOM     43  C   UNL     1      -8.463   1.681  70.620  0.00  0.00    -0.000 C 
ATOM     44  C   UNL     1      -8.063   1.946  72.016  0.00  0.00    -0.005 C 
ATOM     45  C   UNL     1      -8.542   2.997  72.668  0.00  0.00    -0.026 C 
ATOM     46  C   UNL     1      -8.561   3.119  74.128  0.00  0.00    +0.031 C 
ATOM     47  C   UNL     1      -9.034   4.496  74.514  0.00  0.00    +0.031 C 
ATOM     48  C   UNL     1      -7.976   5.511  74.364  0.00  0.00    -0.026 C 
ATOM     49  C   UNL     1      -6.769   5.195  74.835  0.00  0.00    -0.005 C 
ATOM     50  C   UNL     1      -6.096   6.301  75.528  0.00  0.00    -0.005 C 
ATOM     51  C   UNL     1      -5.847   7.333  74.814  0.00  0.00    -0.024 C 
ENDROOT
BRANCH  33  52
ATOM     52  C   UNL     1      -5.447   4.848  62.968  0.00  0.00    +0.369 C 
ATOM     53  O   UNL     1      -5.048   4.156  61.855  0.00  0.00    -0.245 OA
ATOM     54  O   UNL     1      -4.413   5.011  63.672  0.00  0.00    -0.245 OA
ENDBRANCH  33  52
BRANCH  37  55
ATOM     55  O   UNL     1      -8.350   2.369  64.535  0.00  0.00    -0.327 OA
BRANCH  55  56
ATOM     56  C   UNL     1      -9.819   2.138  64.135  0.00  0.00    +0.268 C 
ATOM     57  C   UNL     1      -9.504   1.475  62.549  0.00  0.00    +0.228 C 
ATOM     58  O   UNL     1      -8.180   0.740  62.736  0.00  0.00    -0.216 OA
ATOM     59  C   UNL     1     -10.612   0.196  62.720  0.00  0.00    +0.160 C 
ATOM     60  N   UNL     1     -10.329  -0.220  61.266  0.00  0.00    -0.127 NA
ATOM     61  C   UNL     1      -9.558  -0.970  63.306  0.00  0.00    +0.199 C 
ATOM     62  O   UNL     1     -10.374  -1.380  64.487  0.00  0.00    -0.219 OA
ATOM     63  C   UNL     1      -8.801   0.291  64.208  0.00  0.00    +0.150 C 
ATOM     64  C   UNL     1      -9.108   1.329  63.007  0.00  0.00    +0.035 C 
ATOM     65  O   UNL     1      -9.995   0.837  64.923  0.00  0.00    -0.328 OA
ENDBRANCH  55  56
ENDBRANCH  37  55
TORSDOF 3
ENDMDL
MODEL 7
REMARK VINA RESULT:      -4.9      4.446      9.130
REMARK  Name = 
REMARK  3 active torsions:
REMARK  status: ('A' for Active; 'I' for Inactive)
REMARK    1  A    between atoms: C_17  and  O_18
REMARK    2  A    between atoms: O_18  and  C_19
REMARK    3  A    between atoms: C_32  and  C_33
REMARK                            x       y       z     vdW  Elec       q    Type
REMARK                         _______ _______ _______ _____ _____    ______ ____
ROOT
ATOM      1  C   UNL     1     -11.039   2.270  59.618  0.00  0.00    +0.007 C 
ATOM      2  C   UNL     1      -9.941   1.868  60.739  0.00  0.00    +0.053 C 
ATOM      3  C   UNL     1      -9.121   0.893  59.591  0.00  0.00    +0.159 C 
ATOM      4  O   UNL     1     -10.196  -0.153  59.664  0.00  0.00    -0.223 OA
ATOM      5  C   UNL     1      -8.093   0.304  60.805  0.00  0.00    +0.071 C 
ATOM      6  C   UNL     1      -7.541  -0.901  59.897  0.00  0.00    +0.006 C 
ATOM      7  C   UNL     1      -9.257  -0.513  61.760  0.00  0.00    +0.171 C 
ATOM      8  C   UNL     1      -9.301  -1.951  60.943  0.00  0.00    +0.047 C 
ATOM      9  O   UNL     1      -8.014  -0.971  62.490  0.00  0.00    -0.452 OA
ATOM     10  C   UNL     1      -8.305  -1.564  63.685  0.00  0.00    +0.319 C 
ATOM     11  O   UNL     1      -7.149  -2.043  63.667  0.00  0.00    -0.250 OA
ATOM     12  C   UNL     1      -8.705  -0.644  64.758  0.00  0.00    +0.142 C 
ATOM     13  C   UNL     1      -8.148  -1.627  65.990  0.00  0.00    +0.166 C 
ATOM     14  O   UNL     1      -6.733  -1.823  65.469  0.00  0.00    -0.222 OA
ATOM     15  C   UNL     1      -7.549  -0.380  66.894  0.00  0.00    +0.066 C 
ATOM     16  C   UNL     1      -6.017  -0.976  67.177  0.00  0.00    +0.157 C 
ATOM     17  O   UNL     1      -5.384   0.294  66.635  0.00  0.00    -0.223 OA
ATOM     18  C   UNL     1      -6.028  -0.503  68.742  0.00  0.00    +0.066 C 
ATOM     19  C   UNL     1      -6.545   1.054  68.572  0.00  0.00    +0.155 C 
ATOM     20  O   UNL     1      -7.393   0.928  69.826  0.00  0.00    -0.223 OA
ATOM     21  C   UNL     1      -5.177   1.562  69.330  0.00  0.00    +0.036 C 
ATOM     22  C   UNL     1      -5.236   1.125  70.735  0.00  0.00    +0.038 C 
ATOM     23  C   UNL     1      -4.998   2.437  71.705  0.00  0.00    +0.183 C 
ATOM     24  O   UNL     1      -3.612   2.629  71.118  0.00  0.00    -0.220 OA
ATOM     25  C   UNL     1      -5.692   3.535  70.539  0.00  0.00    +0.189 C 
ATOM     26  O   UNL     1      -6.840   3.814  71.496  0.00  0.00    -0.220 OA
ATOM     27  C   UNL     1      -4.760   4.759  71.118  0.00  0.00    +0.100 C 
ATOM     28  C   UNL     1      -5.589   5.872  71.483  0.00  0.00    +0.156 C 
ATOM     29  O   UNL     1      -5.400   6.355  72.598  0.00  0.00    -0.296 OA
ATOM     30  C   UNL     1      -6.753   6.239  70.692  0.00  0.00    +0.098 C 
ATOM     31  C   UNL     1      -6.237   7.322  69.561  0.00  0.00    +0.172 C 
ATOM     32  O   UNL     1      -7.686   7.629  69.236  0.00  0.00    -0.222 OA
ATOM     33  C   UNL     1      -6.003   8.518  70.776  0.00  0.00    +0.164 C 
ATOM     34  C   UNL     1      -7.179   9.620  70.200  0.00  0.00    +0.168 C 
ATOM     35  O   UNL     1      -6.459  10.774  70.867  0.00  0.00    -0.222 OA
ATOM     36  C   UNL     1      -6.449   9.833  68.745  0.00  0.00    +0.068 C 
ATOM     37  C   UNL     1      -7.747  10.560  68.022  0.00  0.00    +0.142 C 
ATOM     38  C   UNL     1      -7.263  10.031  66.556  0.00  0.00    +0.003 C 
ATOM     39  C   UNL     1      -7.445  10.729  65.531  0.00  0.00    -0.002 C 
ATOM     40  C   UNL     1      -8.802  10.707  65.019  0.00  0.00    -0.000 C 
ATOM     41  C   UNL     1      -9.022   9.663  64.264  0.00  0.00    -0.000 C 
ATOM     42  C   UNL     1      -9.435  10.253  62.962  0.00  0.00    -0.000 C 
ATOM     43  C   UNL     1      -8.406  10.382  62.160  0.00  0.00    -0.000 C 
ATOM     44  C   UNL     1      -8.492   9.516  60.968  0.00  0.00    -0.005 C 
ATOM     45  C   UNL     1      -9.440   8.594  60.869  0.00  0.00    -0.026 C 
ATOM     46  C   UNL     1      -9.877   7.996  59.604  0.00  0.00    +0.031 C 
ATOM     47  C   UNL     1     -10.858   6.887  59.882  0.00  0.00    +0.031 C 
ATOM     48  C   UNL     1     -10.191   5.651  60.326  0.00  0.00    -0.026 C 
ATOM     49  C   UNL     1      -9.112   5.269  59.640  0.00  0.00    -0.005 C 
ATOM     50  C   UNL     1      -9.043   3.821  59.404  0.00  0.00    -0.005 C 
ATOM     51  C   UNL     1      -8.969   3.092  60.453  0.00  0.00    -0.024 C 
ENDROOT
BRANCH  33  52
ATOM     52  C   UNL     1      -4.718   9.110  70.063  0.00  0.00    +0.369 C 
ATOM     53  O   UNL     1      -3.857   9.943  70.727  0.00  0.00    -0.245 OA
ATOM     54  O   UNL     1      -3.999   8.306  69.410  0.00  0.00    -0.245 OA
ENDBRANCH  33  52
BRANCH  37  55
ATOM     55  O   UNL     1      -6.950  11.845  67.926  0.00  0.00    -0.327 OA
BRANCH  55  56
ATOM     56  C   UNL     1      -7.938  12.697  68.743  0.00  0.00    +0.268 C 
ATOM     57  C   UNL     1      -6.770  13.844  69.356  0.00  0.00    +0.228 C 
ATOM     58  O   UNL     1      -5.751  13.941  68.225  0.00  0.00    -0.216 OA
ATOM     59  C   UNL     1      -7.742  15.203  69.034  0.00  0.00    +0.160 C 
ATOM     60  N   UNL     1      -6.683  16.096  69.704  0.00  0.00    -0.127 NA
ATOM     61  C   UNL     1      -7.153  15.574  67.507  0.00  0.00    +0.199 C 
ATOM     62  O   UNL     1      -8.475  15.666  66.818  0.00  0.00    -0.219 OA
ATOM     63  C   UNL     1      -7.071  13.874  67.221  0.00  0.00    +0.150 C 
ATOM     64  C   UNL     1      -6.692  13.636  68.775  0.00  0.00    +0.035 C 
ATOM     65  O   UNL     1      -8.479  13.497  67.555  0.00  0.00    -0.328 OA
ENDBRANCH  55  56
ENDBRANCH  37  55
TORSDOF 3
ENDMDL
MODEL 8
REMARK VINA RESULT:      -4.8      4.917      8.893
REMARK  Name = 
REMARK  3 active torsions:
REMARK  status: ('A' for Active; 'I' for Inactive)
REMARK    1  A    between atoms: C_17  and  O_18
REMARK    2  A    between atoms: O_18  and  C_19
REMARK    3  A    between atoms: C_32  and  C_33
REMARK                            x       y       z     vdW  Elec       q    Type
REMARK                         _______ _______ _______ _____ _____    ______ ____
ROOT
ATOM      1  C   UNL     1     -12.438  -1.401  72.135  0.00  0.00    +0.007 C 
ATOM      2  C   UNL     1     -11.290  -0.391  72.669  0.00  0.00    +0.053 C 
ATOM      3  C   UNL     1     -10.731  -1.596  73.754  0.00  0.00    +0.159 C 
ATOM      4  O   UNL     1     -11.919  -1.387  74.647  0.00  0.00    -0.223 OA
ATOM      5  C   UNL     1      -9.665  -0.482  74.462  0.00  0.00    +0.071 C 
ATOM      6  C   UNL     1      -9.375  -1.414  75.737  0.00  0.00    +0.006 C 
ATOM      7  C   UNL     1     -10.818   0.608  75.109  0.00  0.00    +0.171 C 
ATOM      8  C   UNL     1     -11.136  -0.167  76.537  0.00  0.00    +0.047 C 
ATOM      9  O   UNL     1      -9.575   1.215  75.721  0.00  0.00    -0.452 OA
ATOM     10  C   UNL     1      -9.813   2.446  76.259  0.00  0.00    +0.319 C 
ATOM     11  O   UNL     1      -8.737   2.319  76.887  0.00  0.00    -0.250 OA
ATOM     12  C   UNL     1      -9.973   3.534  75.285  0.00  0.00    +0.142 C 
ATOM     13  C   UNL     1      -9.421   4.724  76.321  0.00  0.00    +0.166 C 
ATOM     14  O   UNL     1      -8.108   4.063  76.708  0.00  0.00    -0.222 OA
ATOM     15  C   UNL     1      -8.572   5.531  75.157  0.00  0.00    +0.066 C 
ATOM     16  C   UNL     1      -7.110   5.667  75.947  0.00  0.00    +0.157 C 
ATOM     17  O   UNL     1      -6.378   5.034  74.777  0.00  0.00    -0.223 OA
ATOM     18  C   UNL     1      -6.893   7.214  75.462  0.00  0.00    +0.066 C 
ATOM     19  C   UNL     1      -7.218   7.063  73.852  0.00  0.00    +0.155 C 
ATOM     20  O   UNL     1      -7.937   8.401  73.854  0.00  0.00    -0.223 OA
ATOM     21  C   UNL     1      -5.723   7.663  73.523  0.00  0.00    +0.036 C 
ATOM     22  C   UNL     1      -5.688   9.075  73.936  0.00  0.00    +0.038 C 
ATOM     23  C   UNL     1      -5.180   9.985  72.658  0.00  0.00    +0.183 C 
ATOM     24  O   UNL     1      -3.851   9.253  72.656  0.00  0.00    -0.220 OA
ATOM     25  C   UNL     1      -5.844   8.872  71.489  0.00  0.00    +0.189 C 
ATOM     26  O   UNL     1      -6.838   9.938  71.051  0.00  0.00    -0.220 OA
ATOM     27  C   UNL     1      -4.704   9.323  70.393  0.00  0.00    +0.100 C 
ATOM     28  C   UNL     1      -5.338   9.747  69.177  0.00  0.00    +0.156 C 
ATOM     29  O   UNL     1      -4.970  10.825  68.713  0.00  0.00    -0.296 OA
ATOM     30  C   UNL     1      -6.521   9.073  68.666  0.00  0.00    +0.098 C 
ATOM     31  C   UNL     1      -5.991   7.870  67.671  0.00  0.00    +0.172 C 
ATOM     32  O   UNL     1      -7.414   7.690  67.179  0.00  0.00    -0.222 OA
ATOM     33  C   UNL     1      -5.476   9.026  66.506  0.00  0.00    +0.164 C 
ATOM     34  C   UNL     1      -6.552   8.551  65.263  0.00  0.00    +0.168 C 
ATOM     35  O   UNL     1      -5.621   9.112  64.208  0.00  0.00    -0.222 OA
ATOM     36  C   UNL     1      -5.959   7.023  65.162  0.00  0.00    +0.068 C 
ATOM     37  C   UNL     1      -7.221   6.422  64.277  0.00  0.00    +0.142 C 
ATOM     38  C   UNL     1      -6.968   4.927  64.878  0.00  0.00    +0.003 C 
ATOM     39  C   UNL     1      -7.165   3.910  64.171  0.00  0.00    -0.002 C 
ATOM     40  C   UNL     1      -8.560   3.543  64.019  0.00  0.00    -0.000 C 
ATOM     41  C   UNL     1      -8.993   2.839  65.032  0.00  0.00    -0.000 C 
ATOM     42  C   UNL     1      -9.462   1.573  64.404  0.00  0.00    -0.000 C 
ATOM     43  C   UNL     1      -8.516   0.666  64.419  0.00  0.00    -0.000 C 
ATOM     44  C   UNL     1      -8.839  -0.491  65.277  0.00  0.00    -0.005 C 
ATOM     45  C   UNL     1      -9.905  -0.469  66.067  0.00  0.00    -0.026 C 
ATOM     46  C   UNL     1     -10.547  -1.667  66.614  0.00  0.00    +0.031 C 
ATOM     47  C   UNL     1     -11.630  -1.264  67.580  0.00  0.00    +0.031 C 
ATOM     48  C   UNL     1     -11.086  -0.863  68.890  0.00  0.00    -0.026 C 
ATOM     49  C   UNL     1     -10.145  -1.648  69.417  0.00  0.00    -0.005 C 
ATOM     50  C   UNL     1     -10.292  -1.857  70.863  0.00  0.00    -0.005 C 
ATOM     51  C   UNL     1     -10.203  -0.805  71.587  0.00  0.00    -0.024 C 
ENDROOT
BRANCH  33  52
ATOM     52  C   UNL     1      -4.208   8.171  66.095  0.00  0.00    +0.369 C 
ATOM     53  O   UNL     1      -3.172   8.726  65.392  0.00  0.00    -0.245 OA
ATOM     54  O   UNL     1      -3.682   7.451  66.989  0.00  0.00    -0.245 OA
ENDBRANCH  33  52
BRANCH  37  55
ATOM     55  O   UNL     1      -6.277   6.214  63.109  0.00  0.00    -0.327 OA
BRANCH  55  56
ATOM     56  C   UNL     1      -7.222   6.802  62.045  0.00  0.00    +0.268 C 
ATOM     57  C   UNL     1      -6.018   7.728  61.181  0.00  0.00    +0.228 C 
ATOM     58  O   UNL     1      -4.756   6.884  61.332  0.00  0.00    -0.216 OA
ATOM     59  C   UNL     1      -6.554   7.236  59.643  0.00  0.00    +0.160 C 
ATOM     60  N   UNL     1      -5.522   8.180  59.002  0.00  0.00    -0.127 NA
ATOM     61  C   UNL     1      -5.540   5.915  59.437  0.00  0.00    +0.199 C 
ATOM     62  O   UNL     1      -6.596   4.930  59.059  0.00  0.00    -0.219 OA
ATOM     63  C   UNL     1      -5.768   5.587  61.115  0.00  0.00    +0.150 C 
ATOM     64  C   UNL     1      -5.847   7.175  61.410  0.00  0.00    +0.035 C 
ATOM     65  O   UNL     1      -7.263   5.551  61.161  0.00  0.00    -0.328 OA
ENDBRANCH  55  56
ENDBRANCH  37  55
TORSDOF 3
ENDMDL
MODEL 9
REMARK VINA RESULT:      -4.8      5.314      8.660
REMARK  Name = 
REMARK  3 active torsions:
REMARK  status: ('A' for Active; 'I' for Inactive)
REMARK    1  A    between atoms: C_17  and  O_18
REMARK    2  A    between atoms: O_18  and  C_19
REMARK    3  A    between atoms: C_32  and  C_33
REMARK                            x       y       z     vdW  Elec       q    Type
REMARK                         _______ _______ _______ _____ _____    ______ ____
ROOT
ATOM      1  C   UNL     1      -8.637  -1.787  67.305  0.00  0.00    +0.007 C 
ATOM      2  C   UNL     1      -8.714  -0.466  66.371  0.00  0.00    +0.053 C 
ATOM      3  C   UNL     1     -10.189  -1.024  65.697  0.00  0.00    +0.159 C 
ATOM      4  O   UNL     1      -9.464  -2.062  64.892  0.00  0.00    -0.223 OA
ATOM      5  C   UNL     1     -10.170   0.246  64.572  0.00  0.00    +0.071 C 
ATOM      6  C   UNL     1     -11.310  -0.414  63.654  0.00  0.00    +0.006 C 
ATOM      7  C   UNL     1      -8.758  -0.191  63.706  0.00  0.00    +0.171 C 
ATOM      8  C   UNL     1      -9.427  -1.271  62.646  0.00  0.00    +0.047 C 
ATOM      9  O   UNL     1      -9.212   0.950  62.823  0.00  0.00    -0.452 OA
ATOM     10  C   UNL     1      -8.249   1.329  61.934  0.00  0.00    +0.319 C 
ATOM     11  O   UNL     1      -9.150   1.914  61.291  0.00  0.00    -0.250 OA
ATOM     12  C   UNL     1      -7.136   2.097  62.507  0.00  0.00    +0.142 C 
ATOM     13  C   UNL     1      -6.803   2.925  61.094  0.00  0.00    +0.166 C 
ATOM     14  O   UNL     1      -8.205   3.452  60.833  0.00  0.00    -0.222 OA
ATOM     15  C   UNL     1      -6.498   4.362  61.850  0.00  0.00    +0.066 C 
ATOM     16  C   UNL     1      -7.478   5.352  60.934  0.00  0.00    +0.157 C 
ATOM     17  O   UNL     1      -8.177   5.871  62.179  0.00  0.00    -0.223 OA
ATOM     18  C   UNL     1      -6.359   6.542  60.864  0.00  0.00    +0.066 C 
ATOM     19  C   UNL     1      -5.940   6.643  62.456  0.00  0.00    +0.155 C 
ATOM     20  O   UNL     1      -4.485   6.858  62.078  0.00  0.00    -0.223 OA
ATOM     21  C   UNL     1      -6.367   8.231  62.439  0.00  0.00    +0.036 C 
ATOM     22  C   UNL     1      -5.415   8.958  61.584  0.00  0.00    +0.038 C 
ATOM     23  C   UNL     1      -4.795  10.222  62.443  0.00  0.00    +0.183 C 
ATOM     24  O   UNL     1      -6.182  10.826  62.569  0.00  0.00    -0.220 OA
ATOM     25  C   UNL     1      -4.972   9.387  63.966  0.00  0.00    +0.189 C 
ATOM     26  O   UNL     1      -3.459   9.354  64.114  0.00  0.00    -0.220 OA
ATOM     27  C   UNL     1      -5.131  10.824  64.750  0.00  0.00    +0.100 C 
ATOM     28  C   UNL     1      -4.168  10.911  65.809  0.00  0.00    +0.156 C 
ATOM     29  O   UNL     1      -3.498  11.942  65.859  0.00  0.00    -0.296 OA
ATOM     30  C   UNL     1      -3.822   9.749  66.614  0.00  0.00    +0.098 C 
ATOM     31  C   UNL     1      -4.856   9.737  67.898  0.00  0.00    +0.172 C 
ATOM     32  O   UNL     1      -3.992   8.670  68.545  0.00  0.00    -0.222 OA
ATOM     33  C   UNL     1      -4.078  11.117  68.570  0.00  0.00    +0.164 C 
ATOM     34  C   UNL     1      -3.503  10.352  69.989  0.00  0.00    +0.168 C 
ATOM     35  O   UNL     1      -3.457  11.680  70.716  0.00  0.00    -0.222 OA
ATOM     36  C   UNL     1      -5.001   9.957  70.534  0.00  0.00    +0.068 C 
ATOM     37  C   UNL     1      -4.476   8.879  71.674  0.00  0.00    +0.142 C 
ATOM     38  C   UNL     1      -5.877   8.049  71.576  0.00  0.00    +0.003 C 
ATOM     39  C   UNL     1      -6.370   7.505  72.592  0.00  0.00    -0.002 C 
ATOM     40  C   UNL     1      -5.734   6.259  72.978  0.00  0.00    -0.000 C 
ATOM     41  C   UNL     1      -6.194   5.245  72.294  0.00  0.00    -0.000 C 
ATOM     42  C   UNL     1      -6.719   4.326  73.341  0.00  0.00    -0.000 C 
ATOM     43  C   UNL     1      -7.998   4.528  73.542  0.00  0.00    -0.000 C 
ATOM     44  C   UNL     1      -8.834   3.379  73.142  0.00  0.00    -0.005 C 
ATOM     45  C   UNL     1      -8.306   2.355  72.485  0.00  0.00    -0.026 C 
ATOM     46  C   UNL     1      -8.909   1.021  72.420  0.00  0.00    +0.031 C 
ATOM     47  C   UNL     1      -8.120   0.155  71.473  0.00  0.00    +0.031 C 
ATOM     48  C   UNL     1      -8.428   0.449  70.062  0.00  0.00    -0.026 C 
ATOM     49  C   UNL     1      -9.717   0.579  69.743  0.00  0.00    -0.005 C 
ATOM     50  C   UNL     1     -10.075  -0.048  68.464  0.00  0.00    -0.005 C 
ATOM     51  C   UNL     1      -9.490   0.429  67.430  0.00  0.00    -0.024 C 
ENDROOT
BRANCH  33  52
ATOM     52  C   UNL     1      -5.436  11.714  69.126  0.00  0.00    +0.369 C 
ATOM     53  O   UNL     1      -5.527  13.019  69.530  0.00  0.00    -0.245 OA
ATOM     54  O   UNL     1      -6.485  11.474  68.468  0.00  0.00    -0.245 OA
ENDBRANCH  33  52
BRANCH  37  55
ATOM     55  O   UNL     1      -4.990   9.805  72.758  0.00  0.00    -0.327 OA
BRANCH  55  56
ATOM     56  C   UNL     1      -3.689   9.809  73.582  0.00  0.00    +0.268 C 
ATOM     57  C   UNL     1      -3.808  11.456  74.156  0.00  0.00    +0.228 C 
ATOM     58  O   UNL     1      -5.312  11.671  74.285  0.00  0.00    -0.216 OA
ATOM     59  C   UNL     1      -3.398  11.065  75.759  0.00  0.00    +0.160 C 
ATOM     60  N   UNL     1      -3.424  12.562  76.112  0.00  0.00    -0.127 NA
ATOM     61  C   UNL     1      -4.946  10.849  76.367  0.00  0.00    +0.199 C 
ATOM     62  O   UNL     1      -4.711   9.516  77.000  0.00  0.00    -0.219 OA
ATOM     63  C   UNL     1      -5.343  10.114  74.857  0.00  0.00    +0.150 C 
ATOM     64  C   UNL     1      -4.335  11.130  74.104  0.00  0.00    +0.035 C 
ATOM     65  O   UNL     1      -4.268   9.076  74.795  0.00  0.00    -0.328 OA
ENDBRANCH  55  56
ENDBRANCH  37  55
TORSDOF 3
ENDMDL
