MODEL 1
REMARK VINA RESULT:      -5.2      0.000      0.000
REMARK  Name = 
REMARK  3 active torsions:
REMARK  status: ('A' for Active; 'I' for Inactive)
REMARK    1  A    between atoms: N_2  and  C_3
REMARK    2  A    between atoms: C_3  and  C_4
REMARK    3  A    between atoms: C_4  and  C_6
REMARK                            x       y       z     vdW  Elec       q    Type
REMARK                         _______ _______ _______ _____ _____    ______ ____
ROOT
ATOM      1  C   UNL     1     -10.255  15.253  67.339  0.00  0.00    +0.013 A 
ATOM      2  C   UNL     1     -10.391  16.235  66.360  0.00  0.00    +0.044 A 
ATOM      3  C   UNL     1     -10.938  15.867  65.137  0.00  0.00    +0.234 A 
ATOM      4  O   UNL     1     -11.201  16.862  64.191  0.00  0.00    -0.283 OA
ATOM      5  C   UNL     1     -11.652  14.694  64.996  0.00  0.00    +0.234 A 
ATOM      6  O   UNL     1     -12.633  14.571  64.026  0.00  0.00    -0.283 OA
ATOM      7  C   UNL     1     -11.524  13.739  65.993  0.00  0.00    +0.045 A 
ATOM      8  C   UNL     1     -11.083  14.162  67.238  0.00  0.00    +0.002 A 
ENDROOT
BRANCH   1   9
ATOM      9  C   UNL     1     -10.354  15.975  68.827  0.00  0.00    +0.192 C 
ATOM     10  O   UNL     1     -11.214  17.137  68.258  0.00  0.00    -0.217 OA
BRANCH   9  11
ATOM     11  C   UNL     1     -11.738  15.090  69.207  0.00  0.00    +0.126 C 
BRANCH  11  13
ATOM     12  C   UNL     1     -11.710  15.697  71.458  0.00  0.00    +0.108 C 
ATOM     13  N   UNL     1     -12.369  15.952  70.207  0.00  0.00    -0.213 NA
ENDBRANCH  11  13
ENDBRANCH   9  11
ENDBRANCH   1   9
TORSDOF 3
ENDMDL
MODEL 2
REMARK VINA RESULT:      -5.2      3.346      5.050
REMARK  Name = 
REMARK  3 active torsions:
REMARK  status: ('A' for Active; 'I' for Inactive)
REMARK    1  A    between atoms: N_2  and  C_3
REMARK    2  A    between atoms: C_3  and  C_4
REMARK    3  A    between atoms: C_4  and  C_6
REMARK                            x       y       z     vdW  Elec       q    Type
REMARK                         _______ _______ _______ _____ _____    ______ ____
ROOT
ATOM      1  C   UNL     1     -11.743  13.381  65.404  0.00  0.00    +0.013 A 
ATOM      2  C   UNL     1     -11.999  14.462  64.565  0.00  0.00    +0.044 A 
ATOM      3  C   UNL     1     -11.374  15.670  64.848  0.00  0.00    +0.234 A 
ATOM      4  O   UNL     1     -11.515  16.729  63.946  0.00  0.00    -0.283 OA
ATOM      5  C   UNL     1     -10.277  15.731  65.684  0.00  0.00    +0.234 A 
ATOM      6  O   UNL     1      -9.336  16.739  65.552  0.00  0.00    -0.283 OA
ATOM      7  C   UNL     1     -10.024  14.634  66.493  0.00  0.00    +0.045 A 
ATOM      8  C   UNL     1     -10.570  13.416  66.118  0.00  0.00    +0.002 A 
ENDROOT
BRANCH   1   9
ATOM      9  C   UNL     1     -11.896  11.984  64.526  0.00  0.00    +0.192 C 
ATOM     10  O   UNL     1     -12.719  12.711  63.427  0.00  0.00    -0.217 OA
BRANCH   9  11
ATOM     11  C   UNL     1     -10.457  12.297  63.704  0.00  0.00    +0.126 C 
BRANCH  11  13
ATOM     12  C   UNL     1      -9.783  10.157  64.338  0.00  0.00    +0.108 C 
ATOM     13  N   UNL     1     -10.115  10.968  63.198  0.00  0.00    -0.213 NA
ENDBRANCH  11  13
ENDBRANCH   9  11
ENDBRANCH   1   9
TORSDOF 3
ENDMDL
MODEL 3
REMARK VINA RESULT:      -5.0      3.158      4.529
REMARK  Name = 
REMARK  3 active torsions:
REMARK  status: ('A' for Active; 'I' for Inactive)
REMARK    1  A    between atoms: N_2  and  C_3
REMARK    2  A    between atoms: C_3  and  C_4
REMARK    3  A    between atoms: C_4  and  C_6
REMARK                            x       y       z     vdW  Elec       q    Type
REMARK                         _______ _______ _______ _____ _____    ______ ____
ROOT
ATOM      1  C   UNL     1     -10.874  13.875  66.328  0.00  0.00    +0.013 A 
ATOM      2  C   UNL     1     -11.325  14.898  65.497  0.00  0.00    +0.044 A 
ATOM      3  C   UNL     1     -10.641  16.107  65.519  0.00  0.00    +0.234 A 
ATOM      4  O   UNL     1     -10.997  17.099  64.601  0.00  0.00    -0.283 OA
ATOM      5  C   UNL     1      -9.368  16.201  66.047  0.00  0.00    +0.234 A 
ATOM      6  O   UNL     1      -8.484  17.171  65.605  0.00  0.00    -0.283 OA
ATOM      7  C   UNL     1      -8.927  15.161  66.851  0.00  0.00    +0.045 A 
ATOM      8  C   UNL     1      -9.559  13.933  66.720  0.00  0.00    +0.002 A 
ENDROOT
BRANCH   1   9
ATOM      9  C   UNL     1     -11.252  12.422  65.628  0.00  0.00    +0.192 C 
ATOM     10  O   UNL     1     -12.010  11.954  66.901  0.00  0.00    -0.217 OA
BRANCH   9  11
ATOM     11  C   UNL     1     -12.670  13.062  64.976  0.00  0.00    +0.126 C 
BRANCH  11  13
ATOM     12  C   UNL     1     -11.593  11.800  63.337  0.00  0.00    +0.108 C 
ATOM     13  N   UNL     1     -12.889  12.177  63.831  0.00  0.00    -0.213 NA
ENDBRANCH  11  13
ENDBRANCH   9  11
ENDBRANCH   1   9
TORSDOF 3
ENDMDL
MODEL 4
REMARK VINA RESULT:      -5.0      2.672      4.620
REMARK  Name = 
REMARK  3 active torsions:
REMARK  status: ('A' for Active; 'I' for Inactive)
REMARK    1  A    between atoms: N_2  and  C_3
REMARK    2  A    between atoms: C_3  and  C_4
REMARK    3  A    between atoms: C_4  and  C_6
REMARK                            x       y       z     vdW  Elec       q    Type
REMARK                         _______ _______ _______ _____ _____    ______ ____
ROOT
ATOM      1  C   UNL     1     -10.506  14.100  66.605  0.00  0.00    +0.013 A 
ATOM      2  C   UNL     1     -11.364  14.448  67.646  0.00  0.00    +0.044 A 
ATOM      3  C   UNL     1     -11.235  15.714  68.202  0.00  0.00    +0.234 A 
ATOM      4  O   UNL     1     -12.169  16.128  69.157  0.00  0.00    -0.283 OA
ATOM      5  C   UNL     1     -10.558  16.721  67.543  0.00  0.00    +0.234 A 
ATOM      6  O   UNL     1     -10.871  18.052  67.763  0.00  0.00    -0.283 OA
ATOM      7  C   UNL     1      -9.729  16.358  66.493  0.00  0.00    +0.045 A 
ATOM      8  C   UNL     1      -9.958  15.132  65.885  0.00  0.00    +0.002 A 
ENDROOT
BRANCH   1   9
ATOM      9  C   UNL     1     -11.275  13.001  65.633  0.00  0.00    +0.192 C 
ATOM     10  O   UNL     1     -12.061  12.415  66.838  0.00  0.00    -0.217 OA
BRANCH   9  11
ATOM     11  C   UNL     1     -12.517  14.097  65.312  0.00  0.00    +0.126 C 
BRANCH  11  13
ATOM     12  C   UNL     1     -12.131  12.761  63.440  0.00  0.00    +0.108 C 
ATOM     13  N   UNL     1     -12.556  14.071  63.849  0.00  0.00    -0.213 NA
ENDBRANCH  11  13
ENDBRANCH   9  11
ENDBRANCH   1   9
TORSDOF 3
ENDMDL
MODEL 5
REMARK VINA RESULT:      -4.9      1.659      2.219
REMARK  Name = 
REMARK  3 active torsions:
REMARK  status: ('A' for Active; 'I' for Inactive)
REMARK    1  A    between atoms: N_2  and  C_3
REMARK    2  A    between atoms: C_3  and  C_4
REMARK    3  A    between atoms: C_4  and  C_6
REMARK                            x       y       z     vdW  Elec       q    Type
REMARK                         _______ _______ _______ _____ _____    ______ ____
ROOT
ATOM      1  C   UNL     1     -11.200  13.354  66.418  0.00  0.00    +0.013 A 
ATOM      2  C   UNL     1     -10.254  14.375  66.484  0.00  0.00    +0.044 A 
ATOM      3  C   UNL     1     -10.235  15.315  65.461  0.00  0.00    +0.234 A 
ATOM      4  O   UNL     1      -9.383  16.417  65.575  0.00  0.00    -0.283 OA
ATOM      5  C   UNL     1     -11.311  15.468  64.608  0.00  0.00    +0.234 A 
ATOM      6  O   UNL     1     -11.562  16.681  63.991  0.00  0.00    -0.283 OA
ATOM      7  C   UNL     1     -12.254  14.453  64.575  0.00  0.00    +0.045 A 
ATOM      8  C   UNL     1     -12.323  13.600  65.667  0.00  0.00    +0.002 A 
ENDROOT
BRANCH   1   9
ATOM      9  C   UNL     1     -11.573  12.880  67.960  0.00  0.00    +0.192 C 
ATOM     10  O   UNL     1     -10.107  13.092  68.430  0.00  0.00    -0.217 OA
BRANCH   9  11
ATOM     11  C   UNL     1     -11.977  14.460  68.390  0.00  0.00    +0.126 C 
BRANCH  11  13
ATOM     12  C   UNL     1     -12.374  15.607  70.381  0.00  0.00    +0.108 C 
ATOM     13  N   UNL     1     -11.743  14.437  69.834  0.00  0.00    -0.213 NA
ENDBRANCH  11  13
ENDBRANCH   9  11
ENDBRANCH   1   9
TORSDOF 3
ENDMDL
MODEL 6
REMARK VINA RESULT:      -4.8      3.076      5.980
REMARK  Name = 
REMARK  3 active torsions:
REMARK  status: ('A' for Active; 'I' for Inactive)
REMARK    1  A    between atoms: N_2  and  C_3
REMARK    2  A    between atoms: C_3  and  C_4
REMARK    3  A    between atoms: C_4  and  C_6
REMARK                            x       y       z     vdW  Elec       q    Type
REMARK                         _______ _______ _______ _____ _____    ______ ____
ROOT
ATOM      1  C   UNL     1     -11.673  14.432  70.147  0.00  0.00    +0.013 A 
ATOM      2  C   UNL     1     -12.687  13.718  70.781  0.00  0.00    +0.044 A 
ATOM      3  C   UNL     1     -13.124  14.165  72.021  0.00  0.00    +0.234 A 
ATOM      4  O   UNL     1     -14.227  13.540  72.612  0.00  0.00    -0.283 OA
ATOM      5  C   UNL     1     -12.847  15.445  72.460  0.00  0.00    +0.234 A 
ATOM      6  O   UNL     1     -13.683  16.084  73.360  0.00  0.00    -0.283 OA
ATOM      7  C   UNL     1     -11.852  16.149  71.801  0.00  0.00    +0.045 A 
ATOM      8  C   UNL     1     -11.519  15.746  70.516  0.00  0.00    +0.002 A 
ENDROOT
BRANCH   1   9
ATOM      9  C   UNL     1     -11.851  14.261  68.510  0.00  0.00    +0.192 C 
ATOM     10  O   UNL     1     -10.539  15.048  68.238  0.00  0.00    -0.217 OA
BRANCH   9  11
ATOM     11  C   UNL     1     -11.010  12.799  68.532  0.00  0.00    +0.126 C 
BRANCH  11  13
ATOM     12  C   UNL     1     -11.752  12.413  66.356  0.00  0.00    +0.108 C 
ATOM     13  N   UNL     1     -11.876  11.952  67.712  0.00  0.00    -0.213 NA
ENDBRANCH  11  13
ENDBRANCH   9  11
ENDBRANCH   1   9
TORSDOF 3
ENDMDL
MODEL 7
REMARK VINA RESULT:      -4.8      2.375      3.217
REMARK  Name = 
REMARK  3 active torsions:
REMARK  status: ('A' for Active; 'I' for Inactive)
REMARK    1  A    between atoms: N_2  and  C_3
REMARK    2  A    between atoms: C_3  and  C_4
REMARK    3  A    between atoms: C_4  and  C_6
REMARK                            x       y       z     vdW  Elec       q    Type
REMARK                         _______ _______ _______ _____ _____    ______ ____
ROOT
ATOM      1  C   UNL     1     -11.676  14.659  69.811  0.00  0.00    +0.013 A 
ATOM      2  C   UNL     1     -11.705  15.104  68.491  0.00  0.00    +0.044 A 
ATOM      3  C   UNL     1     -11.549  14.162  67.482  0.00  0.00    +0.234 A 
ATOM      4  O   UNL     1     -11.704  14.568  66.154  0.00  0.00    -0.283 OA
ATOM      5  C   UNL     1     -11.721  12.814  67.727  0.00  0.00    +0.234 A 
ATOM      6  O   UNL     1     -12.118  11.953  66.718  0.00  0.00    -0.283 OA
ATOM      7  C   UNL     1     -11.715  12.395  69.048  0.00  0.00    +0.045 A 
ATOM      8  C   UNL     1     -11.988  13.340  70.026  0.00  0.00    +0.002 A 
ENDROOT
BRANCH   1   9
ATOM      9  C   UNL     1     -12.605  15.677  70.731  0.00  0.00    +0.192 C 
ATOM     10  O   UNL     1     -13.634  14.550  71.022  0.00  0.00    -0.217 OA
BRANCH   9  11
ATOM     11  C   UNL     1     -11.730  15.285  72.118  0.00  0.00    +0.126 C 
BRANCH  11  13
ATOM     12  C   UNL     1     -12.479  15.582  74.307  0.00  0.00    +0.108 C 
ATOM     13  N   UNL     1     -12.236  16.274  73.070  0.00  0.00    -0.213 NA
ENDBRANCH  11  13
ENDBRANCH   9  11
ENDBRANCH   1   9
TORSDOF 3
ENDMDL
MODEL 8
REMARK VINA RESULT:      -4.8      3.084      5.216
REMARK  Name = 
REMARK  3 active torsions:
REMARK  status: ('A' for Active; 'I' for Inactive)
REMARK    1  A    between atoms: N_2  and  C_3
REMARK    2  A    between atoms: C_3  and  C_4
REMARK    3  A    between atoms: C_4  and  C_6
REMARK                            x       y       z     vdW  Elec       q    Type
REMARK                         _______ _______ _______ _____ _____    ______ ____
ROOT
ATOM      1  C   UNL     1     -10.867  13.708  67.843  0.00  0.00    +0.013 A 
ATOM      2  C   UNL     1     -11.431  13.082  68.952  0.00  0.00    +0.044 A 
ATOM      3  C   UNL     1     -11.893  13.883  69.989  0.00  0.00    +0.234 A 
ATOM      4  O   UNL     1     -12.578  13.283  71.050  0.00  0.00    -0.283 OA
ATOM      5  C   UNL     1     -12.127  15.232  69.804  0.00  0.00    +0.234 A 
ATOM      6  O   UNL     1     -13.062  15.903  70.574  0.00  0.00    -0.283 OA
ATOM      7  C   UNL     1     -11.579  15.831  68.681  0.00  0.00    +0.045 A 
ATOM      8  C   UNL     1     -11.234  15.012  67.616  0.00  0.00    +0.002 A 
ENDROOT
BRANCH   1   9
ATOM      9  C   UNL     1     -11.114  12.750  66.515  0.00  0.00    +0.192 C 
ATOM     10  O   UNL     1     -12.056  11.807  67.312  0.00  0.00    -0.217 OA
BRANCH   9  11
ATOM     11  C   UNL     1     -12.421  13.699  66.026  0.00  0.00    +0.126 C 
BRANCH  11  13
ATOM     12  C   UNL     1     -12.035  12.910  63.866  0.00  0.00    +0.108 C 
ATOM     13  N   UNL     1     -12.982  12.886  64.947  0.00  0.00    -0.213 NA
ENDBRANCH  11  13
ENDBRANCH   9  11
ENDBRANCH   1   9
TORSDOF 3
ENDMDL
MODEL 9
REMARK VINA RESULT:      -4.7      2.718      3.477
REMARK  Name = 
REMARK  3 active torsions:
REMARK  status: ('A' for Active; 'I' for Inactive)
REMARK    1  A    between atoms: N_2  and  C_3
REMARK    2  A    between atoms: C_3  and  C_4
REMARK    3  A    between atoms: C_4  and  C_6
REMARK                            x       y       z     vdW  Elec       q    Type
REMARK                         _______ _______ _______ _____ _____    ______ ____
ROOT
ATOM      1  C   UNL     1     -11.090  13.394  66.471  0.00  0.00    +0.013 A 
ATOM      2  C   UNL     1     -10.195  14.460  66.534  0.00  0.00    +0.044 A 
ATOM      3  C   UNL     1     -10.212  15.388  65.501  0.00  0.00    +0.234 A 
ATOM      4  O   UNL     1      -9.416  16.532  65.610  0.00  0.00    -0.283 OA
ATOM      5  C   UNL     1     -11.286  15.480  64.636  0.00  0.00    +0.234 A 
ATOM      6  O   UNL     1     -11.589  16.673  64.003  0.00  0.00    -0.283 OA
ATOM      7  C   UNL     1     -12.179  14.420  64.606  0.00  0.00    +0.045 A 
ATOM      8  C   UNL     1     -12.216  13.577  65.707  0.00  0.00    +0.002 A 
ENDROOT
BRANCH   1   9
ATOM      9  C   UNL     1     -11.454  12.919  68.015  0.00  0.00    +0.192 C 
ATOM     10  O   UNL     1     -12.042  11.572  67.512  0.00  0.00    -0.217 OA
BRANCH   9  11
ATOM     11  C   UNL     1      -9.928  12.224  68.203  0.00  0.00    +0.126 C 
BRANCH  11  13
ATOM     12  C   UNL     1      -9.235  10.285  69.297  0.00  0.00    +0.108 C 
ATOM     13  N   UNL     1     -10.276  10.827  68.467  0.00  0.00    -0.213 NA
ENDBRANCH  11  13
ENDBRANCH   9  11
ENDBRANCH   1   9
TORSDOF 3
ENDMDL
