MODEL 1
REMARK VINA RESULT:      -4.6      0.000      0.000
REMARK  Name = 
REMARK  16 active torsions:
REMARK  status: ('A' for Active; 'I' for Inactive)
REMARK    1  A    between atoms: C_2  and  C_3
REMARK    2  A    between atoms: C_3  and  C_4
REMARK    3  A    between atoms: C_4  and  C_5
REMARK    4  A    between atoms: C_5  and  C_6
REMARK    5  A    between atoms: C_6  and  C_7
REMARK    6  A    between atoms: C_7  and  C_8
REMARK    7  A    between atoms: C_8  and  C_9
REMARK    8  A    between atoms: C_9  and  C_10
REMARK    9  A    between atoms: C_10  and  C_11
REMARK   10  A    between atoms: C_11  and  C_12
REMARK   11  A    between atoms: C_12  and  C_13
REMARK   12  A    between atoms: C_13  and  C_14
REMARK   13  A    between atoms: C_14  and  C_15
REMARK   14  A    between atoms: C_15  and  C_16
REMARK   15  A    between atoms: C_16  and  C_17
REMARK   16  A    between atoms: C_17  and  C_18
REMARK                            x       y       z     vdW  Elec       q    Type
REMARK                         _______ _______ _______ _____ _____    ______ ____
ROOT
ATOM      1  C   UNL     1     -13.026  12.321  71.140  0.00  0.00    +0.000 C 
ENDROOT
BRANCH   1   2
ATOM      2  C   UNL     1     -13.456  13.146  72.346  0.00  0.00    +0.000 C 
BRANCH   2   3
ATOM      3  C   UNL     1     -14.306  14.322  71.937  0.00  0.00    +0.000 C 
BRANCH   3   4
ATOM      4  C   UNL     1     -13.523  15.210  71.011  0.00  0.00    +0.000 C 
BRANCH   4   5
ATOM      5  C   UNL     1     -12.287  15.787  71.641  0.00  0.00    +0.000 C 
BRANCH   5   6
ATOM      6  C   UNL     1     -11.265  16.138  70.577  0.00  0.00    +0.000 C 
BRANCH   6   7
ATOM      7  C   UNL     1     -11.696  15.583  69.239  0.00  0.00    +0.000 C 
BRANCH   7   8
ATOM      8  C   UNL     1     -10.848  16.204  68.163  0.00  0.00    +0.000 C 
BRANCH   8  10
ATOM      9  C   UNL     1     -10.317  18.571  67.500  0.00  0.00    +0.000 C 
ATOM     10  C   UNL     1     -10.377  17.559  68.610  0.00  0.00    +0.000 C 
ENDBRANCH   8  10
ENDBRANCH   7   8
ENDBRANCH   6   7
ENDBRANCH   5   6
ENDBRANCH   4   5
ENDBRANCH   3   4
ENDBRANCH   2   3
ENDBRANCH   1   2
BRANCH   1  11
ATOM     11  C   UNL     1     -13.013  10.872  71.607  0.00  0.00    +0.000 C 
BRANCH  11  12
ATOM     12  C   UNL     1     -11.855  10.206  70.874  0.00  0.00    +0.000 C 
BRANCH  12  13
ATOM     13  C   UNL     1     -11.473  11.133  69.729  0.00  0.00    +0.000 C 
BRANCH  13  14
ATOM     14  C   UNL     1     -10.870  10.305  68.617  0.00  0.00    +0.000 C 
BRANCH  14  15
ATOM     15  C   UNL     1     -11.145  10.901  67.246  0.00  0.00    +0.001 C 
BRANCH  15  16
ATOM     16  C   UNL     1     -11.787  12.251  67.480  0.00  0.00    +0.012 C 
BRANCH  16  17
ATOM     17  C   UNL     1     -11.657  13.174  66.302  0.00  0.00    +0.114 C 
BRANCH  17  18
ATOM     18  C   UNL     1     -11.980  12.497  65.008  0.00  0.00    +0.365 C 
ATOM     19  O   UNL     1     -11.083  12.728  63.960  0.00  0.00    -0.246 OA
ATOM     20  O   UNL     1     -13.203  12.520  64.672  0.00  0.00    -0.246 OA
ENDBRANCH  17  18
ENDBRANCH  16  17
ENDBRANCH  15  16
ENDBRANCH  14  15
ENDBRANCH  13  14
ENDBRANCH  12  13
ENDBRANCH  11  12
ENDBRANCH   1  11
TORSDOF 16
ENDMDL
MODEL 2
REMARK VINA RESULT:      -4.5      1.857      3.473
REMARK  Name = 
REMARK  16 active torsions:
REMARK  status: ('A' for Active; 'I' for Inactive)
REMARK    1  A    between atoms: C_2  and  C_3
REMARK    2  A    between atoms: C_3  and  C_4
REMARK    3  A    between atoms: C_4  and  C_5
REMARK    4  A    between atoms: C_5  and  C_6
REMARK    5  A    between atoms: C_6  and  C_7
REMARK    6  A    between atoms: C_7  and  C_8
REMARK    7  A    between atoms: C_8  and  C_9
REMARK    8  A    between atoms: C_9  and  C_10
REMARK    9  A    between atoms: C_10  and  C_11
REMARK   10  A    between atoms: C_11  and  C_12
REMARK   11  A    between atoms: C_12  and  C_13
REMARK   12  A    between atoms: C_13  and  C_14
REMARK   13  A    between atoms: C_14  and  C_15
REMARK   14  A    between atoms: C_15  and  C_16
REMARK   15  A    between atoms: C_16  and  C_17
REMARK   16  A    between atoms: C_17  and  C_18
REMARK                            x       y       z     vdW  Elec       q    Type
REMARK                         _______ _______ _______ _____ _____    ______ ____
ROOT
ATOM      1  C   UNL     1     -11.929  11.859  68.886  0.00  0.00    +0.000 C 
ENDROOT
BRANCH   1   2
ATOM      2  C   UNL     1     -11.866  12.135  70.383  0.00  0.00    +0.000 C 
BRANCH   2   3
ATOM      3  C   UNL     1     -12.842  11.276  71.146  0.00  0.00    +0.000 C 
BRANCH   3   4
ATOM      4  C   UNL     1     -13.527  12.104  72.197  0.00  0.00    +0.000 C 
BRANCH   4   5
ATOM      5  C   UNL     1     -13.644  13.556  71.830  0.00  0.00    +0.000 C 
BRANCH   5   6
ATOM      6  C   UNL     1     -13.115  14.430  72.950  0.00  0.00    +0.000 C 
BRANCH   6   7
ATOM      7  C   UNL     1     -12.662  15.763  72.399  0.00  0.00    +0.000 C 
BRANCH   7   8
ATOM      8  C   UNL     1     -12.751  15.720  70.898  0.00  0.00    +0.000 C 
BRANCH   8  10
ATOM      9  C   UNL     1     -11.336  15.668  68.819  0.00  0.00    +0.000 C 
ATOM     10  C   UNL     1     -11.380  15.888  70.305  0.00  0.00    +0.000 C 
ENDBRANCH   8  10
ENDBRANCH   7   8
ENDBRANCH   6   7
ENDBRANCH   5   6
ENDBRANCH   4   5
ENDBRANCH   3   4
ENDBRANCH   2   3
ENDBRANCH   1   2
BRANCH   1  11
ATOM     11  C   UNL     1     -10.596  11.221  68.522  0.00  0.00    +0.000 C 
BRANCH  11  12
ATOM     12  C   UNL     1     -10.147  11.897  67.233  0.00  0.00    +0.000 C 
BRANCH  12  13
ATOM     13  C   UNL     1     -10.270  10.857  66.129  0.00  0.00    +0.000 C 
BRANCH  13  14
ATOM     14  C   UNL     1     -10.961  11.489  64.942  0.00  0.00    +0.000 C 
BRANCH  14  15
ATOM     15  C   UNL     1     -11.951  12.563  65.361  0.00  0.00    +0.001 C 
BRANCH  15  16
ATOM     16  C   UNL     1     -11.748  13.731  64.423  0.00  0.00    +0.012 C 
BRANCH  16  17
ATOM     17  C   UNL     1     -10.579  14.594  64.804  0.00  0.00    +0.114 C 
BRANCH  17  18
ATOM     18  C   UNL     1     -10.960  16.031  64.970  0.00  0.00    +0.365 C 
ATOM     19  O   UNL     1     -11.618  16.616  63.884  0.00  0.00    -0.246 OA
ATOM     20  O   UNL     1     -10.083  16.767  65.516  0.00  0.00    -0.246 OA
ENDBRANCH  17  18
ENDBRANCH  16  17
ENDBRANCH  15  16
ENDBRANCH  14  15
ENDBRANCH  13  14
ENDBRANCH  12  13
ENDBRANCH  11  12
ENDBRANCH   1  11
TORSDOF 16
ENDMDL
MODEL 3
REMARK VINA RESULT:      -4.5      3.177      6.008
REMARK  Name = 
REMARK  16 active torsions:
REMARK  status: ('A' for Active; 'I' for Inactive)
REMARK    1  A    between atoms: C_2  and  C_3
REMARK    2  A    between atoms: C_3  and  C_4
REMARK    3  A    between atoms: C_4  and  C_5
REMARK    4  A    between atoms: C_5  and  C_6
REMARK    5  A    between atoms: C_6  and  C_7
REMARK    6  A    between atoms: C_7  and  C_8
REMARK    7  A    between atoms: C_8  and  C_9
REMARK    8  A    between atoms: C_9  and  C_10
REMARK    9  A    between atoms: C_10  and  C_11
REMARK   10  A    between atoms: C_11  and  C_12
REMARK   11  A    between atoms: C_12  and  C_13
REMARK   12  A    between atoms: C_13  and  C_14
REMARK   13  A    between atoms: C_14  and  C_15
REMARK   14  A    between atoms: C_15  and  C_16
REMARK   15  A    between atoms: C_16  and  C_17
REMARK   16  A    between atoms: C_17  and  C_18
REMARK                            x       y       z     vdW  Elec       q    Type
REMARK                         _______ _______ _______ _____ _____    ______ ____
ROOT
ATOM      1  C   UNL     1      -9.532  12.143  68.205  0.00  0.00    +0.000 C 
ENDROOT
BRANCH   1   2
ATOM      2  C   UNL     1      -9.017  13.114  67.150  0.00  0.00    +0.000 C 
BRANCH   2   3
ATOM      3  C   UNL     1      -9.246  14.547  67.558  0.00  0.00    +0.000 C 
BRANCH   3   4
ATOM      4  C   UNL     1     -10.588  15.005  67.057  0.00  0.00    +0.000 C 
BRANCH   4   5
ATOM      5  C   UNL     1     -10.554  15.518  65.646  0.00  0.00    +0.000 C 
BRANCH   5   6
ATOM      6  C   UNL     1     -11.608  14.825  64.805  0.00  0.00    +0.000 C 
BRANCH   6   7
ATOM      7  C   UNL     1     -12.392  13.849  65.654  0.00  0.00    +0.000 C 
BRANCH   7   8
ATOM      8  C   UNL     1     -12.540  12.560  64.894  0.00  0.00    +0.000 C 
BRANCH   8  10
ATOM      9  C   UNL     1     -10.666  11.359  63.725  0.00  0.00    +0.000 C 
ATOM     10  C   UNL     1     -11.588  12.545  63.732  0.00  0.00    +0.000 C 
ENDBRANCH   8  10
ENDBRANCH   7   8
ENDBRANCH   6   7
ENDBRANCH   5   6
ENDBRANCH   4   5
ENDBRANCH   3   4
ENDBRANCH   2   3
ENDBRANCH   1   2
BRANCH   1  11
ATOM     11  C   UNL     1     -10.329  11.089  67.450  0.00  0.00    +0.000 C 
BRANCH  11  12
ATOM     12  C   UNL     1     -11.634  10.919  68.219  0.00  0.00    +0.000 C 
BRANCH  12  13
ATOM     13  C   UNL     1     -11.576  11.885  69.393  0.00  0.00    +0.000 C 
BRANCH  13  14
ATOM     14  C   UNL     1     -12.491  11.377  70.483  0.00  0.00    +0.000 C 
BRANCH  14  15
ATOM     15  C   UNL     1     -12.716  12.414  71.571  0.00  0.00    +0.001 C 
BRANCH  15  16
ATOM     16  C   UNL     1     -12.506  13.768  70.931  0.00  0.00    +0.012 C 
BRANCH  16  17
ATOM     17  C   UNL     1     -12.318  14.869  71.936  0.00  0.00    +0.114 C 
BRANCH  17  18
ATOM     18  C   UNL     1     -13.614  15.332  72.523  0.00  0.00    +0.365 C 
ATOM     19  O   UNL     1     -14.615  15.661  71.604  0.00  0.00    -0.246 OA
ATOM     20  O   UNL     1     -13.513  16.130  73.504  0.00  0.00    -0.246 OA
ENDBRANCH  17  18
ENDBRANCH  16  17
ENDBRANCH  15  16
ENDBRANCH  14  15
ENDBRANCH  13  14
ENDBRANCH  12  13
ENDBRANCH  11  12
ENDBRANCH   1  11
TORSDOF 16
ENDMDL
MODEL 4
REMARK VINA RESULT:      -4.5      1.223      4.527
REMARK  Name = 
REMARK  16 active torsions:
REMARK  status: ('A' for Active; 'I' for Inactive)
REMARK    1  A    between atoms: C_2  and  C_3
REMARK    2  A    between atoms: C_3  and  C_4
REMARK    3  A    between atoms: C_4  and  C_5
REMARK    4  A    between atoms: C_5  and  C_6
REMARK    5  A    between atoms: C_6  and  C_7
REMARK    6  A    between atoms: C_7  and  C_8
REMARK    7  A    between atoms: C_8  and  C_9
REMARK    8  A    between atoms: C_9  and  C_10
REMARK    9  A    between atoms: C_10  and  C_11
REMARK   10  A    between atoms: C_11  and  C_12
REMARK   11  A    between atoms: C_12  and  C_13
REMARK   12  A    between atoms: C_13  and  C_14
REMARK   13  A    between atoms: C_14  and  C_15
REMARK   14  A    between atoms: C_15  and  C_16
REMARK   15  A    between atoms: C_16  and  C_17
REMARK   16  A    between atoms: C_17  and  C_18
REMARK                            x       y       z     vdW  Elec       q    Type
REMARK                         _______ _______ _______ _____ _____    ______ ____
ROOT
ATOM      1  C   UNL     1     -11.732  15.930  70.427  0.00  0.00    +0.000 C 
ENDROOT
BRANCH   1   2
ATOM      2  C   UNL     1     -13.084  15.303  70.745  0.00  0.00    +0.000 C 
BRANCH   2   3
ATOM      3  C   UNL     1     -13.280  15.135  72.230  0.00  0.00    +0.000 C 
BRANCH   3   4
ATOM      4  C   UNL     1     -13.412  13.674  72.558  0.00  0.00    +0.000 C 
BRANCH   4   5
ATOM      5  C   UNL     1     -13.111  12.771  71.396  0.00  0.00    +0.000 C 
BRANCH   5   6
ATOM      6  C   UNL     1     -13.168  11.318  71.825  0.00  0.00    +0.000 C 
BRANCH   6   7
ATOM      7  C   UNL     1     -12.620  10.432  70.730  0.00  0.00    +0.000 C 
BRANCH   7   8
ATOM      8  C   UNL     1     -11.538  11.179  70.000  0.00  0.00    +0.000 C 
BRANCH   8  10
ATOM      9  C   UNL     1     -11.019  10.199  67.743  0.00  0.00    +0.000 C 
ATOM     10  C   UNL     1     -11.836  11.187  68.526  0.00  0.00    +0.000 C 
ENDBRANCH   8  10
ENDBRANCH   7   8
ENDBRANCH   6   7
ENDBRANCH   5   6
ENDBRANCH   4   5
ENDBRANCH   3   4
ENDBRANCH   2   3
ENDBRANCH   1   2
BRANCH   1  11
ATOM     11  C   UNL     1     -10.996  14.919  69.559  0.00  0.00    +0.000 C 
BRANCH  11  12
ATOM     12  C   UNL     1      -9.633  15.534  69.264  0.00  0.00    +0.000 C 
BRANCH  12  13
ATOM     13  C   UNL     1      -9.862  16.620  68.224  0.00  0.00    +0.000 C 
BRANCH  13  14
ATOM     14  C   UNL     1     -10.579  16.013  67.040  0.00  0.00    +0.000 C 
BRANCH  14  15
ATOM     15  C   UNL     1      -9.617  15.365  66.058  0.00  0.00    +0.001 C 
BRANCH  15  16
ATOM     16  C   UNL     1     -10.054  13.925  65.908  0.00  0.00    +0.012 C 
BRANCH  16  17
ATOM     17  C   UNL     1     -11.533  13.738  66.087  0.00  0.00    +0.114 C 
BRANCH  17  18
ATOM     18  C   UNL     1     -12.245  13.548  64.785  0.00  0.00    +0.365 C 
ATOM     19  O   UNL     1     -12.567  14.719  64.091  0.00  0.00    -0.246 OA
ATOM     20  O   UNL     1     -13.158  12.668  64.787  0.00  0.00    -0.246 OA
ENDBRANCH  17  18
ENDBRANCH  16  17
ENDBRANCH  15  16
ENDBRANCH  14  15
ENDBRANCH  13  14
ENDBRANCH  12  13
ENDBRANCH  11  12
ENDBRANCH   1  11
TORSDOF 16
ENDMDL
MODEL 5
REMARK VINA RESULT:      -4.5      2.971      7.065
REMARK  Name = 
REMARK  16 active torsions:
REMARK  status: ('A' for Active; 'I' for Inactive)
REMARK    1  A    between atoms: C_2  and  C_3
REMARK    2  A    between atoms: C_3  and  C_4
REMARK    3  A    between atoms: C_4  and  C_5
REMARK    4  A    between atoms: C_5  and  C_6
REMARK    5  A    between atoms: C_6  and  C_7
REMARK    6  A    between atoms: C_7  and  C_8
REMARK    7  A    between atoms: C_8  and  C_9
REMARK    8  A    between atoms: C_9  and  C_10
REMARK    9  A    between atoms: C_10  and  C_11
REMARK   10  A    between atoms: C_11  and  C_12
REMARK   11  A    between atoms: C_12  and  C_13
REMARK   12  A    between atoms: C_13  and  C_14
REMARK   13  A    between atoms: C_14  and  C_15
REMARK   14  A    between atoms: C_15  and  C_16
REMARK   15  A    between atoms: C_16  and  C_17
REMARK   16  A    between atoms: C_17  and  C_18
REMARK                            x       y       z     vdW  Elec       q    Type
REMARK                         _______ _______ _______ _____ _____    ______ ____
ROOT
ATOM      1  C   UNL     1     -12.044  14.291  66.084  0.00  0.00    +0.000 C 
ENDROOT
BRANCH   1   2
ATOM      2  C   UNL     1     -12.730  13.304  65.149  0.00  0.00    +0.000 C 
BRANCH   2   3
ATOM      3  C   UNL     1     -11.966  13.141  63.860  0.00  0.00    +0.000 C 
BRANCH   3   4
ATOM      4  C   UNL     1     -11.708  11.681  63.608  0.00  0.00    +0.000 C 
BRANCH   4   5
ATOM      5  C   UNL     1     -10.278  11.281  63.836  0.00  0.00    +0.000 C 
BRANCH   5   6
ATOM      6  C   UNL     1     -10.172  10.351  65.029  0.00  0.00    +0.000 C 
BRANCH   6   7
ATOM      7  C   UNL     1      -9.906  11.149  66.286  0.00  0.00    +0.000 C 
BRANCH   7   8
ATOM      8  C   UNL     1     -11.040  10.924  67.249  0.00  0.00    +0.000 C 
BRANCH   8  10
ATOM      9  C   UNL     1     -11.680  11.254  69.658  0.00  0.00    +0.000 C 
ATOM     10  C   UNL     1     -10.566  11.168  68.654  0.00  0.00    +0.000 C 
ENDBRANCH   8  10
ENDBRANCH   7   8
ENDBRANCH   6   7
ENDBRANCH   5   6
ENDBRANCH   4   5
ENDBRANCH   3   4
ENDBRANCH   2   3
ENDBRANCH   1   2
BRANCH   1  11
ATOM     11  C   UNL     1     -10.772  14.728  65.371  0.00  0.00    +0.000 C 
BRANCH  11  12
ATOM     12  C   UNL     1      -9.768  15.058  66.469  0.00  0.00    +0.000 C 
BRANCH  12  13
ATOM     13  C   UNL     1     -10.429  14.688  67.788  0.00  0.00    +0.000 C 
BRANCH  13  14
ATOM     14  C   UNL     1      -9.848  15.556  68.881  0.00  0.00    +0.000 C 
BRANCH  14  15
ATOM     15  C   UNL     1     -10.922  16.308  69.649  0.00  0.00    +0.001 C 
BRANCH  15  16
ATOM     16  C   UNL     1     -11.584  15.304  70.565  0.00  0.00    +0.012 C 
BRANCH  16  17
ATOM     17  C   UNL     1     -11.911  15.870  71.918  0.00  0.00    +0.114 C 
BRANCH  17  18
ATOM     18  C   UNL     1     -13.316  15.573  72.336  0.00  0.00    +0.365 C 
ATOM     19  O   UNL     1     -13.473  14.512  73.234  0.00  0.00    -0.246 OA
ATOM     20  O   UNL     1     -14.180  15.612  71.408  0.00  0.00    -0.246 OA
ENDBRANCH  17  18
ENDBRANCH  16  17
ENDBRANCH  15  16
ENDBRANCH  14  15
ENDBRANCH  13  14
ENDBRANCH  12  13
ENDBRANCH  11  12
ENDBRANCH   1  11
TORSDOF 16
ENDMDL
MODEL 6
REMARK VINA RESULT:      -4.4      2.554      5.653
REMARK  Name = 
REMARK  16 active torsions:
REMARK  status: ('A' for Active; 'I' for Inactive)
REMARK    1  A    between atoms: C_2  and  C_3
REMARK    2  A    between atoms: C_3  and  C_4
REMARK    3  A    between atoms: C_4  and  C_5
REMARK    4  A    between atoms: C_5  and  C_6
REMARK    5  A    between atoms: C_6  and  C_7
REMARK    6  A    between atoms: C_7  and  C_8
REMARK    7  A    between atoms: C_8  and  C_9
REMARK    8  A    between atoms: C_9  and  C_10
REMARK    9  A    between atoms: C_10  and  C_11
REMARK   10  A    between atoms: C_11  and  C_12
REMARK   11  A    between atoms: C_12  and  C_13
REMARK   12  A    between atoms: C_13  and  C_14
REMARK   13  A    between atoms: C_14  and  C_15
REMARK   14  A    between atoms: C_15  and  C_16
REMARK   15  A    between atoms: C_16  and  C_17
REMARK   16  A    between atoms: C_17  and  C_18
REMARK                            x       y       z     vdW  Elec       q    Type
REMARK                         _______ _______ _______ _____ _____    ______ ____
ROOT
ATOM      1  C   UNL     1      -7.468  18.078  68.341  0.00  0.00    +0.000 C 
ENDROOT
BRANCH   1   2
ATOM      2  C   UNL     1      -8.547  19.076  67.939  0.00  0.00    +0.000 C 
BRANCH   2   3
ATOM      3  C   UNL     1      -9.794  18.907  68.770  0.00  0.00    +0.000 C 
BRANCH   3   4
ATOM      4  C   UNL     1     -10.528  17.671  68.329  0.00  0.00    +0.000 C 
BRANCH   4   5
ATOM      5  C   UNL     1     -10.613  16.616  69.394  0.00  0.00    +0.000 C 
BRANCH   5   6
ATOM      6  C   UNL     1     -11.909  15.839  69.268  0.00  0.00    +0.000 C 
BRANCH   6   7
ATOM      7  C   UNL     1     -12.128  14.990  70.500  0.00  0.00    +0.000 C 
BRANCH   7   8
ATOM      8  C   UNL     1     -12.260  15.896  71.693  0.00  0.00    +0.000 C 
BRANCH   8  10
ATOM      9  C   UNL     1     -14.620  15.039  71.576  0.00  0.00    +0.000 C 
ATOM     10  C   UNL     1     -13.513  15.556  72.450  0.00  0.00    +0.000 C 
ENDBRANCH   8  10
ENDBRANCH   7   8
ENDBRANCH   6   7
ENDBRANCH   5   6
ENDBRANCH   4   5
ENDBRANCH   3   4
ENDBRANCH   2   3
ENDBRANCH   1   2
BRANCH   1  11
ATOM     11  C   UNL     1      -6.638  17.833  67.089  0.00  0.00    +0.000 C 
BRANCH  11  12
ATOM     12  C   UNL     1      -7.395  16.784  66.283  0.00  0.00    +0.000 C 
BRANCH  12  13
ATOM     13  C   UNL     1      -7.576  15.580  67.196  0.00  0.00    +0.000 C 
BRANCH  13  14
ATOM     14  C   UNL     1      -8.767  14.783  66.717  0.00  0.00    +0.000 C 
BRANCH  14  15
ATOM     15  C   UNL     1      -9.566  15.527  65.659  0.00  0.00    +0.001 C 
BRANCH  15  16
ATOM     16  C   UNL     1     -10.986  15.013  65.745  0.00  0.00    +0.012 C 
BRANCH  16  17
ATOM     17  C   UNL     1     -11.223  13.800  64.890  0.00  0.00    +0.114 C 
BRANCH  17  18
ATOM     18  C   UNL     1     -12.586  13.218  65.092  0.00  0.00    +0.365 C 
ATOM     19  O   UNL     1     -13.002  12.296  64.127  0.00  0.00    -0.246 OA
ATOM     20  O   UNL     1     -13.480  14.040  65.458  0.00  0.00    -0.246 OA
ENDBRANCH  17  18
ENDBRANCH  16  17
ENDBRANCH  15  16
ENDBRANCH  14  15
ENDBRANCH  13  14
ENDBRANCH  12  13
ENDBRANCH  11  12
ENDBRANCH   1  11
TORSDOF 16
ENDMDL
MODEL 7
REMARK VINA RESULT:      -4.4      2.591      5.588
REMARK  Name = 
REMARK  16 active torsions:
REMARK  status: ('A' for Active; 'I' for Inactive)
REMARK    1  A    between atoms: C_2  and  C_3
REMARK    2  A    between atoms: C_3  and  C_4
REMARK    3  A    between atoms: C_4  and  C_5
REMARK    4  A    between atoms: C_5  and  C_6
REMARK    5  A    between atoms: C_6  and  C_7
REMARK    6  A    between atoms: C_7  and  C_8
REMARK    7  A    between atoms: C_8  and  C_9
REMARK    8  A    between atoms: C_9  and  C_10
REMARK    9  A    between atoms: C_10  and  C_11
REMARK   10  A    between atoms: C_11  and  C_12
REMARK   11  A    between atoms: C_12  and  C_13
REMARK   12  A    between atoms: C_13  and  C_14
REMARK   13  A    between atoms: C_14  and  C_15
REMARK   14  A    between atoms: C_15  and  C_16
REMARK   15  A    between atoms: C_16  and  C_17
REMARK   16  A    between atoms: C_17  and  C_18
REMARK                            x       y       z     vdW  Elec       q    Type
REMARK                         _______ _______ _______ _____ _____    ______ ____
ROOT
ATOM      1  C   UNL     1      -9.570  11.739  65.980  0.00  0.00    +0.000 C 
ENDROOT
BRANCH   1   2
ATOM      2  C   UNL     1     -10.058  11.364  67.374  0.00  0.00    +0.000 C 
BRANCH   2   3
ATOM      3  C   UNL     1     -11.493  11.773  67.586  0.00  0.00    +0.000 C 
BRANCH   3   4
ATOM      4  C   UNL     1     -11.669  12.281  68.991  0.00  0.00    +0.000 C 
BRANCH   4   5
ATOM      5  C   UNL     1     -11.873  13.767  69.067  0.00  0.00    +0.000 C 
BRANCH   5   6
ATOM      6  C   UNL     1     -11.989  14.212  70.512  0.00  0.00    +0.000 C 
BRANCH   6   7
ATOM      7  C   UNL     1     -12.861  13.248  71.284  0.00  0.00    +0.000 C 
BRANCH   7   8
ATOM      8  C   UNL     1     -13.354  13.934  72.529  0.00  0.00    +0.000 C 
BRANCH   8  10
ATOM      9  C   UNL     1     -15.292  15.064  71.392  0.00  0.00    +0.000 C 
ATOM     10  C   UNL     1     -14.013  15.234  72.162  0.00  0.00    +0.000 C 
ENDBRANCH   8  10
ENDBRANCH   7   8
ENDBRANCH   6   7
ENDBRANCH   5   6
ENDBRANCH   4   5
ENDBRANCH   3   4
ENDBRANCH   2   3
ENDBRANCH   1   2
BRANCH   1  11
ATOM     11  C   UNL     1     -10.735  11.461  65.041  0.00  0.00    +0.000 C 
BRANCH  11  12
ATOM     12  C   UNL     1     -10.683  12.548  63.975  0.00  0.00    +0.000 C 
BRANCH  12  13
ATOM     13  C   UNL     1     -12.061  13.192  63.942  0.00  0.00    +0.000 C 
BRANCH  13  14
ATOM     14  C   UNL     1     -12.066  14.375  64.883  0.00  0.00    +0.000 C 
BRANCH  14  15
ATOM     15  C   UNL     1     -10.733  15.105  64.892  0.00  0.00    +0.001 C 
BRANCH  15  16
ATOM     16  C   UNL     1     -10.564  15.683  66.279  0.00  0.00    +0.012 C 
BRANCH  16  17
ATOM     17  C   UNL     1      -9.526  16.767  66.341  0.00  0.00    +0.114 C 
BRANCH  17  18
ATOM     18  C   UNL     1     -10.121  18.112  66.610  0.00  0.00    +0.365 C 
ATOM     19  O   UNL     1     -10.880  18.219  67.780  0.00  0.00    -0.246 OA
ATOM     20  O   UNL     1     -10.619  18.699  65.602  0.00  0.00    -0.246 OA
ENDBRANCH  17  18
ENDBRANCH  16  17
ENDBRANCH  15  16
ENDBRANCH  14  15
ENDBRANCH  13  14
ENDBRANCH  12  13
ENDBRANCH  11  12
ENDBRANCH   1  11
TORSDOF 16
ENDMDL
MODEL 8
REMARK VINA RESULT:      -4.4      2.962      5.898
REMARK  Name = 
REMARK  16 active torsions:
REMARK  status: ('A' for Active; 'I' for Inactive)
REMARK    1  A    between atoms: C_2  and  C_3
REMARK    2  A    between atoms: C_3  and  C_4
REMARK    3  A    between atoms: C_4  and  C_5
REMARK    4  A    between atoms: C_5  and  C_6
REMARK    5  A    between atoms: C_6  and  C_7
REMARK    6  A    between atoms: C_7  and  C_8
REMARK    7  A    between atoms: C_8  and  C_9
REMARK    8  A    between atoms: C_9  and  C_10
REMARK    9  A    between atoms: C_10  and  C_11
REMARK   10  A    between atoms: C_11  and  C_12
REMARK   11  A    between atoms: C_12  and  C_13
REMARK   12  A    between atoms: C_13  and  C_14
REMARK   13  A    between atoms: C_14  and  C_15
REMARK   14  A    between atoms: C_15  and  C_16
REMARK   15  A    between atoms: C_16  and  C_17
REMARK   16  A    between atoms: C_17  and  C_18
REMARK                            x       y       z     vdW  Elec       q    Type
REMARK                         _______ _______ _______ _____ _____    ______ ____
ROOT
ATOM      1  C   UNL     1      -9.924  10.308  65.851  0.00  0.00    +0.000 C 
ENDROOT
BRANCH   1   2
ATOM      2  C   UNL     1     -10.166  10.319  64.347  0.00  0.00    +0.000 C 
BRANCH   2   3
ATOM      3  C   UNL     1     -10.320  11.724  63.822  0.00  0.00    +0.000 C 
BRANCH   3   4
ATOM      4  C   UNL     1     -11.743  11.946  63.391  0.00  0.00    +0.000 C 
BRANCH   4   5
ATOM      5  C   UNL     1     -12.553  12.727  64.386  0.00  0.00    +0.000 C 
BRANCH   5   6
ATOM      6  C   UNL     1     -11.830  14.003  64.773  0.00  0.00    +0.000 C 
BRANCH   6   7
ATOM      7  C   UNL     1     -12.096  14.329  66.225  0.00  0.00    +0.000 C 
BRANCH   7   8
ATOM      8  C   UNL     1     -11.001  15.232  66.725  0.00  0.00    +0.000 C 
BRANCH   8  10
ATOM      9  C   UNL     1      -8.660  15.996  66.219  0.00  0.00    +0.000 C 
ATOM     10  C   UNL     1      -9.874  15.257  65.732  0.00  0.00    +0.000 C 
ENDBRANCH   8  10
ENDBRANCH   7   8
ENDBRANCH   6   7
ENDBRANCH   5   6
ENDBRANCH   4   5
ENDBRANCH   3   4
ENDBRANCH   2   3
ENDBRANCH   1   2
BRANCH   1  11
ATOM     11  C   UNL     1      -9.307  11.660  66.185  0.00  0.00    +0.000 C 
BRANCH  11  12
ATOM     12  C   UNL     1      -9.666  11.935  67.641  0.00  0.00    +0.000 C 
BRANCH  12  13
ATOM     13  C   UNL     1     -10.891  11.090  67.955  0.00  0.00    +0.000 C 
BRANCH  13  14
ATOM     14  C   UNL     1     -11.894  11.947  68.692  0.00  0.00    +0.000 C 
BRANCH  14  15
ATOM     15  C   UNL     1     -11.932  11.633  70.179  0.00  0.00    +0.001 C 
BRANCH  15  16
ATOM     16  C   UNL     1     -12.414  12.886  70.875  0.00  0.00    +0.012 C 
BRANCH  16  17
ATOM     17  C   UNL     1     -12.228  14.126  70.048  0.00  0.00    +0.114 C 
BRANCH  17  18
ATOM     18  C   UNL     1     -12.473  15.377  70.831  0.00  0.00    +0.365 C 
ATOM     19  O   UNL     1     -11.583  15.621  71.881  0.00  0.00    -0.246 OA
ATOM     20  O   UNL     1     -13.688  15.621  71.101  0.00  0.00    -0.246 OA
ENDBRANCH  17  18
ENDBRANCH  16  17
ENDBRANCH  15  16
ENDBRANCH  14  15
ENDBRANCH  13  14
ENDBRANCH  12  13
ENDBRANCH  11  12
ENDBRANCH   1  11
TORSDOF 16
ENDMDL
MODEL 9
REMARK VINA RESULT:      -4.4      3.067      7.094
REMARK  Name = 
REMARK  16 active torsions:
REMARK  status: ('A' for Active; 'I' for Inactive)
REMARK    1  A    between atoms: C_2  and  C_3
REMARK    2  A    between atoms: C_3  and  C_4
REMARK    3  A    between atoms: C_4  and  C_5
REMARK    4  A    between atoms: C_5  and  C_6
REMARK    5  A    between atoms: C_6  and  C_7
REMARK    6  A    between atoms: C_7  and  C_8
REMARK    7  A    between atoms: C_8  and  C_9
REMARK    8  A    between atoms: C_9  and  C_10
REMARK    9  A    between atoms: C_10  and  C_11
REMARK   10  A    between atoms: C_11  and  C_12
REMARK   11  A    between atoms: C_12  and  C_13
REMARK   12  A    between atoms: C_13  and  C_14
REMARK   13  A    between atoms: C_14  and  C_15
REMARK   14  A    between atoms: C_15  and  C_16
REMARK   15  A    between atoms: C_16  and  C_17
REMARK   16  A    between atoms: C_17  and  C_18
REMARK                            x       y       z     vdW  Elec       q    Type
REMARK                         _______ _______ _______ _____ _____    ______ ____
ROOT
ATOM      1  C   UNL     1     -10.976  11.380  67.094  0.00  0.00    +0.000 C 
ENDROOT
BRANCH   1   2
ATOM      2  C   UNL     1     -11.202  10.404  68.242  0.00  0.00    +0.000 C 
BRANCH   2   3
ATOM      3  C   UNL     1     -12.082  11.001  69.310  0.00  0.00    +0.000 C 
BRANCH   3   4
ATOM      4  C   UNL     1     -11.674  10.468  70.655  0.00  0.00    +0.000 C 
BRANCH   4   5
ATOM      5  C   UNL     1     -10.603   9.418  70.581  0.00  0.00    +0.000 C 
BRANCH   5   6
ATOM      6  C   UNL     1     -10.558   8.615  71.866  0.00  0.00    +0.000 C 
BRANCH   6   7
ATOM      7  C   UNL     1     -11.961   8.297  72.329  0.00  0.00    +0.000 C 
BRANCH   7   8
ATOM      8  C   UNL     1     -12.487   7.144  71.519  0.00  0.00    +0.000 C 
BRANCH   8  10
ATOM      9  C   UNL     1     -14.567   8.455  72.045  0.00  0.00    +0.000 C 
ATOM     10  C   UNL     1     -13.990   7.173  71.514  0.00  0.00    +0.000 C 
ENDBRANCH   8  10
ENDBRANCH   7   8
ENDBRANCH   6   7
ENDBRANCH   5   6
ENDBRANCH   4   5
ENDBRANCH   3   4
ENDBRANCH   2   3
ENDBRANCH   1   2
BRANCH   1  11
ATOM     11  C   UNL     1     -11.794  12.618  67.431  0.00  0.00    +0.000 C 
BRANCH  11  12
ATOM     12  C   UNL     1     -11.111  13.779  66.719  0.00  0.00    +0.000 C 
BRANCH  12  13
ATOM     13  C   UNL     1     -11.218  14.982  67.644  0.00  0.00    +0.000 C 
BRANCH  13  14
ATOM     14  C   UNL     1     -10.803  14.561  69.035  0.00  0.00    +0.000 C 
BRANCH  14  15
ATOM     15  C   UNL     1     -10.966  15.684  70.046  0.00  0.00    +0.001 C 
BRANCH  15  16
ATOM     16  C   UNL     1     -12.379  15.590  70.577  0.00  0.00    +0.012 C 
BRANCH  16  17
ATOM     17  C   UNL     1     -12.791  14.182  70.902  0.00  0.00    +0.114 C 
BRANCH  17  18
ATOM     18  C   UNL     1     -13.835  14.127  71.971  0.00  0.00    +0.365 C 
ATOM     19  O   UNL     1     -15.055  14.738  71.664  0.00  0.00    -0.246 OA
ATOM     20  O   UNL     1     -13.420  14.341  73.150  0.00  0.00    -0.246 OA
ENDBRANCH  17  18
ENDBRANCH  16  17
ENDBRANCH  15  16
ENDBRANCH  14  15
ENDBRANCH  13  14
ENDBRANCH  12  13
ENDBRANCH  11  12
ENDBRANCH   1  11
TORSDOF 16
ENDMDL
