MODEL 1
REMARK VINA RESULT:      -4.4      0.000      0.000
REMARK  Name = 
REMARK  0 active torsions:
REMARK  status: ('A' for Active; 'I' for Inactive)
REMARK                            x       y       z     vdW  Elec       q    Type
REMARK                         _______ _______ _______ _____ _____    ______ ____
ROOT
ATOM      1  C   UNL     1     -15.756  15.236  71.306  0.00  0.00    +0.030 C 
ATOM      2  C   UNL     1     -14.309  15.148  71.706  0.00  0.00    +0.093 C 
ATOM      3  O   UNL     1     -13.525  15.613  70.659  0.00  0.00    -0.363 OA
ATOM      4  C   UNL     1     -12.213  15.190  70.758  0.00  0.00    +0.093 C 
ATOM      5  C   UNL     1     -11.215  16.199  70.247  0.00  0.00    +0.030 C 
ATOM      6  C   UNL     1     -12.113  13.900  69.953  0.00  0.00    +0.030 C 
ATOM      7  C   UNL     1     -11.884  14.892  72.216  0.00  0.00    +0.025 C 
ATOM      8  C   UNL     1     -12.498  15.892  73.156  0.00  0.00    +0.005 C 
ATOM      9  C   UNL     1     -12.545  13.546  72.496  0.00  0.00    +0.005 C 
ATOM     10  C   UNL     1     -13.998  16.014  72.919  0.00  0.00    +0.027 C 
ATOM     11  C   UNL     1     -14.005  13.726  72.094  0.00  0.00    +0.027 C 
ENDROOT
TORSDOF 0
ENDMDL
MODEL 2
REMARK VINA RESULT:      -4.3      5.033      7.204
REMARK  Name = 
REMARK  0 active torsions:
REMARK  status: ('A' for Active; 'I' for Inactive)
REMARK                            x       y       z     vdW  Elec       q    Type
REMARK                         _______ _______ _______ _____ _____    ______ ____
ROOT
ATOM      1  C   UNL     1     -12.418  12.211  63.570  0.00  0.00    +0.030 C 
ATOM      2  C   UNL     1     -11.476  12.342  64.737  0.00  0.00    +0.093 C 
ATOM      3  O   UNL     1     -12.191  12.156  65.912  0.00  0.00    -0.363 OA
ATOM      4  C   UNL     1     -11.528  12.660  67.014  0.00  0.00    +0.093 C 
ATOM      5  C   UNL     1     -11.750  11.857  68.271  0.00  0.00    +0.030 C 
ATOM      6  C   UNL     1     -12.032  14.085  67.207  0.00  0.00    +0.030 C 
ATOM      7  C   UNL     1     -10.030  12.698  66.733  0.00  0.00    +0.025 C 
ATOM      8  C   UNL     1      -9.561  11.486  65.975  0.00  0.00    +0.005 C 
ATOM      9  C   UNL     1      -9.836  13.903  65.819  0.00  0.00    +0.005 C 
ATOM     10  C   UNL     1     -10.379  11.286  64.706  0.00  0.00    +0.027 C 
ATOM     11  C   UNL     1     -10.797  13.683  64.657  0.00  0.00    +0.027 C 
ENDROOT
TORSDOF 0
ENDMDL
MODEL 3
REMARK VINA RESULT:      -4.3      5.668      7.041
REMARK  Name = 
REMARK  0 active torsions:
REMARK  status: ('A' for Active; 'I' for Inactive)
REMARK                            x       y       z     vdW  Elec       q    Type
REMARK                         _______ _______ _______ _____ _____    ______ ____
ROOT
ATOM      1  C   UNL     1     -10.498  11.052  64.013  0.00  0.00    +0.030 C 
ATOM      2  C   UNL     1     -11.029  12.145  64.901  0.00  0.00    +0.093 C 
ATOM      3  O   UNL     1     -10.214  13.262  64.773  0.00  0.00    -0.363 OA
ATOM      4  C   UNL     1     -10.361  14.142  65.827  0.00  0.00    +0.093 C 
ATOM      5  C   UNL     1     -10.216  15.589  65.430  0.00  0.00    +0.030 C 
ATOM      6  C   UNL     1      -9.296  13.770  66.852  0.00  0.00    +0.030 C 
ATOM      7  C   UNL     1     -11.738  13.957  66.456  0.00  0.00    +0.025 C 
ATOM      8  C   UNL     1     -12.809  13.724  65.425  0.00  0.00    +0.005 C 
ATOM      9  C   UNL     1     -11.621  12.680  67.280  0.00  0.00    +0.005 C 
ATOM     10  C   UNL     1     -12.437  12.568  64.505  0.00  0.00    +0.027 C 
ATOM     11  C   UNL     1     -11.108  11.622  66.310  0.00  0.00    +0.027 C 
ENDROOT
TORSDOF 0
ENDMDL
MODEL 4
REMARK VINA RESULT:      -4.3      5.367      6.984
REMARK  Name = 
REMARK  0 active torsions:
REMARK  status: ('A' for Active; 'I' for Inactive)
REMARK                            x       y       z     vdW  Elec       q    Type
REMARK                         _______ _______ _______ _____ _____    ______ ____
ROOT
ATOM      1  C   UNL     1     -10.626  15.990  65.339  0.00  0.00    +0.030 C 
ATOM      2  C   UNL     1     -11.028  14.568  65.619  0.00  0.00    +0.093 C 
ATOM      3  O   UNL     1      -9.921  13.747  65.447  0.00  0.00    -0.363 OA
ATOM      4  C   UNL     1     -10.272  12.423  65.271  0.00  0.00    +0.093 C 
ATOM      5  C   UNL     1      -9.284  11.453  65.870  0.00  0.00    +0.030 C 
ATOM      6  C   UNL     1     -10.378  12.202  63.767  0.00  0.00    +0.030 C 
ATOM      7  C   UNL     1     -11.634  12.169  65.907  0.00  0.00    +0.025 C 
ATOM      8  C   UNL     1     -11.798  12.895  67.214  0.00  0.00    +0.005 C 
ATOM      9  C   UNL     1     -12.637  12.770  64.928  0.00  0.00    +0.005 C 
ATOM     10  C   UNL     1     -11.508  14.382  67.052  0.00  0.00    +0.027 C 
ATOM     11  C   UNL     1     -12.181  14.209  64.720  0.00  0.00    +0.027 C 
ENDROOT
TORSDOF 0
ENDMDL
MODEL 5
REMARK VINA RESULT:      -4.1      4.317      5.954
REMARK  Name = 
REMARK  0 active torsions:
REMARK  status: ('A' for Active; 'I' for Inactive)
REMARK                            x       y       z     vdW  Elec       q    Type
REMARK                         _______ _______ _______ _____ _____    ______ ____
ROOT
ATOM      1  C   UNL     1     -11.801  11.342  69.248  0.00  0.00    +0.030 C 
ATOM      2  C   UNL     1     -11.454  12.264  68.111  0.00  0.00    +0.093 C 
ATOM      3  O   UNL     1     -12.085  11.812  66.959  0.00  0.00    -0.363 OA
ATOM      4  C   UNL     1     -11.511  12.324  65.812  0.00  0.00    +0.093 C 
ATOM      5  C   UNL     1     -12.501  12.579  64.703  0.00  0.00    +0.030 C 
ATOM      6  C   UNL     1     -10.469  11.306  65.360  0.00  0.00    +0.030 C 
ATOM      7  C   UNL     1     -10.810  13.639  66.136  0.00  0.00    +0.025 C 
ATOM      8  C   UNL     1     -11.595  14.479  67.106  0.00  0.00    +0.005 C 
ATOM      9  C   UNL     1      -9.519  13.229  66.836  0.00  0.00    +0.005 C 
ATOM     10  C   UNL     1     -11.938  13.685  68.361  0.00  0.00    +0.027 C 
ATOM     11  C   UNL     1      -9.956  12.326  67.984  0.00  0.00    +0.027 C 
ENDROOT
TORSDOF 0
ENDMDL
MODEL 6
REMARK VINA RESULT:      -4.1      6.013      7.276
REMARK  Name = 
REMARK  0 active torsions:
REMARK  status: ('A' for Active; 'I' for Inactive)
REMARK                            x       y       z     vdW  Elec       q    Type
REMARK                         _______ _______ _______ _____ _____    ______ ____
ROOT
ATOM      1  C   UNL     1     -10.559  15.883  65.386  0.00  0.00    +0.030 C 
ATOM      2  C   UNL     1     -10.546  14.394  65.597  0.00  0.00    +0.093 C 
ATOM      3  O   UNL     1     -10.411  13.768  64.365  0.00  0.00    -0.363 OA
ATOM      4  C   UNL     1     -10.803  12.444  64.404  0.00  0.00    +0.093 C 
ATOM      5  C   UNL     1      -9.995  11.549  63.498  0.00  0.00    +0.030 C 
ATOM      6  C   UNL     1     -12.271  12.415  63.996  0.00  0.00    +0.030 C 
ATOM      7  C   UNL     1     -10.675  11.917  65.830  0.00  0.00    +0.025 C 
ATOM      8  C   UNL     1      -9.439  12.429  66.518  0.00  0.00    +0.005 C 
ATOM      9  C   UNL     1     -11.875  12.499  66.568  0.00  0.00    +0.005 C 
ATOM     10  C   UNL     1      -9.372  13.950  66.459  0.00  0.00    +0.027 C 
ATOM     11  C   UNL     1     -11.802  14.003  66.331  0.00  0.00    +0.027 C 
ENDROOT
TORSDOF 0
ENDMDL
MODEL 7
REMARK VINA RESULT:      -4.1      0.636      3.234
REMARK  Name = 
REMARK  0 active torsions:
REMARK  status: ('A' for Active; 'I' for Inactive)
REMARK                            x       y       z     vdW  Elec       q    Type
REMARK                         _______ _______ _______ _____ _____    ______ ____
ROOT
ATOM      1  C   UNL     1     -11.211  16.233  70.061  0.00  0.00    +0.030 C 
ATOM      2  C   UNL     1     -12.052  15.295  70.883  0.00  0.00    +0.093 C 
ATOM      3  O   UNL     1     -13.380  15.694  70.798  0.00  0.00    -0.363 OA
ATOM      4  C   UNL     1     -14.150  15.175  71.821  0.00  0.00    +0.093 C 
ATOM      5  C   UNL     1     -15.565  14.855  71.408  0.00  0.00    +0.030 C 
ATOM      6  C   UNL     1     -14.151  16.218  72.932  0.00  0.00    +0.030 C 
ATOM      7  C   UNL     1     -13.506  13.895  72.343  0.00  0.00    +0.025 C 
ATOM      8  C   UNL     1     -12.933  13.052  71.237  0.00  0.00    +0.005 C 
ATOM      9  C   UNL     1     -12.336  14.370  73.199  0.00  0.00    +0.005 C 
ATOM     10  C   UNL     1     -11.978  13.864  70.371  0.00  0.00    +0.027 C 
ATOM     11  C   UNL     1     -11.522  15.286  72.292  0.00  0.00    +0.027 C 
ENDROOT
TORSDOF 0
ENDMDL
MODEL 8
REMARK VINA RESULT:      -4.1      6.153      7.589
REMARK  Name = 
REMARK  0 active torsions:
REMARK  status: ('A' for Active; 'I' for Inactive)
REMARK                            x       y       z     vdW  Elec       q    Type
REMARK                         _______ _______ _______ _____ _____    ______ ____
ROOT
ATOM      1  C   UNL     1      -9.768  16.336  66.114  0.00  0.00    +0.030 C 
ATOM      2  C   UNL     1      -9.517  17.747  66.572  0.00  0.00    +0.093 C 
ATOM      3  O   UNL     1      -8.260  18.143  66.135  0.00  0.00    -0.363 OA
ATOM      4  C   UNL     1      -7.778  19.228  66.840  0.00  0.00    +0.093 C 
ATOM      5  C   UNL     1      -6.941  20.166  66.006  0.00  0.00    +0.030 C 
ATOM      6  C   UNL     1      -6.946  18.665  67.987  0.00  0.00    +0.030 C 
ATOM      7  C   UNL     1      -8.946  20.020  67.418  0.00  0.00    +0.025 C 
ATOM      8  C   UNL     1     -10.103  20.109  66.461  0.00  0.00    +0.005 C 
ATOM      9  C   UNL     1      -9.415  19.201  68.616  0.00  0.00    +0.005 C 
ATOM     10  C   UNL     1     -10.525  18.725  65.984  0.00  0.00    +0.027 C 
ATOM     11  C   UNL     1      -9.674  17.801  68.068  0.00  0.00    +0.027 C 
ENDROOT
TORSDOF 0
ENDMDL
MODEL 9
REMARK VINA RESULT:      -4.0      4.762      6.349
REMARK  Name = 
REMARK  0 active torsions:
REMARK  status: ('A' for Active; 'I' for Inactive)
REMARK                            x       y       z     vdW  Elec       q    Type
REMARK                         _______ _______ _______ _____ _____    ______ ____
ROOT
ATOM      1  C   UNL     1     -10.381  10.779  65.773  0.00  0.00    +0.030 C 
ATOM      2  C   UNL     1     -10.924  12.137  66.126  0.00  0.00    +0.093 C 
ATOM      3  O   UNL     1      -9.941  13.088  65.889  0.00  0.00    -0.363 OA
ATOM      4  C   UNL     1     -10.184  14.272  66.559  0.00  0.00    +0.093 C 
ATOM      5  C   UNL     1      -9.736  15.497  65.801  0.00  0.00    +0.030 C 
ATOM      6  C   UNL     1      -9.443  14.176  67.887  0.00  0.00    +0.030 C 
ATOM      7  C   UNL     1     -11.678  14.403  66.834  0.00  0.00    +0.025 C 
ATOM      8  C   UNL     1     -12.515  13.926  65.679  0.00  0.00    +0.005 C 
ATOM      9  C   UNL     1     -11.943  13.458  68.002  0.00  0.00    +0.005 C 
ATOM     10  C   UNL     1     -12.128  12.510  65.272  0.00  0.00    +0.027 C 
ATOM     11  C   UNL     1     -11.393  12.108  67.557  0.00  0.00    +0.027 C 
ENDROOT
TORSDOF 0
ENDMDL
