MODEL 1
REMARK VINA RESULT:      -4.8      0.000      0.000
REMARK  Name = 
REMARK  5 active torsions:
REMARK  status: ('A' for Active; 'I' for Inactive)
REMARK    1  A    between atoms: C_2  and  C_3
REMARK    2  A    between atoms: C_3  and  C_4
REMARK    3  A    between atoms: C_4  and  C_5
REMARK    4  A    between atoms: C_5  and  P_7
REMARK    5  A    between atoms: C_5  and  P_11
REMARK                            x       y       z     vdW  Elec       q    Type
REMARK                         _______ _______ _______ _____ _____    ______ ____
ROOT
ATOM      1  C   UNL     1     -11.323  13.706  65.968  0.00  0.00    +0.216 C 
ATOM      2  O   UNL     1     -12.340  14.196  66.796  0.00  0.00    -0.211 OA
ENDROOT
BRANCH   1   3
ATOM      3  P   UNL     1     -10.760  12.149  66.737  0.00  0.00    +0.151 P 
ATOM      4  O   UNL     1      -9.522  12.598  67.813  0.00  0.00    -0.355 OA
ATOM      5  O   UNL     1     -12.081  11.546  67.615  0.00  0.00    -0.355 OA
ATOM      6  O   UNL     1     -10.283  11.182  65.694  0.00  0.00    -0.457 OA
ENDBRANCH   1   3
BRANCH   1   7
ATOM      7  P   UNL     1     -11.985  13.180  64.356  0.00  0.00    +0.151 P 
ATOM      8  O   UNL     1     -12.666  14.573  63.654  0.00  0.00    -0.355 OA
ATOM      9  O   UNL     1     -10.824  12.474  63.385  0.00  0.00    -0.355 OA
ATOM     10  O   UNL     1     -13.148  12.254  64.663  0.00  0.00    -0.457 OA
ENDBRANCH   1   7
BRANCH   1  11
ATOM     11  C   UNL     1     -10.192  14.682  65.829  0.00  0.00    +0.046 C 
BRANCH  11  12
ATOM     12  C   UNL     1     -10.411  15.887  66.704  0.00  0.00    +0.024 C 
BRANCH  12  14
ATOM     13  N   UNL     1     -11.038  17.120  64.719  0.00  0.00    -0.131 NA
ATOM     14  C   UNL     1     -10.223  17.152  65.916  0.00  0.00    +0.109 C 
ENDBRANCH  12  14
ENDBRANCH  11  12
ENDBRANCH   1  11
TORSDOF 5
ENDMDL
MODEL 2
REMARK VINA RESULT:      -4.7      1.908      3.712
REMARK  Name = 
REMARK  5 active torsions:
REMARK  status: ('A' for Active; 'I' for Inactive)
REMARK    1  A    between atoms: C_2  and  C_3
REMARK    2  A    between atoms: C_3  and  C_4
REMARK    3  A    between atoms: C_4  and  C_5
REMARK    4  A    between atoms: C_5  and  P_7
REMARK    5  A    between atoms: C_5  and  P_11
REMARK                            x       y       z     vdW  Elec       q    Type
REMARK                         _______ _______ _______ _____ _____    ______ ____
ROOT
ATOM      1  C   UNL     1     -11.167  13.458  65.994  0.00  0.00    +0.216 C 
ATOM      2  O   UNL     1      -9.997  14.150  65.660  0.00  0.00    -0.211 OA
ENDROOT
BRANCH   1   3
ATOM      3  P   UNL     1     -12.031  13.147  64.417  0.00  0.00    +0.151 P 
ATOM      4  O   UNL     1     -12.553  14.674  63.878  0.00  0.00    -0.355 OA
ATOM      5  O   UNL     1     -10.863  12.539  63.346  0.00  0.00    -0.355 OA
ATOM      6  O   UNL     1     -13.173  12.194  64.613  0.00  0.00    -0.457 OA
ENDBRANCH   1   3
BRANCH   1   7
ATOM      7  P   UNL     1     -10.789  11.791  66.619  0.00  0.00    +0.151 P 
ATOM      8  O   UNL     1     -12.121  11.339  67.577  0.00  0.00    -0.355 OA
ATOM      9  O   UNL     1     -10.480  10.701  65.392  0.00  0.00    -0.355 OA
ATOM     10  O   UNL     1      -9.621  11.958  67.575  0.00  0.00    -0.457 OA
ENDBRANCH   1   7
BRANCH   1  11
ATOM     11  C   UNL     1     -12.031  14.239  66.940  0.00  0.00    +0.046 C 
BRANCH  11  12
ATOM     12  C   UNL     1     -11.194  15.100  67.849  0.00  0.00    +0.024 C 
BRANCH  12  14
ATOM     13  N   UNL     1     -12.198  15.988  69.862  0.00  0.00    -0.131 NA
ATOM     14  C   UNL     1     -11.536  14.836  69.287  0.00  0.00    +0.109 C 
ENDBRANCH  12  14
ENDBRANCH  11  12
ENDBRANCH   1  11
TORSDOF 5
ENDMDL
MODEL 3
REMARK VINA RESULT:      -4.6      3.054      4.347
REMARK  Name = 
REMARK  5 active torsions:
REMARK  status: ('A' for Active; 'I' for Inactive)
REMARK    1  A    between atoms: C_2  and  C_3
REMARK    2  A    between atoms: C_3  and  C_4
REMARK    3  A    between atoms: C_4  and  C_5
REMARK    4  A    between atoms: C_5  and  P_7
REMARK    5  A    between atoms: C_5  and  P_11
REMARK                            x       y       z     vdW  Elec       q    Type
REMARK                         _______ _______ _______ _____ _____    ______ ____
ROOT
ATOM      1  C   UNL     1     -10.655  15.043  66.789  0.00  0.00    +0.216 C 
ATOM      2  O   UNL     1      -9.619  14.111  66.656  0.00  0.00    -0.211 OA
ENDROOT
BRANCH   1   3
ATOM      3  P   UNL     1     -10.777  15.403  68.574  0.00  0.00    +0.151 P 
ATOM      4  O   UNL     1     -10.961  13.890  69.329  0.00  0.00    -0.355 OA
ATOM      5  O   UNL     1      -9.288  16.082  69.026  0.00  0.00    -0.355 OA
ATOM      6  O   UNL     1     -11.929  16.322  68.855  0.00  0.00    -0.457 OA
ENDBRANCH   1   3
BRANCH   1   7
ATOM      7  P   UNL     1     -10.198  16.643  66.052  0.00  0.00    +0.151 P 
ATOM      8  O   UNL     1     -10.944  16.683  64.523  0.00  0.00    -0.355 OA
ATOM      9  O   UNL     1     -10.632  17.939  67.012  0.00  0.00    -0.355 OA
ATOM     10  O   UNL     1      -8.705  16.571  65.788  0.00  0.00    -0.457 OA
ENDBRANCH   1   7
BRANCH   1  11
ATOM     11  C   UNL     1     -11.954  14.518  66.252  0.00  0.00    +0.046 C 
BRANCH  11  12
ATOM     12  C   UNL     1     -11.911  13.020  66.108  0.00  0.00    +0.024 C 
BRANCH  12  14
ATOM     13  N   UNL     1     -12.488  13.706  63.861  0.00  0.00    -0.131 NA
ATOM     14  C   UNL     1     -12.505  12.599  64.795  0.00  0.00    +0.109 C 
ENDBRANCH  12  14
ENDBRANCH  11  12
ENDBRANCH   1  11
TORSDOF 5
ENDMDL
MODEL 4
REMARK VINA RESULT:      -4.5      2.932      3.688
REMARK  Name = 
REMARK  5 active torsions:
REMARK  status: ('A' for Active; 'I' for Inactive)
REMARK    1  A    between atoms: C_2  and  C_3
REMARK    2  A    between atoms: C_3  and  C_4
REMARK    3  A    between atoms: C_4  and  C_5
REMARK    4  A    between atoms: C_5  and  P_7
REMARK    5  A    between atoms: C_5  and  P_11
REMARK                            x       y       z     vdW  Elec       q    Type
REMARK                         _______ _______ _______ _____ _____    ______ ____
ROOT
ATOM      1  C   UNL     1     -10.938  14.341  66.922  0.00  0.00    +0.216 C 
ATOM      2  O   UNL     1      -9.845  13.684  67.499  0.00  0.00    -0.211 OA
ENDROOT
BRANCH   1   3
ATOM      3  P   UNL     1     -10.262  15.855  66.158  0.00  0.00    +0.151 P 
ATOM      4  O   UNL     1     -10.594  17.106  67.260  0.00  0.00    -0.355 OA
ATOM      5  O   UNL     1      -8.583  15.627  66.052  0.00  0.00    -0.355 OA
ATOM      6  O   UNL     1     -10.887  16.099  64.816  0.00  0.00    -0.457 OA
ENDBRANCH   1   3
BRANCH   1   7
ATOM      7  P   UNL     1     -11.601  13.401  65.512  0.00  0.00    +0.151 P 
ATOM      8  O   UNL     1     -13.050  14.178  65.074  0.00  0.00    -0.355 OA
ATOM      9  O   UNL     1     -10.519  13.297  64.244  0.00  0.00    -0.355 OA
ATOM     10  O   UNL     1     -12.002  12.045  66.066  0.00  0.00    -0.457 OA
ENDBRANCH   1   7
BRANCH   1  11
ATOM     11  C   UNL     1     -11.994  14.672  67.935  0.00  0.00    +0.046 C 
BRANCH  11  12
ATOM     12  C   UNL     1     -11.859  13.802  69.157  0.00  0.00    +0.024 C 
BRANCH  12  14
ATOM     13  N   UNL     1     -12.196  16.001  70.106  0.00  0.00    -0.131 NA
ATOM     14  C   UNL     1     -11.786  14.643  70.398  0.00  0.00    +0.109 C 
ENDBRANCH  12  14
ENDBRANCH  11  12
ENDBRANCH   1  11
TORSDOF 5
ENDMDL
MODEL 5
REMARK VINA RESULT:      -4.5      1.715      3.613
REMARK  Name = 
REMARK  5 active torsions:
REMARK  status: ('A' for Active; 'I' for Inactive)
REMARK    1  A    between atoms: C_2  and  C_3
REMARK    2  A    between atoms: C_3  and  C_4
REMARK    3  A    between atoms: C_4  and  C_5
REMARK    4  A    between atoms: C_5  and  P_7
REMARK    5  A    between atoms: C_5  and  P_11
REMARK                            x       y       z     vdW  Elec       q    Type
REMARK                         _______ _______ _______ _____ _____    ______ ____
ROOT
ATOM      1  C   UNL     1     -10.969  13.562  65.957  0.00  0.00    +0.216 C 
ATOM      2  O   UNL     1      -9.745  13.996  65.435  0.00  0.00    -0.211 OA
ENDROOT
BRANCH   1   3
ATOM      3  P   UNL     1     -12.059  13.296  64.517  0.00  0.00    +0.151 P 
ATOM      4  O   UNL     1     -12.539  14.849  64.018  0.00  0.00    -0.355 OA
ATOM      5  O   UNL     1     -11.094  12.589  63.313  0.00  0.00    -0.355 OA
ATOM      6  O   UNL     1     -13.229  12.432  64.886  0.00  0.00    -0.457 OA
ENDBRANCH   1   3
BRANCH   1   7
ATOM      7  P   UNL     1     -10.818  11.907  66.700  0.00  0.00    +0.151 P 
ATOM      8  O   UNL     1      -9.378  11.933  67.606  0.00  0.00    -0.355 OA
ATOM      9  O   UNL     1     -12.148  11.492  67.620  0.00  0.00    -0.355 OA
ATOM     10  O   UNL     1     -10.570  10.952  65.546  0.00  0.00    -0.457 OA
ENDBRANCH   1   7
BRANCH   1  11
ATOM     11  C   UNL     1     -11.562  14.561  66.907  0.00  0.00    +0.046 C 
BRANCH  11  12
ATOM     12  C   UNL     1     -10.483  15.354  67.595  0.00  0.00    +0.024 C 
BRANCH  12  14
ATOM     13  N   UNL     1     -12.036  16.053  69.313  0.00  0.00    -0.131 NA
ATOM     14  C   UNL     1     -11.075  16.519  68.335  0.00  0.00    +0.109 C 
ENDBRANCH  12  14
ENDBRANCH  11  12
ENDBRANCH   1  11
TORSDOF 5
ENDMDL
MODEL 6
REMARK VINA RESULT:      -4.5      1.626      3.510
REMARK  Name = 
REMARK  5 active torsions:
REMARK  status: ('A' for Active; 'I' for Inactive)
REMARK    1  A    between atoms: C_2  and  C_3
REMARK    2  A    between atoms: C_3  and  C_4
REMARK    3  A    between atoms: C_4  and  C_5
REMARK    4  A    between atoms: C_5  and  P_7
REMARK    5  A    between atoms: C_5  and  P_11
REMARK                            x       y       z     vdW  Elec       q    Type
REMARK                         _______ _______ _______ _____ _____    ______ ____
ROOT
ATOM      1  C   UNL     1     -10.848  14.549  66.005  0.00  0.00    +0.216 C 
ATOM      2  O   UNL     1      -9.660  14.281  65.316  0.00  0.00    -0.211 OA
ENDROOT
BRANCH   1   3
ATOM      3  P   UNL     1     -12.181  14.432  64.764  0.00  0.00    +0.151 P 
ATOM      4  O   UNL     1     -12.168  15.923  63.944  0.00  0.00    -0.355 OA
ATOM      5  O   UNL     1     -11.730  13.195  63.693  0.00  0.00    -0.355 OA
ATOM      6  O   UNL     1     -13.501  14.159  65.423  0.00  0.00    -0.457 OA
ENDBRANCH   1   3
BRANCH   1   7
ATOM      7  P   UNL     1     -11.236  13.219  67.186  0.00  0.00    +0.151 P 
ATOM      8  O   UNL     1     -12.213  13.930  68.384  0.00  0.00    -0.355 OA
ATOM      9  O   UNL     1     -11.968  11.907  66.457  0.00  0.00    -0.355 OA
ATOM     10  O   UNL     1      -9.925  12.868  67.866  0.00  0.00    -0.457 OA
ENDBRANCH   1   7
BRANCH   1  11
ATOM     11  C   UNL     1     -10.829  15.901  66.654  0.00  0.00    +0.046 C 
BRANCH  11  12
ATOM     12  C   UNL     1      -9.593  16.667  66.266  0.00  0.00    +0.024 C 
BRANCH  12  14
ATOM     13  N   UNL     1     -10.750  18.193  67.745  0.00  0.00    -0.131 NA
ATOM     14  C   UNL     1      -9.518  17.964  67.019  0.00  0.00    +0.109 C 
ENDBRANCH  12  14
ENDBRANCH  11  12
ENDBRANCH   1  11
TORSDOF 5
ENDMDL
MODEL 7
REMARK VINA RESULT:      -4.4      4.191      5.674
REMARK  Name = 
REMARK  5 active torsions:
REMARK  status: ('A' for Active; 'I' for Inactive)
REMARK    1  A    between atoms: C_2  and  C_3
REMARK    2  A    between atoms: C_3  and  C_4
REMARK    3  A    between atoms: C_4  and  C_5
REMARK    4  A    between atoms: C_5  and  P_7
REMARK    5  A    between atoms: C_5  and  P_11
REMARK                            x       y       z     vdW  Elec       q    Type
REMARK                         _______ _______ _______ _____ _____    ______ ____
ROOT
ATOM      1  C   UNL     1     -10.256  16.574  67.365  0.00  0.00    +0.216 C 
ATOM      2  O   UNL     1     -11.295  16.790  68.277  0.00  0.00    -0.211 OA
ENDROOT
BRANCH   1   3
ATOM      3  P   UNL     1     -10.189  18.071  66.321  0.00  0.00    +0.151 P 
ATOM      4  O   UNL     1     -11.065  17.682  64.916  0.00  0.00    -0.355 OA
ATOM      5  O   UNL     1     -11.007  19.286  67.178  0.00  0.00    -0.355 OA
ATOM      6  O   UNL     1      -8.769  18.447  66.019  0.00  0.00    -0.457 OA
ENDBRANCH   1   3
BRANCH   1   7
ATOM      7  P   UNL     1      -8.640  16.555  68.202  0.00  0.00    +0.151 P 
ATOM      8  O   UNL     1      -7.545  15.879  67.088  0.00  0.00    -0.355 OA
ATOM      9  O   UNL     1      -8.170  18.070  68.723  0.00  0.00    -0.355 OA
ATOM     10  O   UNL     1      -8.766  15.549  69.331  0.00  0.00    -0.457 OA
ENDBRANCH   1   7
BRANCH   1  11
ATOM     11  C   UNL     1     -10.483  15.345  66.535  0.00  0.00    +0.046 C 
BRANCH  11  12
ATOM     12  C   UNL     1     -11.654  14.554  67.054  0.00  0.00    +0.024 C 
BRANCH  12  14
ATOM     13  N   UNL     1     -12.167  12.420  66.037  0.00  0.00    -0.131 NA
ATOM     14  C   UNL     1     -12.357  13.851  65.928  0.00  0.00    +0.109 C 
ENDBRANCH  12  14
ENDBRANCH  11  12
ENDBRANCH   1  11
TORSDOF 5
ENDMDL
MODEL 8
REMARK VINA RESULT:      -4.4      3.511      4.866
REMARK  Name = 
REMARK  5 active torsions:
REMARK  status: ('A' for Active; 'I' for Inactive)
REMARK    1  A    between atoms: C_2  and  C_3
REMARK    2  A    between atoms: C_3  and  C_4
REMARK    3  A    between atoms: C_4  and  C_5
REMARK    4  A    between atoms: C_5  and  P_7
REMARK    5  A    between atoms: C_5  and  P_11
REMARK                            x       y       z     vdW  Elec       q    Type
REMARK                         _______ _______ _______ _____ _____    ______ ____
ROOT
ATOM      1  C   UNL     1      -9.934  16.848  67.782  0.00  0.00    +0.216 C 
ATOM      2  O   UNL     1      -8.814  16.969  68.613  0.00  0.00    -0.211 OA
ENDROOT
BRANCH   1   3
ATOM      3  P   UNL     1      -9.302  16.251  66.177  0.00  0.00    +0.151 P 
ATOM      4  O   UNL     1     -10.540  16.570  65.056  0.00  0.00    -0.355 OA
ATOM      5  O   UNL     1      -7.949  17.209  65.811  0.00  0.00    -0.355 OA
ATOM      6  O   UNL     1      -8.961  14.792  66.248  0.00  0.00    -0.457 OA
ENDBRANCH   1   3
BRANCH   1   7
ATOM      7  P   UNL     1     -11.029  15.508  68.345  0.00  0.00    +0.151 P 
ATOM      8  O   UNL     1     -12.086  16.213  69.476  0.00  0.00    -0.355 OA
ATOM      9  O   UNL     1     -11.837  14.768  67.084  0.00  0.00    -0.355 OA
ATOM     10  O   UNL     1     -10.149  14.552  69.131  0.00  0.00    -0.457 OA
ENDBRANCH   1   7
BRANCH   1  11
ATOM     11  C   UNL     1     -10.661  18.152  67.626  0.00  0.00    +0.046 C 
BRANCH  11  12
ATOM     12  C   UNL     1      -9.909  19.271  68.294  0.00  0.00    +0.024 C 
BRANCH  12  14
ATOM     13  N   UNL     1      -7.979  20.358  67.319  0.00  0.00    -0.131 NA
ATOM     14  C   UNL     1      -9.424  20.263  67.276  0.00  0.00    +0.109 C 
ENDBRANCH  12  14
ENDBRANCH  11  12
ENDBRANCH   1  11
TORSDOF 5
ENDMDL
MODEL 9
REMARK VINA RESULT:      -4.4      5.514      6.436
REMARK  Name = 
REMARK  5 active torsions:
REMARK  status: ('A' for Active; 'I' for Inactive)
REMARK    1  A    between atoms: C_2  and  C_3
REMARK    2  A    between atoms: C_3  and  C_4
REMARK    3  A    between atoms: C_4  and  C_5
REMARK    4  A    between atoms: C_5  and  P_7
REMARK    5  A    between atoms: C_5  and  P_11
REMARK                            x       y       z     vdW  Elec       q    Type
REMARK                         _______ _______ _______ _____ _____    ______ ____
ROOT
ATOM      1  C   UNL     1      -8.388  18.014  67.827  0.00  0.00    +0.216 C 
ATOM      2  O   UNL     1      -8.330  17.100  68.885  0.00  0.00    -0.211 OA
ENDROOT
BRANCH   1   3
ATOM      3  P   UNL     1      -7.809  17.107  66.352  0.00  0.00    +0.151 P 
ATOM      4  O   UNL     1      -7.233  18.299  65.285  0.00  0.00    -0.355 OA
ATOM      5  O   UNL     1      -6.516  16.136  66.866  0.00  0.00    -0.355 OA
ATOM      6  O   UNL     1      -8.922  16.299  65.753  0.00  0.00    -0.457 OA
ENDBRANCH   1   3
BRANCH   1   7
ATOM      7  P   UNL     1     -10.110  18.444  67.425  0.00  0.00    +0.151 P 
ATOM      8  O   UNL     1     -10.458  19.854  68.312  0.00  0.00    -0.355 OA
ATOM      9  O   UNL     1     -10.356  18.641  65.785  0.00  0.00    -0.355 OA
ATOM     10  O   UNL     1     -10.967  17.346  68.029  0.00  0.00    -0.457 OA
ENDBRANCH   1   7
BRANCH   1  11
ATOM     11  C   UNL     1      -7.542  19.226  68.084  0.00  0.00    +0.046 C 
BRANCH  11  12
ATOM     12  C   UNL     1      -6.590  18.985  69.225  0.00  0.00    +0.024 C 
BRANCH  12  14
ATOM     13  N   UNL     1      -6.142  20.436  71.109  0.00  0.00    -0.131 NA
ATOM     14  C   UNL     1      -5.974  20.277  69.679  0.00  0.00    +0.109 C 
ENDBRANCH  12  14
ENDBRANCH  11  12
ENDBRANCH   1  11
TORSDOF 5
ENDMDL
