MODEL 1
REMARK VINA RESULT:      -8.5      0.000      0.000
REMARK  Name = 
REMARK  7 active torsions:
REMARK  status: ('A' for Active; 'I' for Inactive)
REMARK    1  A    between atoms: C_2  and  O_3
REMARK    2  A    between atoms: C_2  and  C_22
REMARK    3  A    between atoms: O_3  and  C_4
REMARK    4  A    between atoms: C_4  and  C_5
REMARK    5  A    between atoms: C_5  and  C_6
REMARK    6  A    between atoms: C_24  and  C_25
REMARK    7  A    between atoms: C_30  and  C_31
REMARK                            x       y       z     vdW  Elec       q    Type
REMARK                         _______ _______ _______ _____ _____    ______ ____
ROOT
ATOM      1  C   UNL     1      -8.894  15.174  69.494  0.00  0.00    +0.162 C 
ENDROOT
BRANCH   1   2
ATOM      2  C   UNL     1     -10.084  14.571  68.817  0.00  0.00    +0.105 C 
ATOM      3  N   UNL     1      -9.705  13.294  68.281  0.00  0.00    -0.212 NA
ATOM      4  C   UNL     1      -9.558  13.307  66.829  0.00  0.00    +0.109 C 
ATOM      5  C   UNL     1     -10.882  13.502  66.164  0.00  0.00    +0.095 C 
ATOM      6  N   UNL     1     -10.783  13.992  64.807  0.00  0.00    -0.207 NA
ATOM      7  C   UNL     1     -12.102  13.851  64.267  0.00  0.00    +0.241 C 
ATOM      8  O   UNL     1     -12.751  14.657  63.541  0.00  0.00    -0.273 OA
ATOM      9  C   UNL     1     -12.573  12.531  64.787  0.00  0.00    +0.089 C 
ATOM     10  C   UNL     1     -11.679  12.246  65.987  0.00  0.00    +0.031 C 
ATOM     11  C   UNL     1     -11.633  14.554  66.950  0.00  0.00    +0.023 C 
ATOM     12  C   UNL     1     -10.573  15.407  67.639  0.00  0.00    +0.024 C 
BRANCH   2  13
ATOM     13  C   UNL     1     -11.250  14.472  69.745  0.00  0.00    -0.006 A 
ATOM     14  C   UNL     1     -11.775  13.293  70.185  0.00  0.00    -0.003 A 
ATOM     15  C   UNL     1     -12.803  13.363  71.116  0.00  0.00    -0.000 A 
ATOM     16  C   UNL     1     -13.417  14.551  71.449  0.00  0.00    -0.000 A 
ATOM     17  C   UNL     1     -12.722  15.726  71.208  0.00  0.00    -0.000 A 
ATOM     18  C   UNL     1     -11.645  15.667  70.334  0.00  0.00    -0.003 A 
ENDBRANCH   2  13
ENDBRANCH   1   2
BRANCH   1  19
ATOM     19  O   UNL     1      -8.656  16.507  69.123  0.00  0.00    -0.350 OA
BRANCH  19  21
ATOM     20  C   UNL     1      -6.399  16.845  69.564  0.00  0.00    +0.037 C 
ATOM     21  C   UNL     1      -7.358  16.244  68.310  0.00  0.00    +0.138 C 
BRANCH  21  22
ATOM     22  C   UNL     1      -7.471  17.702  67.551  0.00  0.00    +0.004 A 
ATOM     23  C   UNL     1      -6.352  18.475  67.671  0.00  0.00    +0.002 A 
ATOM     24  C   UNL     1      -6.483  19.818  67.334  0.00  0.00    +0.071 A 
ATOM     25  C   UNL     1      -7.705  20.248  66.833  0.00  0.00    +0.008 A 
ATOM     26  C   UNL     1      -8.776  19.381  66.638  0.00  0.00    +0.071 A 
ATOM     27  C   UNL     1      -8.645  18.039  67.001  0.00  0.00    +0.002 A 
BRANCH  24  28
ATOM     28  C   UNL     1      -5.532  20.776  67.973  0.00  0.00    +0.419 C 
ATOM     29  F   UNL     1      -5.813  21.005  69.291  0.00  0.00    -0.166 F 
ATOM     30  F   UNL     1      -5.542  21.959  67.282  0.00  0.00    -0.166 F 
ATOM     31  F   UNL     1      -4.287  20.167  67.910  0.00  0.00    -0.166 F 
ENDBRANCH  24  28
BRANCH  26  32
ATOM     32  C   UNL     1     -10.114  20.055  66.616  0.00  0.00    +0.419 C 
ATOM     33  F   UNL     1     -10.552  20.241  65.332  0.00  0.00    -0.166 F 
ATOM     34  F   UNL     1     -11.059  19.262  67.262  0.00  0.00    -0.166 F 
ATOM     35  F   UNL     1     -10.053  21.224  67.348  0.00  0.00    -0.166 F 
ENDBRANCH  26  32
ENDBRANCH  21  22
ENDBRANCH  19  21
ENDBRANCH   1  19
TORSDOF 7
ENDMDL
MODEL 2
REMARK VINA RESULT:      -8.3      1.250      2.752
REMARK  Name = 
REMARK  7 active torsions:
REMARK  status: ('A' for Active; 'I' for Inactive)
REMARK    1  A    between atoms: C_2  and  O_3
REMARK    2  A    between atoms: C_2  and  C_22
REMARK    3  A    between atoms: O_3  and  C_4
REMARK    4  A    between atoms: C_4  and  C_5
REMARK    5  A    between atoms: C_5  and  C_6
REMARK    6  A    between atoms: C_24  and  C_25
REMARK    7  A    between atoms: C_30  and  C_31
REMARK                            x       y       z     vdW  Elec       q    Type
REMARK                         _______ _______ _______ _____ _____    ______ ____
ROOT
ATOM      1  C   UNL     1      -8.890  15.227  69.480  0.00  0.00    +0.162 C 
ENDROOT
BRANCH   1   2
ATOM      2  C   UNL     1     -10.075  14.610  68.805  0.00  0.00    +0.105 C 
ATOM      3  N   UNL     1      -9.685  13.333  68.277  0.00  0.00    -0.212 NA
ATOM      4  C   UNL     1      -9.536  13.339  66.826  0.00  0.00    +0.109 C 
ATOM      5  C   UNL     1     -10.861  13.519  66.158  0.00  0.00    +0.095 C 
ATOM      6  N   UNL     1     -10.764  14.002  64.798  0.00  0.00    -0.207 NA
ATOM      7  C   UNL     1     -12.081  13.847  64.258  0.00  0.00    +0.241 C 
ATOM      8  O   UNL     1     -12.736  14.643  63.526  0.00  0.00    -0.273 OA
ATOM      9  C   UNL     1     -12.542  12.526  64.784  0.00  0.00    +0.089 C 
ATOM     10  C   UNL     1     -11.648  12.255  65.987  0.00  0.00    +0.031 C 
ATOM     11  C   UNL     1     -11.622  14.570  66.937  0.00  0.00    +0.023 C 
ATOM     12  C   UNL     1     -10.569  15.435  67.621  0.00  0.00    +0.024 C 
BRANCH   2  13
ATOM     13  C   UNL     1     -11.241  14.507  69.733  0.00  0.00    -0.006 A 
ATOM     14  C   UNL     1     -11.780  13.326  70.150  0.00  0.00    -0.003 A 
ATOM     15  C   UNL     1     -12.806  13.391  71.083  0.00  0.00    -0.000 A 
ATOM     16  C   UNL     1     -13.405  14.579  71.440  0.00  0.00    -0.000 A 
ATOM     17  C   UNL     1     -12.697  15.750  71.222  0.00  0.00    -0.000 A 
ATOM     18  C   UNL     1     -11.621  15.695  70.346  0.00  0.00    -0.003 A 
ENDBRANCH   2  13
ENDBRANCH   1   2
BRANCH   1  19
ATOM     19  O   UNL     1      -8.626  16.539  69.056  0.00  0.00    -0.350 OA
BRANCH  19  21
ATOM     20  C   UNL     1      -6.368  16.643  69.595  0.00  0.00    +0.037 C 
ATOM     21  C   UNL     1      -7.325  16.221  68.268  0.00  0.00    +0.138 C 
BRANCH  21  22
ATOM     22  C   UNL     1      -7.282  17.734  67.618  0.00  0.00    +0.004 A 
ATOM     23  C   UNL     1      -8.417  18.461  67.833  0.00  0.00    +0.002 A 
ATOM     24  C   UNL     1      -8.578  19.607  67.062  0.00  0.00    +0.071 A 
ATOM     25  C   UNL     1      -7.550  19.963  66.199  0.00  0.00    +0.008 A 
ATOM     26  C   UNL     1      -6.371  19.230  66.105  0.00  0.00    +0.071 A 
ATOM     27  C   UNL     1      -6.225  18.068  66.864  0.00  0.00    +0.002 A 
BRANCH  24  28
ATOM     28  C   UNL     1      -9.976  20.081  66.832  0.00  0.00    +0.419 C 
ATOM     29  F   UNL     1     -10.915  19.267  67.405  0.00  0.00    -0.166 F 
ATOM     30  F   UNL     1     -10.208  20.185  65.487  0.00  0.00    -0.166 F 
ATOM     31  F   UNL     1     -10.060  21.318  67.455  0.00  0.00    -0.166 F 
ENDBRANCH  24  28
BRANCH  26  32
ATOM     32  C   UNL     1      -5.638  19.412  64.810  0.00  0.00    +0.419 C 
ATOM     33  F   UNL     1      -5.285  18.205  64.269  0.00  0.00    -0.166 F 
ATOM     34  F   UNL     1      -6.456  20.054  63.885  0.00  0.00    -0.166 F 
ATOM     35  F   UNL     1      -4.567  20.260  65.004  0.00  0.00    -0.166 F 
ENDBRANCH  26  32
ENDBRANCH  21  22
ENDBRANCH  19  21
ENDBRANCH   1  19
TORSDOF 7
ENDMDL
MODEL 3
REMARK VINA RESULT:      -8.1      2.397      4.008
REMARK  Name = 
REMARK  7 active torsions:
REMARK  status: ('A' for Active; 'I' for Inactive)
REMARK    1  A    between atoms: C_2  and  O_3
REMARK    2  A    between atoms: C_2  and  C_22
REMARK    3  A    between atoms: O_3  and  C_4
REMARK    4  A    between atoms: C_4  and  C_5
REMARK    5  A    between atoms: C_5  and  C_6
REMARK    6  A    between atoms: C_24  and  C_25
REMARK    7  A    between atoms: C_30  and  C_31
REMARK                            x       y       z     vdW  Elec       q    Type
REMARK                         _______ _______ _______ _____ _____    ______ ____
ROOT
ATOM      1  C   UNL     1     -10.600  16.878  67.875  0.00  0.00    +0.162 C 
ENDROOT
BRANCH   1   2
ATOM      2  C   UNL     1     -10.002  15.519  67.685  0.00  0.00    +0.105 C 
ATOM      3  N   UNL     1     -10.332  15.057  66.366  0.00  0.00    -0.212 NA
ATOM      4  C   UNL     1     -11.357  14.018  66.368  0.00  0.00    +0.109 C 
ATOM      5  C   UNL     1     -10.833  12.759  66.978  0.00  0.00    +0.095 C 
ATOM      6  N   UNL     1     -11.871  11.866  67.445  0.00  0.00    -0.207 NA
ATOM      7  C   UNL     1     -11.196  10.635  67.731  0.00  0.00    +0.241 C 
ATOM      8  O   UNL     1     -11.351   9.856  68.714  0.00  0.00    -0.273 OA
ATOM      9  C   UNL     1     -10.220  10.481  66.609  0.00  0.00    +0.089 C 
ATOM     10  C   UNL     1     -10.067  11.883  66.033  0.00  0.00    +0.031 C 
ATOM     11  C   UNL     1     -10.018  13.147  68.192  0.00  0.00    +0.023 C 
ATOM     12  C   UNL     1     -10.568  14.491  68.659  0.00  0.00    +0.024 C 
BRANCH   2  13
ATOM     13  C   UNL     1      -8.529  15.530  67.929  0.00  0.00    -0.006 A 
ATOM     14  C   UNL     1      -7.593  15.557  66.938  0.00  0.00    -0.003 A 
ATOM     15  C   UNL     1      -6.262  15.654  67.323  0.00  0.00    -0.000 A 
ATOM     16  C   UNL     1      -5.863  15.532  68.636  0.00  0.00    -0.000 A 
ATOM     17  C   UNL     1      -6.809  15.767  69.622  0.00  0.00    -0.000 A 
ATOM     18  C   UNL     1      -8.145  15.745  69.248  0.00  0.00    -0.003 A 
ENDBRANCH   2  13
ENDBRANCH   1   2
BRANCH   1  19
ATOM     19  O   UNL     1     -10.392  17.737  66.783  0.00  0.00    -0.350 OA
BRANCH  19  21
ATOM     20  C   UNL     1     -10.442  19.992  66.224  0.00  0.00    +0.037 C 
ATOM     21  C   UNL     1     -10.223  19.044  67.605  0.00  0.00    +0.138 C 
BRANCH  21  22
ATOM     22  C   UNL     1      -8.584  18.998  67.448  0.00  0.00    +0.004 A 
ATOM     23  C   UNL     1      -7.911  19.120  68.629  0.00  0.00    +0.002 A 
ATOM     24  C   UNL     1      -6.553  19.402  68.547  0.00  0.00    +0.071 A 
ATOM     25  C   UNL     1      -5.973  19.460  67.285  0.00  0.00    +0.008 A 
ATOM     26  C   UNL     1      -6.700  19.222  66.123  0.00  0.00    +0.071 A 
ATOM     27  C   UNL     1      -8.069  18.963  66.211  0.00  0.00    +0.002 A 
BRANCH  24  28
ATOM     28  C   UNL     1      -5.929  20.098  69.713  0.00  0.00    +0.419 C 
ATOM     29  F   UNL     1      -6.816  20.334  70.727  0.00  0.00    -0.166 F 
ATOM     30  F   UNL     1      -5.372  21.277  69.297  0.00  0.00    -0.166 F 
ATOM     31  F   UNL     1      -4.964  19.227  70.197  0.00  0.00    -0.166 F 
ENDBRANCH  24  28
BRANCH  26  32
ATOM     32  C   UNL     1      -6.100  19.829  64.890  0.00  0.00    +0.419 C 
ATOM     33  F   UNL     1      -5.791  18.867  63.967  0.00  0.00    -0.166 F 
ATOM     34  F   UNL     1      -7.011  20.696  64.293  0.00  0.00    -0.166 F 
ATOM     35  F   UNL     1      -5.022  20.615  65.243  0.00  0.00    -0.166 F 
ENDBRANCH  26  32
ENDBRANCH  21  22
ENDBRANCH  19  21
ENDBRANCH   1  19
TORSDOF 7
ENDMDL
MODEL 4
REMARK VINA RESULT:      -8.1      5.035      8.414
REMARK  Name = 
REMARK  7 active torsions:
REMARK  status: ('A' for Active; 'I' for Inactive)
REMARK    1  A    between atoms: C_2  and  O_3
REMARK    2  A    between atoms: C_2  and  C_22
REMARK    3  A    between atoms: O_3  and  C_4
REMARK    4  A    between atoms: C_4  and  C_5
REMARK    5  A    between atoms: C_5  and  C_6
REMARK    6  A    between atoms: C_24  and  C_25
REMARK    7  A    between atoms: C_30  and  C_31
REMARK                            x       y       z     vdW  Elec       q    Type
REMARK                         _______ _______ _______ _____ _____    ______ ____
ROOT
ATOM      1  C   UNL     1     -11.659  15.235  69.008  0.00  0.00    +0.162 C 
ENDROOT
BRANCH   1   2
ATOM      2  C   UNL     1     -10.601  15.397  67.963  0.00  0.00    +0.105 C 
ATOM      3  N   UNL     1      -9.317  15.251  68.588  0.00  0.00    -0.212 NA
ATOM      4  C   UNL     1      -8.609  16.518  68.737  0.00  0.00    +0.109 C 
ATOM      5  C   UNL     1      -8.205  17.059  67.404  0.00  0.00    +0.095 C 
ATOM      6  N   UNL     1      -7.938  18.480  67.411  0.00  0.00    -0.207 NA
ATOM      7  C   UNL     1      -7.317  18.745  66.148  0.00  0.00    +0.241 C 
ATOM      8  O   UNL     1      -7.511  19.712  65.357  0.00  0.00    -0.273 OA
ATOM      9  C   UNL     1      -6.392  17.589  65.943  0.00  0.00    +0.089 C 
ATOM     10  C   UNL     1      -6.921  16.501  66.870  0.00  0.00    +0.031 C 
ATOM     11  C   UNL     1      -9.365  16.842  66.456  0.00  0.00    +0.023 C 
ATOM     12  C   UNL     1     -10.616  16.782  67.325  0.00  0.00    +0.024 C 
BRANCH   2  13
ATOM     13  C   UNL     1     -10.794  14.438  66.835  0.00  0.00    -0.006 A 
ATOM     14  C   UNL     1      -9.804  13.649  66.327  0.00  0.00    -0.003 A 
ATOM     15  C   UNL     1     -10.158  12.743  65.336  0.00  0.00    -0.000 A 
ATOM     16  C   UNL     1     -11.398  12.753  64.737  0.00  0.00    -0.000 A 
ATOM     17  C   UNL     1     -12.442  13.356  65.421  0.00  0.00    -0.000 A 
ATOM     18  C   UNL     1     -12.115  14.214  66.463  0.00  0.00    -0.003 A 
ENDBRANCH   2  13
ENDBRANCH   1   2
BRANCH   1  19
ATOM     19  O   UNL     1     -11.338  14.277  69.984  0.00  0.00    -0.350 OA
BRANCH  19  21
ATOM     20  C   UNL     1     -12.847  13.893  71.710  0.00  0.00    +0.037 C 
ATOM     21  C   UNL     1     -12.736  13.603  70.048  0.00  0.00    +0.138 C 
BRANCH  21  22
ATOM     22  C   UNL     1     -12.069  12.110  70.244  0.00  0.00    +0.004 A 
ATOM     23  C   UNL     1     -11.242  11.735  69.223  0.00  0.00    +0.002 A 
ATOM     24  C   UNL     1     -10.898  10.390  69.162  0.00  0.00    +0.071 A 
ATOM     25  C   UNL     1     -11.350   9.553  70.174  0.00  0.00    +0.008 A 
ATOM     26  C   UNL     1     -12.106  10.023  71.244  0.00  0.00    +0.071 A 
ATOM     27  C   UNL     1     -12.469  11.370  71.287  0.00  0.00    +0.002 A 
BRANCH  24  28
ATOM     28  C   UNL     1     -10.519   9.844  67.824  0.00  0.00    +0.419 C 
ATOM     29  F   UNL     1      -9.252  10.194  67.446  0.00  0.00    -0.166 F 
ATOM     30  F   UNL     1     -11.419  10.272  66.885  0.00  0.00    -0.166 F 
ATOM     31  F   UNL     1     -10.549   8.464  67.958  0.00  0.00    -0.166 F 
ENDBRANCH  24  28
BRANCH  26  32
ATOM     32  C   UNL     1     -12.935   8.971  71.917  0.00  0.00    +0.419 C 
ATOM     33  F   UNL     1     -13.282   7.980  71.039  0.00  0.00    -0.166 F 
ATOM     34  F   UNL     1     -12.207   8.375  72.944  0.00  0.00    -0.166 F 
ATOM     35  F   UNL     1     -14.019   9.563  72.532  0.00  0.00    -0.166 F 
ENDBRANCH  26  32
ENDBRANCH  21  22
ENDBRANCH  19  21
ENDBRANCH   1  19
TORSDOF 7
ENDMDL
MODEL 5
REMARK VINA RESULT:      -8.1      3.868      8.695
REMARK  Name = 
REMARK  7 active torsions:
REMARK  status: ('A' for Active; 'I' for Inactive)
REMARK    1  A    between atoms: C_2  and  O_3
REMARK    2  A    between atoms: C_2  and  C_22
REMARK    3  A    between atoms: O_3  and  C_4
REMARK    4  A    between atoms: C_4  and  C_5
REMARK    5  A    between atoms: C_5  and  C_6
REMARK    6  A    between atoms: C_24  and  C_25
REMARK    7  A    between atoms: C_30  and  C_31
REMARK                            x       y       z     vdW  Elec       q    Type
REMARK                         _______ _______ _______ _____ _____    ______ ____
ROOT
ATOM      1  C   UNL     1      -8.442  19.325  66.363  0.00  0.00    +0.162 C 
ENDROOT
BRANCH   1   2
ATOM      2  C   UNL     1      -7.062  19.508  66.911  0.00  0.00    +0.105 C 
ATOM      3  N   UNL     1      -6.774  18.415  67.796  0.00  0.00    -0.212 NA
ATOM      4  C   UNL     1      -6.805  18.800  69.203  0.00  0.00    +0.109 C 
ATOM      5  C   UNL     1      -5.672  19.720  69.526  0.00  0.00    +0.095 C 
ATOM      6  N   UNL     1      -5.885  20.505  70.721  0.00  0.00    -0.207 NA
ATOM      7  C   UNL     1      -4.612  21.097  71.004  0.00  0.00    +0.241 C 
ATOM      8  O   UNL     1      -4.352  22.277  71.377  0.00  0.00    -0.273 OA
ATOM      9  C   UNL     1      -3.629  20.006  70.726  0.00  0.00    +0.089 C 
ATOM     10  C   UNL     1      -4.378  19.028  69.830  0.00  0.00    +0.031 C 
ATOM     11  C   UNL     1      -5.545  20.701  68.381  0.00  0.00    +0.023 C 
ATOM     12  C   UNL     1      -6.925  20.783  67.737  0.00  0.00    +0.024 C 
BRANCH   2  13
ATOM     13  C   UNL     1      -6.052  19.633  65.818  0.00  0.00    -0.006 A 
ATOM     14  C   UNL     1      -5.025  18.756  65.626  0.00  0.00    -0.003 A 
ATOM     15  C   UNL     1      -4.219  18.955  64.513  0.00  0.00    -0.000 A 
ATOM     16  C   UNL     1      -4.305  20.087  63.733  0.00  0.00    -0.000 A 
ATOM     17  C   UNL     1      -5.485  20.813  63.777  0.00  0.00    -0.000 A 
ATOM     18  C   UNL     1      -6.342  20.581  64.844  0.00  0.00    -0.003 A 
ENDBRANCH   2  13
ENDBRANCH   1   2
BRANCH   1  19
ATOM     19  O   UNL     1      -8.731  17.997  66.010  0.00  0.00    -0.350 OA
BRANCH  19  21
ATOM     20  C   UNL     1     -10.303  18.774  67.536  0.00  0.00    +0.037 C 
ATOM     21  C   UNL     1     -10.277  18.149  65.966  0.00  0.00    +0.138 C 
BRANCH  21  22
ATOM     22  C   UNL     1     -10.501  16.595  66.463  0.00  0.00    +0.004 A 
ATOM     23  C   UNL     1     -10.701  15.711  65.442  0.00  0.00    +0.002 A 
ATOM     24  C   UNL     1     -11.202  14.461  65.789  0.00  0.00    +0.071 A 
ATOM     25  C   UNL     1     -11.384  14.183  67.138  0.00  0.00    +0.008 A 
ATOM     26  C   UNL     1     -11.061  15.097  68.136  0.00  0.00    +0.071 A 
ATOM     27  C   UNL     1     -10.581  16.358  67.780  0.00  0.00    +0.002 A 
BRANCH  24  28
ATOM     28  C   UNL     1     -11.960  13.716  64.740  0.00  0.00    +0.419 C 
ATOM     29  F   UNL     1     -12.559  14.542  63.829  0.00  0.00    -0.166 F 
ATOM     30  F   UNL     1     -12.900  12.918  65.335  0.00  0.00    -0.166 F 
ATOM     31  F   UNL     1     -11.015  12.960  64.060  0.00  0.00    -0.166 F 
ENDBRANCH  24  28
BRANCH  26  32
ATOM     32  C   UNL     1     -11.788  14.876  69.428  0.00  0.00    +0.419 C 
ATOM     33  F   UNL     1     -12.463  13.685  69.416  0.00  0.00    -0.166 F 
ATOM     34  F   UNL     1     -10.881  14.825  70.483  0.00  0.00    -0.166 F 
ATOM     35  F   UNL     1     -12.598  15.961  69.692  0.00  0.00    -0.166 F 
ENDBRANCH  26  32
ENDBRANCH  21  22
ENDBRANCH  19  21
ENDBRANCH   1  19
TORSDOF 7
ENDMDL
MODEL 6
REMARK VINA RESULT:      -8.0      3.769      7.217
REMARK  Name = 
REMARK  7 active torsions:
REMARK  status: ('A' for Active; 'I' for Inactive)
REMARK    1  A    between atoms: C_2  and  O_3
REMARK    2  A    between atoms: C_2  and  C_22
REMARK    3  A    between atoms: O_3  and  C_4
REMARK    4  A    between atoms: C_4  and  C_5
REMARK    5  A    between atoms: C_5  and  C_6
REMARK    6  A    between atoms: C_24  and  C_25
REMARK    7  A    between atoms: C_30  and  C_31
REMARK                            x       y       z     vdW  Elec       q    Type
REMARK                         _______ _______ _______ _____ _____    ______ ____
ROOT
ATOM      1  C   UNL     1      -6.577  16.405  68.259  0.00  0.00    +0.162 C 
ENDROOT
BRANCH   1   2
ATOM      2  C   UNL     1      -6.682  17.579  67.337  0.00  0.00    +0.105 C 
ATOM      3  N   UNL     1      -6.233  17.175  66.034  0.00  0.00    -0.212 NA
ATOM      4  C   UNL     1      -4.918  17.707  65.695  0.00  0.00    +0.109 C 
ATOM      5  C   UNL     1      -4.976  19.189  65.518  0.00  0.00    +0.095 C 
ATOM      6  N   UNL     1      -3.691  19.840  65.651  0.00  0.00    -0.207 NA
ATOM      7  C   UNL     1      -3.906  21.178  65.186  0.00  0.00    +0.241 C 
ATOM      8  O   UNL     1      -3.482  22.264  65.675  0.00  0.00    -0.273 OA
ATOM      9  C   UNL     1      -4.787  21.015  63.990  0.00  0.00    +0.089 C 
ATOM     10  C   UNL     1      -5.414  19.636  64.156  0.00  0.00    +0.031 C 
ATOM     11  C   UNL     1      -5.857  19.743  66.616  0.00  0.00    +0.023 C 
ATOM     12  C   UNL     1      -5.788  18.739  67.762  0.00  0.00    +0.024 C 
BRANCH   2  13
ATOM     13  C   UNL     1      -8.069  18.133  67.312  0.00  0.00    -0.006 A 
ATOM     14  C   UNL     1      -8.953  17.927  66.294  0.00  0.00    -0.003 A 
ATOM     15  C   UNL     1     -10.236  18.434  66.455  0.00  0.00    -0.000 A 
ATOM     16  C   UNL     1     -10.572  19.276  67.492  0.00  0.00    -0.000 A 
ATOM     17  C   UNL     1      -9.769  19.260  68.623  0.00  0.00    -0.000 A 
ATOM     18  C   UNL     1      -8.507  18.695  68.505  0.00  0.00    -0.003 A 
ENDBRANCH   2  13
ENDBRANCH   1   2
BRANCH   1  19
ATOM     19  O   UNL     1      -7.051  15.209  67.698  0.00  0.00    -0.350 OA
BRANCH  19  21
ATOM     20  C   UNL     1      -7.637  13.044  68.308  0.00  0.00    +0.037 C 
ATOM     21  C   UNL     1      -7.565  14.575  69.020  0.00  0.00    +0.138 C 
BRANCH  21  22
ATOM     22  C   UNL     1      -9.129  14.938  68.653  0.00  0.00    +0.004 A 
ATOM     23  C   UNL     1      -9.817  15.520  69.679  0.00  0.00    +0.002 A 
ATOM     24  C   UNL     1     -11.201  15.567  69.554  0.00  0.00    +0.071 A 
ATOM     25  C   UNL     1     -11.766  15.095  68.376  0.00  0.00    +0.008 A 
ATOM     26  C   UNL     1     -10.995  14.609  67.325  0.00  0.00    +0.071 A 
ATOM     27  C   UNL     1      -9.609  14.543  67.466  0.00  0.00    +0.002 A 
BRANCH  24  28
ATOM     28  C   UNL     1     -11.997  15.635  70.817  0.00  0.00    +0.419 C 
ATOM     29  F   UNL     1     -13.341  15.745  70.593  0.00  0.00    -0.166 F 
ATOM     30  F   UNL     1     -11.563  16.692  71.573  0.00  0.00    -0.166 F 
ATOM     31  F   UNL     1     -11.777  14.429  71.465  0.00  0.00    -0.166 F 
ENDBRANCH  24  28
BRANCH  26  32
ATOM     32  C   UNL     1     -11.730  13.682  66.404  0.00  0.00    +0.419 C 
ATOM     33  F   UNL     1     -12.080  12.524  67.047  0.00  0.00    -0.166 F 
ATOM     34  F   UNL     1     -12.908  14.280  65.965  0.00  0.00    -0.166 F 
ATOM     35  F   UNL     1     -10.978  13.471  65.267  0.00  0.00    -0.166 F 
ENDBRANCH  26  32
ENDBRANCH  21  22
ENDBRANCH  19  21
ENDBRANCH   1  19
TORSDOF 7
ENDMDL
MODEL 7
REMARK VINA RESULT:      -8.0      4.197      8.237
REMARK  Name = 
REMARK  7 active torsions:
REMARK  status: ('A' for Active; 'I' for Inactive)
REMARK    1  A    between atoms: C_2  and  O_3
REMARK    2  A    between atoms: C_2  and  C_22
REMARK    3  A    between atoms: O_3  and  C_4
REMARK    4  A    between atoms: C_4  and  C_5
REMARK    5  A    between atoms: C_5  and  C_6
REMARK    6  A    between atoms: C_24  and  C_25
REMARK    7  A    between atoms: C_30  and  C_31
REMARK                            x       y       z     vdW  Elec       q    Type
REMARK                         _______ _______ _______ _____ _____    ______ ____
ROOT
ATOM      1  C   UNL     1     -10.044  15.103  67.016  0.00  0.00    +0.162 C 
ENDROOT
BRANCH   1   2
ATOM      2  C   UNL     1      -8.953  16.040  67.430  0.00  0.00    +0.105 C 
ATOM      3  N   UNL     1      -7.746  15.662  66.750  0.00  0.00    -0.212 NA
ATOM      4  C   UNL     1      -6.781  15.006  67.626  0.00  0.00    +0.109 C 
ATOM      5  C   UNL     1      -6.240  15.967  68.633  0.00  0.00    +0.095 C 
ATOM      6  N   UNL     1      -5.669  15.328  69.798  0.00  0.00    -0.207 NA
ATOM      7  C   UNL     1      -4.977  16.374  70.490  0.00  0.00    +0.241 C 
ATOM      8  O   UNL     1      -4.938  16.611  71.731  0.00  0.00    -0.273 OA
ATOM      9  C   UNL     1      -4.323  17.165  69.403  0.00  0.00    +0.089 C 
ATOM     10  C   UNL     1      -5.097  16.803  68.142  0.00  0.00    +0.031 C 
ATOM     11  C   UNL     1      -7.398  16.808  69.125  0.00  0.00    +0.023 C 
ATOM     12  C   UNL     1      -8.651  15.964  68.922  0.00  0.00    +0.024 C 
BRANCH   2  13
ATOM     13  C   UNL     1      -9.326  17.463  67.171  0.00  0.00    -0.006 A 
ATOM     14  C   UNL     1     -10.394  18.086  67.746  0.00  0.00    -0.003 A 
ATOM     15  C   UNL     1     -10.562  19.438  67.476  0.00  0.00    -0.000 A 
ATOM     16  C   UNL     1      -9.818  20.098  66.523  0.00  0.00    -0.000 A 
ATOM     17  C   UNL     1      -8.603  19.542  66.154  0.00  0.00    -0.000 A 
ATOM     18  C   UNL     1      -8.383  18.210  66.475  0.00  0.00    -0.003 A 
ENDBRANCH   2  13
ENDBRANCH   1   2
BRANCH   1  19
ATOM     19  O   UNL     1     -10.840  14.666  68.087  0.00  0.00    -0.350 OA
BRANCH  19  21
ATOM     20  C   UNL     1     -11.883  13.110  66.710  0.00  0.00    +0.037 C 
ATOM     21  C   UNL     1     -10.640  13.142  67.855  0.00  0.00    +0.138 C 
BRANCH  21  22
ATOM     22  C   UNL     1     -11.638  12.763  69.109  0.00  0.00    +0.004 A 
ATOM     23  C   UNL     1     -12.076  13.847  69.815  0.00  0.00    +0.002 A 
ATOM     24  C   UNL     1     -12.655  13.592  71.053  0.00  0.00    +0.071 A 
ATOM     25  C   UNL     1     -12.813  12.267  71.439  0.00  0.00    +0.008 A 
ATOM     26  C   UNL     1     -12.438  11.205  70.622  0.00  0.00    +0.071 A 
ATOM     27  C   UNL     1     -11.836  11.468  69.391  0.00  0.00    +0.002 A 
BRANCH  24  28
ATOM     28  C   UNL     1     -12.606  14.689  72.066  0.00  0.00    +0.419 C 
ATOM     29  F   UNL     1     -13.412  15.746  71.745  0.00  0.00    -0.166 F 
ATOM     30  F   UNL     1     -11.313  15.118  72.213  0.00  0.00    -0.166 F 
ATOM     31  F   UNL     1     -13.090  14.136  73.242  0.00  0.00    -0.166 F 
ENDBRANCH  24  28
BRANCH  26  32
ATOM     32  C   UNL     1     -12.177   9.927  71.361  0.00  0.00    +0.419 C 
ATOM     33  F   UNL     1     -12.931   9.854  72.501  0.00  0.00    -0.166 F 
ATOM     34  F   UNL     1     -12.523   8.838  70.567  0.00  0.00    -0.166 F 
ATOM     35  F   UNL     1     -10.822   9.798  71.592  0.00  0.00    -0.166 F 
ENDBRANCH  26  32
ENDBRANCH  21  22
ENDBRANCH  19  21
ENDBRANCH   1  19
TORSDOF 7
ENDMDL
MODEL 8
REMARK VINA RESULT:      -7.9      1.507      2.314
REMARK  Name = 
REMARK  7 active torsions:
REMARK  status: ('A' for Active; 'I' for Inactive)
REMARK    1  A    between atoms: C_2  and  O_3
REMARK    2  A    between atoms: C_2  and  C_22
REMARK    3  A    between atoms: O_3  and  C_4
REMARK    4  A    between atoms: C_4  and  C_5
REMARK    5  A    between atoms: C_5  and  C_6
REMARK    6  A    between atoms: C_24  and  C_25
REMARK    7  A    between atoms: C_30  and  C_31
REMARK                            x       y       z     vdW  Elec       q    Type
REMARK                         _______ _______ _______ _____ _____    ______ ____
ROOT
ATOM      1  C   UNL     1      -8.711  15.475  69.423  0.00  0.00    +0.162 C 
ENDROOT
BRANCH   1   2
ATOM      2  C   UNL     1      -9.912  14.834  68.804  0.00  0.00    +0.105 C 
ATOM      3  N   UNL     1      -9.533  13.542  68.305  0.00  0.00    -0.212 NA
ATOM      4  C   UNL     1      -9.427  13.502  66.851  0.00  0.00    +0.109 C 
ATOM      5  C   UNL     1     -10.772  13.657  66.218  0.00  0.00    +0.095 C 
ATOM      6  N   UNL     1     -10.718  14.097  64.841  0.00  0.00    -0.207 NA
ATOM      7  C   UNL     1     -12.050  13.920  64.346  0.00  0.00    +0.241 C 
ATOM      8  O   UNL     1     -12.730  14.691  63.609  0.00  0.00    -0.273 OA
ATOM      9  C   UNL     1     -12.490  12.616  64.927  0.00  0.00    +0.089 C 
ATOM     10  C   UNL     1     -11.558  12.386  66.111  0.00  0.00    +0.031 C 
ATOM     11  C   UNL     1     -11.514  14.730  66.986  0.00  0.00    +0.023 C 
ATOM     12  C   UNL     1     -10.445  15.619  67.611  0.00  0.00    +0.024 C 
BRANCH   2  13
ATOM     13  C   UNL     1     -11.050  14.757  69.769  0.00  0.00    -0.006 A 
ATOM     14  C   UNL     1     -11.728  13.609  70.056  0.00  0.00    -0.003 A 
ATOM     15  C   UNL     1     -12.705  13.678  71.041  0.00  0.00    -0.000 A 
ATOM     16  C   UNL     1     -13.126  14.873  71.580  0.00  0.00    -0.000 A 
ATOM     17  C   UNL     1     -12.274  15.962  71.481  0.00  0.00    -0.000 A 
ATOM     18  C   UNL     1     -11.246  15.889  70.551  0.00  0.00    -0.003 A 
ENDBRANCH   2  13
ENDBRANCH   1   2
BRANCH   1  19
ATOM     19  O   UNL     1      -8.292  16.638  68.756  0.00  0.00    -0.350 OA
BRANCH  19  21
ATOM     20  C   UNL     1      -6.511  15.551  69.781  0.00  0.00    +0.037 C 
ATOM     21  C   UNL     1      -6.942  16.074  68.233  0.00  0.00    +0.138 C 
BRANCH  21  22
ATOM     22  C   UNL     1      -6.201  17.535  68.401  0.00  0.00    +0.004 A 
ATOM     23  C   UNL     1      -5.662  17.743  69.638  0.00  0.00    +0.002 A 
ATOM     24  C   UNL     1      -5.304  19.049  69.951  0.00  0.00    +0.071 A 
ATOM     25  C   UNL     1      -5.447  20.019  68.968  0.00  0.00    +0.008 A 
ATOM     26  C   UNL     1      -5.908  19.718  67.689  0.00  0.00    +0.071 A 
ATOM     27  C   UNL     1      -6.288  18.409  67.389  0.00  0.00    +0.002 A 
BRANCH  24  28
ATOM     28  C   UNL     1      -5.275  19.419  71.399  0.00  0.00    +0.419 C 
ATOM     29  F   UNL     1      -6.284  20.272  71.750  0.00  0.00    -0.166 F 
ATOM     30  F   UNL     1      -4.063  19.980  71.703  0.00  0.00    -0.166 F 
ATOM     31  F   UNL     1      -5.470  18.234  72.093  0.00  0.00    -0.166 F 
ENDBRANCH  24  28
BRANCH  26  32
ATOM     32  C   UNL     1      -6.497  20.888  66.960  0.00  0.00    +0.419 C 
ATOM     33  F   UNL     1      -5.734  22.011  67.132  0.00  0.00    -0.166 F 
ATOM     34  F   UNL     1      -6.540  20.625  65.593  0.00  0.00    -0.166 F 
ATOM     35  F   UNL     1      -7.812  21.055  67.343  0.00  0.00    -0.166 F 
ENDBRANCH  26  32
ENDBRANCH  21  22
ENDBRANCH  19  21
ENDBRANCH   1  19
TORSDOF 7
ENDMDL
MODEL 9
REMARK VINA RESULT:      -7.9      1.845      3.128
REMARK  Name = 
REMARK  7 active torsions:
REMARK  status: ('A' for Active; 'I' for Inactive)
REMARK    1  A    between atoms: C_2  and  O_3
REMARK    2  A    between atoms: C_2  and  C_22
REMARK    3  A    between atoms: O_3  and  C_4
REMARK    4  A    between atoms: C_4  and  C_5
REMARK    5  A    between atoms: C_5  and  C_6
REMARK    6  A    between atoms: C_24  and  C_25
REMARK    7  A    between atoms: C_30  and  C_31
REMARK                            x       y       z     vdW  Elec       q    Type
REMARK                         _______ _______ _______ _____ _____    ______ ____
ROOT
ATOM      1  C   UNL     1      -9.453  16.485  68.881  0.00  0.00    +0.162 C 
ENDROOT
BRANCH   1   2
ATOM      2  C   UNL     1     -10.229  15.308  68.380  0.00  0.00    +0.105 C 
ATOM      3  N   UNL     1      -9.305  14.259  68.053  0.00  0.00    -0.212 NA
ATOM      4  C   UNL     1      -9.135  14.079  66.615  0.00  0.00    +0.109 C 
ATOM      5  C   UNL     1     -10.387  13.546  65.996  0.00  0.00    +0.095 C 
ATOM      6  N   UNL     1     -10.475  13.780  64.572  0.00  0.00    -0.207 NA
ATOM      7  C   UNL     1     -11.576  12.975  64.134  0.00  0.00    +0.241 C 
ATOM      8  O   UNL     1     -12.494  13.267  63.315  0.00  0.00    -0.273 OA
ATOM      9  C   UNL     1     -11.426  11.699  64.896  0.00  0.00    +0.089 C 
ATOM     10  C   UNL     1     -10.536  12.057  66.080  0.00  0.00    +0.031 C 
ATOM     11  C   UNL     1     -11.552  14.276  66.628  0.00  0.00    +0.023 C 
ATOM     12  C   UNL     1     -11.003  15.617  67.104  0.00  0.00    +0.024 C 
BRANCH   2  13
ATOM     13  C   UNL     1     -11.257  14.868  69.372  0.00  0.00    -0.006 A 
ATOM     14  C   UNL     1     -11.460  13.569  69.732  0.00  0.00    -0.003 A 
ATOM     15  C   UNL     1     -12.392  13.326  70.732  0.00  0.00    -0.000 A 
ATOM     16  C   UNL     1     -13.228  14.308  71.217  0.00  0.00    -0.000 A 
ATOM     17  C   UNL     1     -12.842  15.628  71.043  0.00  0.00    -0.000 A 
ATOM     18  C   UNL     1     -11.860  15.889  70.097  0.00  0.00    -0.003 A 
ENDBRANCH   2  13
ENDBRANCH   1   2
BRANCH   1  19
ATOM     19  O   UNL     1      -9.145  17.418  67.877  0.00  0.00    -0.350 OA
BRANCH  19  21
ATOM     20  C   UNL     1     -10.474  19.209  67.222  0.00  0.00    +0.037 C 
ATOM     21  C   UNL     1      -9.688  18.671  68.618  0.00  0.00    +0.138 C 
BRANCH  21  22
ATOM     22  C   UNL     1      -8.314  19.523  68.304  0.00  0.00    +0.004 A 
ATOM     23  C   UNL     1      -8.086  19.734  66.974  0.00  0.00    +0.002 A 
ATOM     24  C   UNL     1      -6.811  20.161  66.621  0.00  0.00    +0.071 A 
ATOM     25  C   UNL     1      -5.901  20.413  67.639  0.00  0.00    +0.008 A 
ATOM     26  C   UNL     1      -6.233  20.275  68.984  0.00  0.00    +0.071 A 
ATOM     27  C   UNL     1      -7.507  19.823  69.331  0.00  0.00    +0.002 A 
BRANCH  24  28
ATOM     28  C   UNL     1      -6.349  19.850  65.235  0.00  0.00    +0.419 C 
ATOM     29  F   UNL     1      -6.940  20.639  64.287  0.00  0.00    -0.166 F 
ATOM     30  F   UNL     1      -6.591  18.531  64.958  0.00  0.00    -0.166 F 
ATOM     31  F   UNL     1      -4.990  20.126  65.221  0.00  0.00    -0.166 F 
ENDBRANCH  24  28
BRANCH  26  32
ATOM     32  C   UNL     1      -5.057  20.060  69.887  0.00  0.00    +0.419 C 
ATOM     33  F   UNL     1      -4.124  19.250  69.296  0.00  0.00    -0.166 F 
ATOM     34  F   UNL     1      -4.435  21.275  70.158  0.00  0.00    -0.166 F 
ATOM     35  F   UNL     1      -5.494  19.589  71.108  0.00  0.00    -0.166 F 
ENDBRANCH  26  32
ENDBRANCH  21  22
ENDBRANCH  19  21
ENDBRANCH   1  19
TORSDOF 7
ENDMDL
