MODEL 1
REMARK VINA RESULT:      -8.2      0.000      0.000
REMARK  Name = 
REMARK  4 active torsions:
REMARK  status: ('A' for Active; 'I' for Inactive)
REMARK    1  A    between atoms: C_2  and  C_3
REMARK    2  A    between atoms: C_2  and  C_8
REMARK    3  A    between atoms: C_3  and  C_4
REMARK    4  A    between atoms: C_4  and  C_5
REMARK                            x       y       z     vdW  Elec       q    Type
REMARK                         _______ _______ _______ _____ _____    ______ ____
ROOT
ATOM      1  C   UNL     1      -7.338  19.098  69.123  0.00  0.00    +0.000 C 
ATOM      2  C   UNL     1      -7.554  17.825  68.180  0.00  0.00    +0.000 C 
ATOM      3  C   UNL     1      -9.115  18.250  67.985  0.00  0.00    +0.002 C 
ATOM      4  C   UNL     1      -9.249  17.054  66.821  0.00  0.00    +0.030 C 
ATOM      5  C   UNL     1      -9.731  16.022  68.060  0.00  0.00    +0.002 C 
ATOM      6  C   UNL     1      -8.180  15.569  68.282  0.00  0.00    +0.000 C 
ATOM      7  C   UNL     1     -10.185  14.731  67.210  0.00  0.00    +0.000 C 
ATOM      8  C   UNL     1      -9.606  15.029  65.739  0.00  0.00    +0.005 C 
ATOM      9  C   UNL     1     -10.379  13.857  64.910  0.00  0.00    +0.033 C 
ATOM     10  C   UNL     1     -10.524  12.636  65.989  0.00  0.00    +0.152 C 
ATOM     11  C   UNL     1     -11.952  13.266  66.535  0.00  0.00    +0.033 C 
ATOM     12  O   UNL     1     -11.222  11.746  64.975  0.00  0.00    -0.223 OA
ATOM     13  C   UNL     1     -10.802  16.051  65.312  0.00  0.00    +0.033 C 
ATOM     14  C   UNL     1      -9.434  13.680  67.935  0.00  0.00    +0.000 C 
ATOM     15  C   UNL     1     -11.634  14.565  67.213  0.00  0.00    +0.003 C 
ATOM     16  C   UNL     1     -10.862  17.244  66.420  0.00  0.00    +0.152 C 
ATOM     17  O   UNL     1     -10.539  18.295  65.373  0.00  0.00    -0.223 OA
ATOM     18  C   UNL     1      -8.660  19.497  67.065  0.00  0.00    +0.000 C 
ATOM     19  C   UNL     1      -6.985  17.931  66.875  0.00  0.00    +0.000 C 
ATOM     20  C   UNL     1      -7.542  16.670  69.027  0.00  0.00    +0.000 C 
ATOM     21  C   UNL     1      -7.483  20.087  67.847  0.00  0.00    +0.000 C 
ENDROOT
BRANCH   1  23
ATOM     22  C   UNL     1      -5.296  18.114  70.351  0.00  0.00    +0.000 C 
ATOM     23  C   UNL     1      -5.641  19.172  69.186  0.00  0.00    +0.001 C 
BRANCH  23  24
ATOM     24  C   UNL     1      -5.695  20.343  70.316  0.00  0.00    +0.012 C 
BRANCH  24  25
ATOM     25  C   UNL     1      -4.408  21.011  70.371  0.00  0.00    +0.114 C 
BRANCH  25  26
ATOM     26  C   UNL     1      -4.000  21.193  71.746  0.00  0.00    +0.365 C 
ATOM     27  O   UNL     1      -4.586  22.333  72.325  0.00  0.00    -0.246 OA
ATOM     28  O   UNL     1      -3.622  20.244  72.496  0.00  0.00    -0.246 OA
ENDBRANCH  25  26
ENDBRANCH  24  25
ENDBRANCH  23  24
ENDBRANCH   1  23
TORSDOF 4
ENDMDL
MODEL 2
REMARK VINA RESULT:      -7.6      1.623      2.917
REMARK  Name = 
REMARK  4 active torsions:
REMARK  status: ('A' for Active; 'I' for Inactive)
REMARK    1  A    between atoms: C_2  and  C_3
REMARK    2  A    between atoms: C_2  and  C_8
REMARK    3  A    between atoms: C_3  and  C_4
REMARK    4  A    between atoms: C_4  and  C_5
REMARK                            x       y       z     vdW  Elec       q    Type
REMARK                         _______ _______ _______ _____ _____    ______ ____
ROOT
ATOM      1  C   UNL     1      -6.910  18.110  68.029  0.00  0.00    +0.000 C 
ATOM      2  C   UNL     1      -8.310  17.373  67.800  0.00  0.00    +0.000 C 
ATOM      3  C   UNL     1      -7.514  15.993  67.457  0.00  0.00    +0.002 C 
ATOM      4  C   UNL     1      -8.986  15.196  67.458  0.00  0.00    +0.030 C 
ATOM      5  C   UNL     1      -9.061  15.510  65.807  0.00  0.00    +0.002 C 
ATOM      6  C   UNL     1      -9.863  16.897  66.111  0.00  0.00    +0.000 C 
ATOM      7  C   UNL     1     -10.348  14.633  65.396  0.00  0.00    +0.000 C 
ATOM      8  C   UNL     1     -11.010  14.254  66.813  0.00  0.00    +0.005 C 
ATOM      9  C   UNL     1     -12.080  13.131  66.310  0.00  0.00    +0.033 C 
ATOM     10  C   UNL     1     -12.500  13.626  64.809  0.00  0.00    +0.152 C 
ATOM     11  C   UNL     1     -11.232  12.787  64.159  0.00  0.00    +0.033 C 
ATOM     12  O   UNL     1     -13.457  12.459  64.630  0.00  0.00    -0.223 OA
ATOM     13  C   UNL     1      -9.970  13.044  67.144  0.00  0.00    +0.033 C 
ATOM     14  C   UNL     1     -11.114  15.655  64.644  0.00  0.00    +0.000 C 
ATOM     15  C   UNL     1      -9.973  13.454  64.625  0.00  0.00    +0.003 C 
ATOM     16  C   UNL     1      -8.459  13.652  67.089  0.00  0.00    +0.152 C 
ATOM     17  O   UNL     1      -8.222  13.319  68.551  0.00  0.00    -0.223 OA
ATOM     18  C   UNL     1      -7.105  15.843  69.013  0.00  0.00    +0.000 C 
ATOM     19  C   UNL     1      -9.045  17.080  68.989  0.00  0.00    +0.000 C 
ATOM     20  C   UNL     1      -8.843  17.861  66.564  0.00  0.00    +0.000 C 
ATOM     21  C   UNL     1      -6.669  17.262  69.389  0.00  0.00    +0.000 C 
ENDROOT
BRANCH   1  23
ATOM     22  C   UNL     1      -7.091  20.663  67.718  0.00  0.00    +0.000 C 
ATOM     23  C   UNL     1      -7.414  19.529  68.817  0.00  0.00    +0.001 C 
BRANCH  23  24
ATOM     24  C   UNL     1      -5.927  19.759  69.438  0.00  0.00    +0.012 C 
BRANCH  24  25
ATOM     25  C   UNL     1      -6.049  20.357  70.755  0.00  0.00    +0.114 C 
BRANCH  25  26
ATOM     26  C   UNL     1      -4.739  20.573  71.327  0.00  0.00    +0.365 C 
ATOM     27  O   UNL     1      -4.407  21.938  71.387  0.00  0.00    -0.246 OA
ATOM     28  O   UNL     1      -4.185  19.766  72.133  0.00  0.00    -0.246 OA
ENDBRANCH  25  26
ENDBRANCH  24  25
ENDBRANCH  23  24
ENDBRANCH   1  23
TORSDOF 4
ENDMDL
MODEL 3
REMARK VINA RESULT:      -7.6      5.919      9.413
REMARK  Name = 
REMARK  4 active torsions:
REMARK  status: ('A' for Active; 'I' for Inactive)
REMARK    1  A    between atoms: C_2  and  C_3
REMARK    2  A    between atoms: C_2  and  C_8
REMARK    3  A    between atoms: C_3  and  C_4
REMARK    4  A    between atoms: C_4  and  C_5
REMARK                            x       y       z     vdW  Elec       q    Type
REMARK                         _______ _______ _______ _____ _____    ______ ____
ROOT
ATOM      1  C   UNL     1     -11.087  11.681  67.025  0.00  0.00    +0.000 C 
ATOM      2  C   UNL     1     -10.565  11.043  68.395  0.00  0.00    +0.000 C 
ATOM      3  C   UNL     1     -10.782   9.553  67.770  0.00  0.00    +0.002 C 
ATOM      4  C   UNL     1     -10.012   8.924  69.116  0.00  0.00    +0.030 C 
ATOM      5  C   UNL     1     -11.535   8.800  69.823  0.00  0.00    +0.002 C 
ATOM      6  C   UNL     1     -11.352  10.287  70.469  0.00  0.00    +0.000 C 
ATOM      7  C   UNL     1     -11.177   7.969  71.156  0.00  0.00    +0.000 C 
ATOM      8  C   UNL     1      -9.571   8.039  71.219  0.00  0.00    +0.005 C 
ATOM      9  C   UNL     1      -9.307   6.927  72.383  0.00  0.00    +0.033 C 
ATOM     10  C   UNL     1     -10.618   7.047  73.353  0.00  0.00    +0.152 C 
ATOM     11  C   UNL     1     -11.432   5.953  72.418  0.00  0.00    +0.033 C 
ATOM     12  O   UNL     1     -10.097   5.969  74.288  0.00  0.00    -0.223 OA
ATOM     13  C   UNL     1      -9.327   6.866  70.113  0.00  0.00    +0.033 C 
ATOM     14  C   UNL     1     -11.842   8.825  72.166  0.00  0.00    +0.000 C 
ATOM     15  C   UNL     1     -11.672   6.600  71.086  0.00  0.00    +0.003 C 
ATOM     16  C   UNL     1     -10.107   7.295  68.748  0.00  0.00    +0.152 C 
ATOM     17  O   UNL     1      -8.807   7.337  67.965  0.00  0.00    -0.223 OA
ATOM     18  C   UNL     1      -9.514   9.780  66.794  0.00  0.00    +0.000 C 
ATOM     19  C   UNL     1      -9.158  11.141  68.615  0.00  0.00    +0.000 C 
ATOM     20  C   UNL     1     -11.597  11.237  69.368  0.00  0.00    +0.000 C 
ATOM     21  C   UNL     1      -9.736  11.201  66.269  0.00  0.00    +0.000 C 
ENDROOT
BRANCH   1  23
ATOM     22  C   UNL     1     -11.966  14.022  67.651  0.00  0.00    +0.000 C 
ATOM     23  C   UNL     1     -10.596  13.297  67.211  0.00  0.00    +0.001 C 
BRANCH  23  24
ATOM     24  C   UNL     1     -10.962  13.628  65.659  0.00  0.00    +0.012 C 
BRANCH  24  25
ATOM     25  C   UNL     1     -10.649  15.018  65.383  0.00  0.00    +0.114 C 
BRANCH  25  26
ATOM     26  C   UNL     1     -11.492  15.516  64.319  0.00  0.00    +0.365 C 
ATOM     27  O   UNL     1     -12.603  14.684  64.092  0.00  0.00    -0.246 OA
ATOM     28  O   UNL     1     -11.558  16.739  63.993  0.00  0.00    -0.246 OA
ENDBRANCH  25  26
ENDBRANCH  24  25
ENDBRANCH  23  24
ENDBRANCH   1  23
TORSDOF 4
ENDMDL
MODEL 4
REMARK VINA RESULT:      -7.5      1.610      8.221
REMARK  Name = 
REMARK  4 active torsions:
REMARK  status: ('A' for Active; 'I' for Inactive)
REMARK    1  A    between atoms: C_2  and  C_3
REMARK    2  A    between atoms: C_2  and  C_8
REMARK    3  A    between atoms: C_3  and  C_4
REMARK    4  A    between atoms: C_4  and  C_5
REMARK                            x       y       z     vdW  Elec       q    Type
REMARK                         _______ _______ _______ _____ _____    ______ ____
ROOT
ATOM      1  C   UNL     1      -8.983  16.643  66.617  0.00  0.00    +0.000 C 
ATOM      2  C   UNL     1      -8.346  17.427  67.856  0.00  0.00    +0.000 C 
ATOM      3  C   UNL     1      -7.474  18.333  66.818  0.00  0.00    +0.002 C 
ATOM      4  C   UNL     1      -7.009  19.288  68.111  0.00  0.00    +0.030 C 
ATOM      5  C   UNL     1      -5.677  18.272  68.272  0.00  0.00    +0.002 C 
ATOM      6  C   UNL     1      -6.517  17.344  69.318  0.00  0.00    +0.000 C 
ATOM      7  C   UNL     1      -4.823  19.076  69.377  0.00  0.00    +0.000 C 
ATOM      8  C   UNL     1      -5.864  20.170  69.931  0.00  0.00    +0.005 C 
ATOM      9  C   UNL     1      -4.832  21.108  70.776  0.00  0.00    +0.033 C 
ATOM     10  C   UNL     1      -3.690  20.065  71.308  0.00  0.00    +0.152 C 
ATOM     11  C   UNL     1      -2.825  20.275  69.915  0.00  0.00    +0.033 C 
ATOM     12  O   UNL     1      -2.935  21.169  72.029  0.00  0.00    -0.223 OA
ATOM     13  C   UNL     1      -5.686  21.194  68.674  0.00  0.00    +0.033 C 
ATOM     14  C   UNL     1      -4.561  17.976  70.335  0.00  0.00    +0.000 C 
ATOM     15  C   UNL     1      -3.631  19.685  68.798  0.00  0.00    +0.003 C 
ATOM     16  C   UNL     1      -6.021  20.372  67.307  0.00  0.00    +0.152 C 
ATOM     17  O   UNL     1      -7.187  21.289  66.987  0.00  0.00    -0.223 OA
ATOM     18  C   UNL     1      -8.820  19.103  66.362  0.00  0.00    +0.000 C 
ATOM     19  C   UNL     1      -9.217  18.356  68.502  0.00  0.00    +0.000 C 
ATOM     20  C   UNL     1      -7.429  16.531  68.493  0.00  0.00    +0.000 C 
ATOM     21  C   UNL     1      -9.827  17.961  66.196  0.00  0.00    +0.000 C 
ENDROOT
BRANCH   1  23
ATOM     22  C   UNL     1      -9.739  14.347  67.514  0.00  0.00    +0.000 C 
ATOM     23  C   UNL     1     -10.289  15.855  67.368  0.00  0.00    +0.001 C 
BRANCH  23  24
ATOM     24  C   UNL     1     -10.922  15.446  65.925  0.00  0.00    +0.012 C 
BRANCH  24  25
ATOM     25  C   UNL     1     -11.585  14.160  66.045  0.00  0.00    +0.114 C 
BRANCH  25  26
ATOM     26  C   UNL     1     -12.283  13.844  64.819  0.00  0.00    +0.365 C 
ATOM     27  O   UNL     1     -13.065  12.681  64.941  0.00  0.00    -0.246 OA
ATOM     28  O   UNL     1     -12.595  14.710  63.948  0.00  0.00    -0.246 OA
ENDBRANCH  25  26
ENDBRANCH  24  25
ENDBRANCH  23  24
ENDBRANCH   1  23
TORSDOF 4
ENDMDL
MODEL 5
REMARK VINA RESULT:      -7.0      1.761      1.916
REMARK  Name = 
REMARK  4 active torsions:
REMARK  status: ('A' for Active; 'I' for Inactive)
REMARK    1  A    between atoms: C_2  and  C_3
REMARK    2  A    between atoms: C_2  and  C_8
REMARK    3  A    between atoms: C_3  and  C_4
REMARK    4  A    between atoms: C_4  and  C_5
REMARK                            x       y       z     vdW  Elec       q    Type
REMARK                         _______ _______ _______ _____ _____    ______ ____
ROOT
ATOM      1  C   UNL     1      -7.866  18.458  68.474  0.00  0.00    +0.000 C 
ATOM      2  C   UNL     1      -7.966  17.176  67.524  0.00  0.00    +0.000 C 
ATOM      3  C   UNL     1      -9.566  17.438  67.358  0.00  0.00    +0.002 C 
ATOM      4  C   UNL     1      -9.595  16.244  66.187  0.00  0.00    +0.030 C 
ATOM      5  C   UNL     1      -9.947  15.158  67.424  0.00  0.00    +0.002 C 
ATOM      6  C   UNL     1      -8.353  14.867  67.616  0.00  0.00    +0.000 C 
ATOM      7  C   UNL     1     -10.279  13.833  66.570  0.00  0.00    +0.000 C 
ATOM      8  C   UNL     1      -9.760  14.200  65.092  0.00  0.00    +0.005 C 
ATOM      9  C   UNL     1     -10.422  12.960  64.266  0.00  0.00    +0.033 C 
ATOM     10  C   UNL     1     -10.421  11.723  65.337  0.00  0.00    +0.152 C 
ATOM     11  C   UNL     1     -11.897  12.198  65.912  0.00  0.00    +0.033 C 
ATOM     12  O   UNL     1     -11.041  10.772  64.327  0.00  0.00    -0.223 OA
ATOM     13  C   UNL     1     -11.063  15.096  64.694  0.00  0.00    +0.033 C 
ATOM     14  C   UNL     1      -9.410  12.861  67.274  0.00  0.00    +0.000 C 
ATOM     15  C   UNL     1     -11.703  13.518  66.596  0.00  0.00    +0.003 C 
ATOM     16  C   UNL     1     -11.226  16.268  65.814  0.00  0.00    +0.152 C 
ATOM     17  O   UNL     1     -11.031  17.354  64.771  0.00  0.00    -0.223 OA
ATOM     18  C   UNL     1      -9.258  18.733  66.442  0.00  0.00    +0.000 C 
ATOM     19  C   UNL     1      -7.433  17.349  66.211  0.00  0.00    +0.000 C 
ATOM     20  C   UNL     1      -7.819  16.023  68.360  0.00  0.00    +0.000 C 
ATOM     21  C   UNL     1      -8.135  19.436  67.209  0.00  0.00    +0.000 C 
ENDROOT
BRANCH   1  23
ATOM     22  C   UNL     1      -5.765  18.008  69.900  0.00  0.00    +0.000 C 
ATOM     23  C   UNL     1      -6.185  18.707  68.509  0.00  0.00    +0.001 C 
BRANCH  23  24
ATOM     24  C   UNL     1      -6.370  20.111  69.314  0.00  0.00    +0.012 C 
BRANCH  24  25
ATOM     25  C   UNL     1      -5.156  20.895  69.186  0.00  0.00    +0.114 C 
BRANCH  25  26
ATOM     26  C   UNL     1      -4.807  21.049  67.792  0.00  0.00    +0.365 C 
ATOM     27  O   UNL     1      -5.711  21.883  67.109  0.00  0.00    -0.246 OA
ATOM     28  O   UNL     1      -3.627  20.922  67.348  0.00  0.00    -0.246 OA
ENDBRANCH  25  26
ENDBRANCH  24  25
ENDBRANCH  23  24
ENDBRANCH   1  23
TORSDOF 4
ENDMDL
MODEL 6
REMARK VINA RESULT:      -6.9      1.915      7.958
REMARK  Name = 
REMARK  4 active torsions:
REMARK  status: ('A' for Active; 'I' for Inactive)
REMARK    1  A    between atoms: C_2  and  C_3
REMARK    2  A    between atoms: C_2  and  C_8
REMARK    3  A    between atoms: C_3  and  C_4
REMARK    4  A    between atoms: C_4  and  C_5
REMARK                            x       y       z     vdW  Elec       q    Type
REMARK                         _______ _______ _______ _____ _____    ______ ____
ROOT
ATOM      1  C   UNL     1     -10.392  14.824  67.040  0.00  0.00    +0.000 C 
ATOM      2  C   UNL     1      -9.097  15.484  67.705  0.00  0.00    +0.000 C 
ATOM      3  C   UNL     1      -9.632  16.957  67.257  0.00  0.00    +0.002 C 
ATOM      4  C   UNL     1      -8.397  17.632  68.163  0.00  0.00    +0.030 C 
ATOM      5  C   UNL     1      -7.464  17.594  66.763  0.00  0.00    +0.002 C 
ATOM      6  C   UNL     1      -6.904  16.121  67.181  0.00  0.00    +0.000 C 
ATOM      7  C   UNL     1      -6.174  18.431  67.244  0.00  0.00    +0.000 C 
ATOM      8  C   UNL     1      -6.358  18.517  68.840  0.00  0.00    +0.005 C 
ATOM      9  C   UNL     1      -5.212  19.627  69.175  0.00  0.00    +0.033 C 
ATOM     10  C   UNL     1      -4.058  19.362  68.047  0.00  0.00    +0.152 C 
ATOM     11  C   UNL     1      -4.821  20.388  67.000  0.00  0.00    +0.033 C 
ATOM     12  O   UNL     1      -3.177  20.468  68.604  0.00  0.00    -0.223 OA
ATOM     13  C   UNL     1      -7.449  19.729  68.798  0.00  0.00    +0.033 C 
ATOM     14  C   UNL     1      -5.103  17.496  66.825  0.00  0.00    +0.000 C 
ATOM     15  C   UNL     1      -6.121  19.747  66.618  0.00  0.00    +0.003 C 
ATOM     16  C   UNL     1      -8.693  19.251  67.861  0.00  0.00    +0.152 C 
ATOM     17  O   UNL     1      -9.665  19.351  69.022  0.00  0.00    -0.223 OA
ATOM     18  C   UNL     1     -10.796  16.873  68.374  0.00  0.00    +0.000 C 
ATOM     19  C   UNL     1      -9.097  15.519  69.133  0.00  0.00    +0.000 C 
ATOM     20  C   UNL     1      -7.985  15.171  66.859  0.00  0.00    +0.000 C 
ATOM     21  C   UNL     1     -11.328  15.447  68.206  0.00  0.00    +0.000 C 
ENDROOT
BRANCH   1  23
ATOM     22  C   UNL     1      -9.726  12.395  66.488  0.00  0.00    +0.000 C 
ATOM     23  C   UNL     1     -10.337  13.260  67.703  0.00  0.00    +0.001 C 
BRANCH  23  24
ATOM     24  C   UNL     1     -11.829  12.927  67.141  0.00  0.00    +0.012 C 
BRANCH  24  25
ATOM     25  C   UNL     1     -11.717  12.317  65.829  0.00  0.00    +0.114 C 
BRANCH  25  26
ATOM     26  C   UNL     1     -12.606  12.974  64.897  0.00  0.00    +0.365 C 
ATOM     27  O   UNL     1     -13.074  12.096  63.904  0.00  0.00    -0.246 OA
ATOM     28  O   UNL     1     -13.291  14.000  65.188  0.00  0.00    -0.246 OA
ENDBRANCH  25  26
ENDBRANCH  24  25
ENDBRANCH  23  24
ENDBRANCH   1  23
TORSDOF 4
ENDMDL
MODEL 7
REMARK VINA RESULT:      -6.9      2.585      7.545
REMARK  Name = 
REMARK  4 active torsions:
REMARK  status: ('A' for Active; 'I' for Inactive)
REMARK    1  A    between atoms: C_2  and  C_3
REMARK    2  A    between atoms: C_2  and  C_8
REMARK    3  A    between atoms: C_3  and  C_4
REMARK    4  A    between atoms: C_4  and  C_5
REMARK                            x       y       z     vdW  Elec       q    Type
REMARK                         _______ _______ _______ _____ _____    ______ ____
ROOT
ATOM      1  C   UNL     1     -10.448  14.395  67.375  0.00  0.00    +0.000 C 
ATOM      2  C   UNL     1      -9.259  15.387  67.770  0.00  0.00    +0.000 C 
ATOM      3  C   UNL     1     -10.057  16.612  67.049  0.00  0.00    +0.002 C 
ATOM      4  C   UNL     1      -8.920  17.666  67.679  0.00  0.00    +0.030 C 
ATOM      5  C   UNL     1      -8.054  17.449  66.252  0.00  0.00    +0.002 C 
ATOM      6  C   UNL     1      -7.232  16.221  66.943  0.00  0.00    +0.000 C 
ATOM      7  C   UNL     1      -6.907  18.568  66.429  0.00  0.00    +0.000 C 
ATOM      8  C   UNL     1      -7.037  18.994  67.975  0.00  0.00    +0.005 C 
ATOM      9  C   UNL     1      -6.085  20.318  67.962  0.00  0.00    +0.033 C 
ATOM     10  C   UNL     1      -4.950  19.981  66.832  0.00  0.00    +0.152 C 
ATOM     11  C   UNL     1      -5.922  20.602  65.647  0.00  0.00    +0.033 C 
ATOM     12  O   UNL     1      -4.251  21.312  67.055  0.00  0.00    -0.223 OA
ATOM     13  C   UNL     1      -8.320  19.975  67.753  0.00  0.00    +0.033 C 
ATOM     14  C   UNL     1      -5.711  17.741  66.145  0.00  0.00    +0.000 C 
ATOM     15  C   UNL     1      -7.108  19.693  65.524  0.00  0.00    +0.003 C 
ATOM     16  C   UNL     1      -9.501  19.102  67.048  0.00  0.00    +0.152 C 
ATOM     17  O   UNL     1     -10.427  19.315  68.232  0.00  0.00    -0.223 OA
ATOM     18  C   UNL     1     -11.142  16.609  68.246  0.00  0.00    +0.000 C 
ATOM     19  C   UNL     1      -9.205  15.754  69.149  0.00  0.00    +0.000 C 
ATOM     20  C   UNL     1      -8.147  15.065  66.928  0.00  0.00    +0.000 C 
ATOM     21  C   UNL     1     -11.428  15.118  68.444  0.00  0.00    +0.000 C 
ENDROOT
BRANCH   1  23
ATOM     22  C   UNL     1      -9.569  11.972  67.295  0.00  0.00    +0.000 C 
ATOM     23  C   UNL     1     -10.098  13.057  68.363  0.00  0.00    +0.001 C 
BRANCH  23  24
ATOM     24  C   UNL     1     -11.602  12.466  68.163  0.00  0.00    +0.012 C 
BRANCH  24  25
ATOM     25  C   UNL     1     -11.638  11.092  68.629  0.00  0.00    +0.114 C 
BRANCH  25  26
ATOM     26  C   UNL     1     -11.860  11.057  70.057  0.00  0.00    +0.365 C 
ATOM     27  O   UNL     1     -10.995  10.156  70.705  0.00  0.00    -0.246 OA
ATOM     28  O   UNL     1     -12.350  12.024  70.714  0.00  0.00    -0.246 OA
ENDBRANCH  25  26
ENDBRANCH  24  25
ENDBRANCH  23  24
ENDBRANCH   1  23
TORSDOF 4
ENDMDL
MODEL 8
REMARK VINA RESULT:      -6.8      6.280      9.764
REMARK  Name = 
REMARK  4 active torsions:
REMARK  status: ('A' for Active; 'I' for Inactive)
REMARK    1  A    between atoms: C_2  and  C_3
REMARK    2  A    between atoms: C_2  and  C_8
REMARK    3  A    between atoms: C_3  and  C_4
REMARK    4  A    between atoms: C_4  and  C_5
REMARK                            x       y       z     vdW  Elec       q    Type
REMARK                         _______ _______ _______ _____ _____    ______ ____
ROOT
ATOM      1  C   UNL     1     -10.210  12.003  68.410  0.00  0.00    +0.000 C 
ATOM      2  C   UNL     1     -10.161  10.444  68.759  0.00  0.00    +0.000 C 
ATOM      3  C   UNL     1     -10.979  10.739  70.137  0.00  0.00    +0.002 C 
ATOM      4  C   UNL     1     -11.119   9.086  70.356  0.00  0.00    +0.030 C 
ATOM      5  C   UNL     1      -9.689   9.167  71.240  0.00  0.00    +0.002 C 
ATOM      6  C   UNL     1      -8.837   8.870  69.881  0.00  0.00    +0.000 C 
ATOM      7  C   UNL     1      -9.623   7.672  71.836  0.00  0.00    +0.000 C 
ATOM      8  C   UNL     1     -10.739   6.882  70.987  0.00  0.00    +0.005 C 
ATOM      9  C   UNL     1     -10.815   5.511  71.867  0.00  0.00    +0.033 C 
ATOM     10  C   UNL     1      -9.296   5.324  72.444  0.00  0.00    +0.152 C 
ATOM     11  C   UNL     1      -9.664   6.253  73.761  0.00  0.00    +0.033 C 
ATOM     12  O   UNL     1      -9.665   4.035  73.160  0.00  0.00    -0.223 OA
ATOM     13  C   UNL     1     -12.006   7.445  71.846  0.00  0.00    +0.033 C 
ATOM     14  C   UNL     1      -8.236   7.316  71.457  0.00  0.00    +0.000 C 
ATOM     15  C   UNL     1      -9.896   7.650  73.268  0.00  0.00    +0.003 C 
ATOM     16  C   UNL     1     -11.955   9.073  71.805  0.00  0.00    +0.152 C 
ATOM     17  O   UNL     1     -13.297   9.142  71.100  0.00  0.00    -0.223 OA
ATOM     18  C   UNL     1     -12.317  11.030  69.280  0.00  0.00    +0.000 C 
ATOM     19  C   UNL     1     -11.036   9.621  67.988  0.00  0.00    +0.000 C 
ATOM     20  C   UNL     1      -8.813  10.141  69.134  0.00  0.00    +0.000 C 
ATOM     21  C   UNL     1     -11.804  11.908  68.134  0.00  0.00    +0.000 C 
ENDROOT
BRANCH   1  23
ATOM     22  C   UNL     1      -8.336  12.727  66.794  0.00  0.00    +0.000 C 
ATOM     23  C   UNL     1      -9.766  11.984  66.769  0.00  0.00    +0.001 C 
BRANCH  23  24
ATOM     24  C   UNL     1     -10.472  13.431  66.521  0.00  0.00    +0.012 C 
BRANCH  24  25
ATOM     25  C   UNL     1     -10.764  13.580  65.108  0.00  0.00    +0.114 C 
BRANCH  25  26
ATOM     26  C   UNL     1     -12.194  13.651  64.900  0.00  0.00    +0.365 C 
ATOM     27  O   UNL     1     -12.561  14.765  64.125  0.00  0.00    -0.246 OA
ATOM     28  O   UNL     1     -12.955  12.638  64.927  0.00  0.00    -0.246 OA
ENDBRANCH  25  26
ENDBRANCH  24  25
ENDBRANCH  23  24
ENDBRANCH   1  23
TORSDOF 4
ENDMDL
MODEL 9
REMARK VINA RESULT:      -6.7      6.053      9.284
REMARK  Name = 
REMARK  4 active torsions:
REMARK  status: ('A' for Active; 'I' for Inactive)
REMARK    1  A    between atoms: C_2  and  C_3
REMARK    2  A    between atoms: C_2  and  C_8
REMARK    3  A    between atoms: C_3  and  C_4
REMARK    4  A    between atoms: C_4  and  C_5
REMARK                            x       y       z     vdW  Elec       q    Type
REMARK                         _______ _______ _______ _____ _____    ______ ____
ROOT
ATOM      1  C   UNL     1      -9.626   9.083  70.548  0.00  0.00    +0.000 C 
ATOM      2  C   UNL     1     -10.446   9.675  69.310  0.00  0.00    +0.000 C 
ATOM      3  C   UNL     1      -9.085  10.384  68.763  0.00  0.00    +0.002 C 
ATOM      4  C   UNL     1      -9.910  10.787  67.363  0.00  0.00    +0.030 C 
ATOM      5  C   UNL     1     -10.309  12.237  68.117  0.00  0.00    +0.002 C 
ATOM      6  C   UNL     1     -11.683  11.562  68.679  0.00  0.00    +0.000 C 
ATOM      7  C   UNL     1     -10.979  13.036  66.888  0.00  0.00    +0.000 C 
ATOM      8  C   UNL     1     -11.193  11.895  65.774  0.00  0.00    +0.005 C 
ATOM      9  C   UNL     1     -11.559  12.842  64.498  0.00  0.00    +0.033 C 
ATOM     10  C   UNL     1     -12.330  14.123  65.161  0.00  0.00    +0.152 C 
ATOM     11  C   UNL     1     -10.885  14.896  65.388  0.00  0.00    +0.033 C 
ATOM     12  O   UNL     1     -12.545  14.770  63.803  0.00  0.00    -0.223 OA
ATOM     13  C   UNL     1      -9.644  11.893  65.264  0.00  0.00    +0.033 C 
ATOM     14  C   UNL     1     -12.240  13.470  67.534  0.00  0.00    +0.000 C 
ATOM     15  C   UNL     1     -10.123  14.118  66.418  0.00  0.00    +0.003 C 
ATOM     16  C   UNL     1      -8.693  11.601  66.554  0.00  0.00    +0.152 C 
ATOM     17  O   UNL     1      -8.167  10.320  65.934  0.00  0.00    -0.223 OA
ATOM     18  C   UNL     1      -8.500   8.937  68.345  0.00  0.00    +0.000 C 
ATOM     19  C   UNL     1     -10.791   8.727  68.300  0.00  0.00    +0.000 C 
ATOM     20  C   UNL     1     -11.281  10.720  69.821  0.00  0.00    +0.000 C 
ATOM     21  C   UNL     1      -8.836   8.069  69.561  0.00  0.00    +0.000 C 
ENDROOT
BRANCH   1  23
ATOM     22  C   UNL     1     -11.620   8.774  72.154  0.00  0.00    +0.000 C 
ATOM     23  C   UNL     1     -10.715   7.917  71.132  0.00  0.00    +0.001 C 
BRANCH  23  24
ATOM     24  C   UNL     1      -9.723   7.554  72.372  0.00  0.00    +0.012 C 
BRANCH  24  25
ATOM     25  C   UNL     1     -10.502   6.968  73.447  0.00  0.00    +0.114 C 
BRANCH  25  26
ATOM     26  C   UNL     1      -9.641   6.636  74.561  0.00  0.00    +0.365 C 
ATOM     27  O   UNL     1     -10.087   5.496  75.253  0.00  0.00    -0.246 OA
ATOM     28  O   UNL     1      -8.415   6.953  74.616  0.00  0.00    -0.246 OA
ENDBRANCH  25  26
ENDBRANCH  24  25
ENDBRANCH  23  24
ENDBRANCH   1  23
TORSDOF 4
ENDMDL
