MODEL 1
REMARK VINA RESULT:      -5.3      0.000      0.000
REMARK  Name = 
REMARK  3 active torsions:
REMARK  status: ('A' for Active; 'I' for Inactive)
REMARK    1  A    between atoms: N_4  and  C_5
REMARK    2  A    between atoms: C_8  and  N_9
REMARK    3  A    between atoms: C_15  and  C_16
REMARK                            x       y       z     vdW  Elec       q    Type
REMARK                         _______ _______ _______ _____ _____    ______ ____
ROOT
ATOM      1  C   UNL     1     -10.675  13.031  66.667  0.00  0.00    +0.085 A 
ATOM      2  C   UNL     1     -10.587  14.339  67.129  0.00  0.00    +0.053 A 
ATOM      3  I   UNL     1      -9.816  15.772  65.777  0.00  0.00    -0.041 I 
ATOM      4  C   UNL     1     -10.945  14.690  68.420  0.00  0.00    +0.093 A 
ATOM      5  C   UNL     1     -11.459  13.675  69.216  0.00  0.00    +0.053 A 
ATOM      6  I   UNL     1     -12.449  14.210  70.976  0.00  0.00    -0.041 I 
ATOM      7  C   UNL     1     -11.294  12.346  68.852  0.00  0.00    +0.085 A 
ATOM      8  C   UNL     1     -11.018  12.015  67.552  0.00  0.00    +0.061 A 
ATOM      9  I   UNL     1     -10.418  10.070  67.079  0.00  0.00    -0.040 I 
ENDROOT
BRANCH   1  12
ATOM     10  C   UNL     1     -12.697  11.766  63.773  0.00  0.00    +0.097 C 
ATOM     11  C   UNL     1     -12.276  12.720  64.837  0.00  0.00    +0.246 C 
ATOM     12  N   UNL     1     -10.931  12.748  65.286  0.00  0.00    -0.178 NA
ATOM     13  O   UNL     1     -12.996  13.697  65.198  0.00  0.00    -0.273 OA
ENDBRANCH   1  12
BRANCH   7  14
ATOM     14  N   UNL     1     -11.303  11.394  69.923  0.00  0.00    -0.178 NA
ATOM     15  C   UNL     1     -12.503  10.730  70.325  0.00  0.00    +0.246 C 
ATOM     16  O   UNL     1     -13.286  10.412  69.380  0.00  0.00    -0.273 OA
ATOM     17  C   UNL     1     -12.921  10.648  71.760  0.00  0.00    +0.097 C 
ENDBRANCH   7  14
BRANCH   4  18
ATOM     18  C   UNL     1     -10.646  16.020  68.932  0.00  0.00    +0.389 C 
ATOM     19  O   UNL     1     -11.473  17.116  68.694  0.00  0.00    -0.241 OA
ATOM     20  O   UNL     1      -9.543  16.281  69.486  0.00  0.00    -0.241 OA
ENDBRANCH   4  18
TORSDOF 3
ENDMDL
MODEL 2
REMARK VINA RESULT:      -4.9      1.666      1.787
REMARK  Name = 
REMARK  3 active torsions:
REMARK  status: ('A' for Active; 'I' for Inactive)
REMARK    1  A    between atoms: N_4  and  C_5
REMARK    2  A    between atoms: C_8  and  N_9
REMARK    3  A    between atoms: C_15  and  C_16
REMARK                            x       y       z     vdW  Elec       q    Type
REMARK                         _______ _______ _______ _____ _____    ______ ____
ROOT
ATOM      1  C   UNL     1     -10.660  12.817  66.313  0.00  0.00    +0.085 A 
ATOM      2  C   UNL     1     -10.718  13.989  67.056  0.00  0.00    +0.053 A 
ATOM      3  I   UNL     1     -10.139  15.768  66.067  0.00  0.00    -0.041 I 
ATOM      4  C   UNL     1     -11.096  14.000  68.388  0.00  0.00    +0.093 A 
ATOM      5  C   UNL     1     -11.477  12.781  68.932  0.00  0.00    +0.053 A 
ATOM      6  I   UNL     1     -12.497  12.790  70.755  0.00  0.00    -0.041 I 
ATOM      7  C   UNL     1     -11.163  11.595  68.282  0.00  0.00    +0.085 A 
ATOM      8  C   UNL     1     -10.870  11.596  66.945  0.00  0.00    +0.061 A 
ATOM      9  I   UNL     1     -10.054   9.890  66.058  0.00  0.00    -0.040 I 
ENDROOT
BRANCH   1  12
ATOM     10  C   UNL     1     -12.510  11.919  63.176  0.00  0.00    +0.097 C 
ATOM     11  C   UNL     1     -12.232  12.660  64.438  0.00  0.00    +0.246 C 
ATOM     12  N   UNL     1     -10.901  12.821  64.900  0.00  0.00    -0.178 NA
ATOM     13  O   UNL     1     -13.103  13.384  65.007  0.00  0.00    -0.273 OA
ENDBRANCH   1  12
BRANCH   7  14
ATOM     14  N   UNL     1     -11.046  10.433  69.114  0.00  0.00    -0.178 NA
ATOM     15  C   UNL     1      -9.775   9.858  69.424  0.00  0.00    +0.246 C 
ATOM     16  O   UNL     1      -8.839  10.692  69.612  0.00  0.00    -0.273 OA
ATOM     17  C   UNL     1      -9.513   8.391  69.285  0.00  0.00    +0.097 C 
ENDBRANCH   7  14
BRANCH   4  18
ATOM     18  C   UNL     1     -10.948  15.209  69.187  0.00  0.00    +0.389 C 
ATOM     19  O   UNL     1     -11.915  16.211  69.215  0.00  0.00    -0.241 OA
ATOM     20  O   UNL     1      -9.865  15.481  69.775  0.00  0.00    -0.241 OA
ENDBRANCH   4  18
TORSDOF 3
ENDMDL
MODEL 3
REMARK VINA RESULT:      -4.8      5.480      7.710
REMARK  Name = 
REMARK  3 active torsions:
REMARK  status: ('A' for Active; 'I' for Inactive)
REMARK    1  A    between atoms: N_4  and  C_5
REMARK    2  A    between atoms: C_8  and  N_9
REMARK    3  A    between atoms: C_15  and  C_16
REMARK                            x       y       z     vdW  Elec       q    Type
REMARK                         _______ _______ _______ _____ _____    ______ ____
ROOT
ATOM      1  C   UNL     1      -7.491  19.476  67.586  0.00  0.00    +0.085 A 
ATOM      2  C   UNL     1      -8.651  18.717  67.485  0.00  0.00    +0.053 A 
ATOM      3  I   UNL     1     -10.273  19.601  66.454  0.00  0.00    -0.041 I 
ATOM      4  C   UNL     1      -8.763  17.463  68.061  0.00  0.00    +0.093 A 
ATOM      5  C   UNL     1      -7.631  16.970  68.695  0.00  0.00    +0.053 A 
ATOM      6  I   UNL     1      -7.570  14.934  69.159  0.00  0.00    -0.041 I 
ATOM      7  C   UNL     1      -6.586  17.821  69.025  0.00  0.00    +0.085 A 
ATOM      8  C   UNL     1      -6.447  19.024  68.386  0.00  0.00    +0.061 A 
ATOM      9  I   UNL     1      -5.105  20.445  69.125  0.00  0.00    -0.040 I 
ENDROOT
BRANCH   1  12
ATOM     10  C   UNL     1      -5.320  20.779  64.818  0.00  0.00    +0.097 C 
ATOM     11  C   UNL     1      -6.348  19.913  65.461  0.00  0.00    +0.246 C 
ATOM     12  N   UNL     1      -7.113  20.395  66.553  0.00  0.00    -0.178 NA
ATOM     13  O   UNL     1      -6.766  18.843  64.927  0.00  0.00    -0.273 OA
ENDBRANCH   1  12
BRANCH   7  14
ATOM     14  N   UNL     1      -5.771  17.418  70.133  0.00  0.00    -0.178 NA
ATOM     15  C   UNL     1      -4.569  16.669  69.946  0.00  0.00    +0.246 C 
ATOM     16  O   UNL     1      -3.886  16.992  68.928  0.00  0.00    -0.273 OA
ATOM     17  C   UNL     1      -4.271  15.436  70.740  0.00  0.00    +0.097 C 
ENDBRANCH   7  14
BRANCH   4  18
ATOM     18  C   UNL     1     -10.054  16.789  68.113  0.00  0.00    +0.389 C 
ATOM     19  O   UNL     1     -10.515  15.977  67.079  0.00  0.00    -0.241 OA
ATOM     20  O   UNL     1     -10.887  17.031  69.028  0.00  0.00    -0.241 OA
ENDBRANCH   4  18
TORSDOF 3
ENDMDL
MODEL 4
REMARK VINA RESULT:      -4.7      3.041      4.894
REMARK  Name = 
REMARK  3 active torsions:
REMARK  status: ('A' for Active; 'I' for Inactive)
REMARK    1  A    between atoms: N_4  and  C_5
REMARK    2  A    between atoms: C_8  and  N_9
REMARK    3  A    between atoms: C_15  and  C_16
REMARK                            x       y       z     vdW  Elec       q    Type
REMARK                         _______ _______ _______ _____ _____    ______ ____
ROOT
ATOM      1  C   UNL     1      -9.605  12.201  66.136  0.00  0.00    +0.085 A 
ATOM      2  C   UNL     1     -10.469  13.037  65.439  0.00  0.00    +0.053 A 
ATOM      3  I   UNL     1     -11.434  12.206  63.750  0.00  0.00    -0.041 I 
ATOM      4  C   UNL     1     -10.665  14.360  65.799  0.00  0.00    +0.093 A 
ATOM      5  C   UNL     1      -9.998  14.796  66.936  0.00  0.00    +0.053 A 
ATOM      6  I   UNL     1     -10.604  16.598  67.803  0.00  0.00    -0.041 I 
ATOM      7  C   UNL     1      -8.947  14.056  67.460  0.00  0.00    +0.085 A 
ATOM      8  C   UNL     1      -8.818  12.727  67.154  0.00  0.00    +0.061 A 
ATOM      9  I   UNL     1      -7.056  11.715  67.642  0.00  0.00    -0.040 I 
ENDROOT
BRANCH   1  12
ATOM     10  C   UNL     1     -10.385   8.978  67.889  0.00  0.00    +0.097 C 
ATOM     11  C   UNL     1     -10.667  10.299  67.261  0.00  0.00    +0.246 C 
ATOM     12  N   UNL     1      -9.842  10.790  66.217  0.00  0.00    -0.178 NA
ATOM     13  O   UNL     1     -11.763  10.912  67.429  0.00  0.00    -0.273 OA
ENDBRANCH   1  12
BRANCH   7  14
ATOM     14  N   UNL     1      -7.972  14.790  68.211  0.00  0.00    -0.178 NA
ATOM     15  C   UNL     1      -6.862  15.427  67.577  0.00  0.00    +0.246 C 
ATOM     16  O   UNL     1      -7.114  15.955  66.452  0.00  0.00    -0.273 OA
ATOM     17  C   UNL     1      -5.461  15.261  68.076  0.00  0.00    +0.097 C 
ENDBRANCH   7  14
BRANCH   4  18
ATOM     18  C   UNL     1     -11.412  15.258  64.929  0.00  0.00    +0.389 C 
ATOM     19  O   UNL     1     -12.724  15.000  64.539  0.00  0.00    -0.241 OA
ATOM     20  O   UNL     1     -10.857  16.237  64.360  0.00  0.00    -0.241 OA
ENDBRANCH   4  18
TORSDOF 3
ENDMDL
MODEL 5
REMARK VINA RESULT:      -4.7      4.825      6.890
REMARK  Name = 
REMARK  3 active torsions:
REMARK  status: ('A' for Active; 'I' for Inactive)
REMARK    1  A    between atoms: N_4  and  C_5
REMARK    2  A    between atoms: C_8  and  N_9
REMARK    3  A    between atoms: C_15  and  C_16
REMARK                            x       y       z     vdW  Elec       q    Type
REMARK                         _______ _______ _______ _____ _____    ______ ____
ROOT
ATOM      1  C   UNL     1      -7.487  15.643  69.258  0.00  0.00    +0.085 A 
ATOM      2  C   UNL     1      -6.411  16.454  69.600  0.00  0.00    +0.053 A 
ATOM      3  I   UNL     1      -4.910  15.577  70.805  0.00  0.00    -0.041 I 
ATOM      4  C   UNL     1      -6.336  17.780  69.211  0.00  0.00    +0.093 A 
ATOM      5  C   UNL     1      -7.364  18.247  68.404  0.00  0.00    +0.053 A 
ATOM      6  I   UNL     1      -7.084  20.058  67.401  0.00  0.00    -0.041 I 
ATOM      7  C   UNL     1      -8.548  17.532  68.293  0.00  0.00    +0.085 A 
ATOM      8  C   UNL     1      -8.582  16.199  68.607  0.00  0.00    +0.061 A 
ATOM      9  I   UNL     1     -10.419  15.220  68.785  0.00  0.00    -0.040 I 
ENDROOT
BRANCH   1  12
ATOM     10  C   UNL     1      -7.421  12.452  67.286  0.00  0.00    +0.097 C 
ATOM     11  C   UNL     1      -6.912  13.753  67.805  0.00  0.00    +0.246 C 
ATOM     12  N   UNL     1      -7.323  14.230  69.076  0.00  0.00    -0.178 NA
ATOM     13  O   UNL     1      -5.925  14.353  67.285  0.00  0.00    -0.273 OA
ENDBRANCH   1  12
BRANCH   7  14
ATOM     14  N   UNL     1      -9.716  18.294  67.962  0.00  0.00    -0.178 NA
ATOM     15  C   UNL     1     -10.138  18.470  66.609  0.00  0.00    +0.246 C 
ATOM     16  O   UNL     1      -9.987  17.457  65.861  0.00  0.00    -0.273 OA
ATOM     17  C   UNL     1     -10.490  19.815  66.055  0.00  0.00    +0.097 C 
ENDBRANCH   7  14
BRANCH   4  18
ATOM     18  C   UNL     1      -5.304  18.651  69.758  0.00  0.00    +0.389 C 
ATOM     19  O   UNL     1      -4.028  18.736  69.206  0.00  0.00    -0.241 OA
ATOM     20  O   UNL     1      -5.465  19.257  70.853  0.00  0.00    -0.241 OA
ENDBRANCH   4  18
TORSDOF 3
ENDMDL
MODEL 6
REMARK VINA RESULT:      -4.6      2.823      4.875
REMARK  Name = 
REMARK  3 active torsions:
REMARK  status: ('A' for Active; 'I' for Inactive)
REMARK    1  A    between atoms: N_4  and  C_5
REMARK    2  A    between atoms: C_8  and  N_9
REMARK    3  A    between atoms: C_15  and  C_16
REMARK                            x       y       z     vdW  Elec       q    Type
REMARK                         _______ _______ _______ _____ _____    ______ ____
ROOT
ATOM      1  C   UNL     1     -11.583  12.276  67.777  0.00  0.00    +0.085 A 
ATOM      2  C   UNL     1     -11.315  12.390  66.418  0.00  0.00    +0.053 A 
ATOM      3  I   UNL     1     -12.503  13.762  65.331  0.00  0.00    -0.041 I 
ATOM      4  C   UNL     1     -10.350  11.621  65.790  0.00  0.00    +0.093 A 
ATOM      5  C   UNL     1      -9.614  10.769  66.601  0.00  0.00    +0.053 A 
ATOM      6  I   UNL     1      -7.855   9.948  65.829  0.00  0.00    -0.041 I 
ATOM      7  C   UNL     1     -10.058  10.462  67.880  0.00  0.00    +0.085 A 
ATOM      8  C   UNL     1     -10.953  11.280  68.515  0.00  0.00    +0.061 A 
ATOM      9  I   UNL     1     -11.886  10.636  70.271  0.00  0.00    -0.040 I 
ENDROOT
BRANCH   1  12
ATOM     10  C   UNL     1     -11.365  14.903  70.445  0.00  0.00    +0.097 C 
ATOM     11  C   UNL     1     -11.093  14.262  69.128  0.00  0.00    +0.246 C 
ATOM     12  N   UNL     1     -12.050  13.396  68.538  0.00  0.00    -0.178 NA
ATOM     13  O   UNL     1     -10.154  14.643  68.367  0.00  0.00    -0.273 OA
ENDBRANCH   1  12
BRANCH   7  14
ATOM     14  N   UNL     1      -9.624   9.204  68.412  0.00  0.00    -0.178 NA
ATOM     15  C   UNL     1     -10.335   7.993  68.148  0.00  0.00    +0.246 C 
ATOM     16  O   UNL     1     -10.810   7.892  66.977  0.00  0.00    -0.273 OA
ATOM     17  C   UNL     1     -10.709   7.039  69.239  0.00  0.00    +0.097 C 
ENDBRANCH   7  14
BRANCH   4  18
ATOM     18  C   UNL     1     -10.240  11.619  64.337  0.00  0.00    +0.389 C 
ATOM     19  O   UNL     1      -9.595  12.634  63.634  0.00  0.00    -0.241 OA
ATOM     20  O   UNL     1     -10.858  10.775  63.631  0.00  0.00    -0.241 OA
ENDBRANCH   4  18
TORSDOF 3
ENDMDL
MODEL 7
REMARK VINA RESULT:      -4.6      2.404      2.661
REMARK  Name = 
REMARK  3 active torsions:
REMARK  status: ('A' for Active; 'I' for Inactive)
REMARK    1  A    between atoms: N_4  and  C_5
REMARK    2  A    between atoms: C_8  and  N_9
REMARK    3  A    between atoms: C_15  and  C_16
REMARK                            x       y       z     vdW  Elec       q    Type
REMARK                         _______ _______ _______ _____ _____    ______ ____
ROOT
ATOM      1  C   UNL     1     -10.393  12.981  67.754  0.00  0.00    +0.085 A 
ATOM      2  C   UNL     1     -11.177  13.662  68.679  0.00  0.00    +0.053 A 
ATOM      3  I   UNL     1     -11.413  15.741  68.371  0.00  0.00    -0.041 I 
ATOM      4  C   UNL     1     -11.746  13.028  69.771  0.00  0.00    +0.093 A 
ATOM      5  C   UNL     1     -11.546  11.658  69.864  0.00  0.00    +0.053 A 
ATOM      6  I   UNL     1     -12.746  10.575  71.188  0.00  0.00    -0.041 I 
ATOM      7  C   UNL     1     -10.558  11.041  69.109  0.00  0.00    +0.085 A 
ATOM      8  C   UNL     1     -10.065  11.649  67.986  0.00  0.00    +0.061 A 
ATOM      9  I   UNL     1      -8.347  10.898  67.066  0.00  0.00    -0.040 I 
ENDROOT
BRANCH   1  12
ATOM     10  C   UNL     1     -10.746  12.521  64.048  0.00  0.00    +0.097 C 
ATOM     11  C   UNL     1     -11.197  12.759  65.448  0.00  0.00    +0.246 C 
ATOM     12  N   UNL     1     -10.337  13.392  66.383  0.00  0.00    -0.178 NA
ATOM     13  O   UNL     1     -12.410  12.657  65.799  0.00  0.00    -0.273 OA
ENDBRANCH   1  12
BRANCH   7  14
ATOM     14  N   UNL     1     -10.022   9.825  69.646  0.00  0.00    -0.178 NA
ATOM     15  C   UNL     1     -10.492   8.545  69.219  0.00  0.00    +0.246 C 
ATOM     16  O   UNL     1     -10.765   8.456  67.984  0.00  0.00    -0.273 OA
ATOM     17  C   UNL     1     -10.875   7.475  70.193  0.00  0.00    +0.097 C 
ENDBRANCH   7  14
BRANCH   4  18
ATOM     18  C   UNL     1     -12.384  13.807  70.824  0.00  0.00    +0.389 C 
ATOM     19  O   UNL     1     -13.746  14.097  70.818  0.00  0.00    -0.241 OA
ATOM     20  O   UNL     1     -11.707  14.389  71.715  0.00  0.00    -0.241 OA
ENDBRANCH   4  18
TORSDOF 3
ENDMDL
MODEL 8
REMARK VINA RESULT:      -4.6      3.225      5.688
REMARK  Name = 
REMARK  3 active torsions:
REMARK  status: ('A' for Active; 'I' for Inactive)
REMARK    1  A    between atoms: N_4  and  C_5
REMARK    2  A    between atoms: C_8  and  N_9
REMARK    3  A    between atoms: C_15  and  C_16
REMARK                            x       y       z     vdW  Elec       q    Type
REMARK                         _______ _______ _______ _____ _____    ______ ____
ROOT
ATOM      1  C   UNL     1      -8.028  13.353  67.455  0.00  0.00    +0.085 A 
ATOM      2  C   UNL     1      -9.185  12.611  67.251  0.00  0.00    +0.053 A 
ATOM      3  I   UNL     1      -9.029  10.957  65.941  0.00  0.00    -0.041 I 
ATOM      4  C   UNL     1     -10.392  12.950  67.838  0.00  0.00    +0.093 A 
ATOM      5  C   UNL     1     -10.376  14.041  68.696  0.00  0.00    +0.053 A 
ATOM      6  I   UNL     1     -12.012  14.319  69.966  0.00  0.00    -0.041 I 
ATOM      7  C   UNL     1      -9.307  14.926  68.686  0.00  0.00    +0.085 A 
ATOM      8  C   UNL     1      -8.097  14.542  68.173  0.00  0.00    +0.061 A 
ATOM      9  I   UNL     1      -6.613  15.972  67.830  0.00  0.00    -0.040 I 
ENDROOT
BRANCH   1  12
ATOM     10  C   UNL     1      -4.739  12.268  68.896  0.00  0.00    +0.097 C 
ATOM     11  C   UNL     1      -6.203  12.208  68.627  0.00  0.00    +0.246 C 
ATOM     12  N   UNL     1      -6.735  12.736  67.422  0.00  0.00    -0.178 NA
ATOM     13  O   UNL     1      -6.990  11.480  69.302  0.00  0.00    -0.273 OA
ENDBRANCH   1  12
BRANCH   7  14
ATOM     14  N   UNL     1      -9.592  16.263  69.118  0.00  0.00    -0.178 NA
ATOM     15  C   UNL     1     -10.004  17.276  68.198  0.00  0.00    +0.246 C 
ATOM     16  O   UNL     1     -10.781  16.882  67.276  0.00  0.00    -0.273 OA
ATOM     17  C   UNL     1      -9.368  18.630  68.172  0.00  0.00    +0.097 C 
ENDBRANCH   7  14
BRANCH   4  18
ATOM     18  C   UNL     1     -11.621  12.277  67.439  0.00  0.00    +0.389 C 
ATOM     19  O   UNL     1     -12.074  11.117  68.064  0.00  0.00    -0.241 OA
ATOM     20  O   UNL     1     -12.256  12.622  66.406  0.00  0.00    -0.241 OA
ENDBRANCH   4  18
TORSDOF 3
ENDMDL
MODEL 9
REMARK VINA RESULT:      -4.6      5.303      8.054
REMARK  Name = 
REMARK  3 active torsions:
REMARK  status: ('A' for Active; 'I' for Inactive)
REMARK    1  A    between atoms: N_4  and  C_5
REMARK    2  A    between atoms: C_8  and  N_9
REMARK    3  A    between atoms: C_15  and  C_16
REMARK                            x       y       z     vdW  Elec       q    Type
REMARK                         _______ _______ _______ _____ _____    ______ ____
ROOT
ATOM      1  C   UNL     1      -5.892  17.774  68.508  0.00  0.00    +0.085 A 
ATOM      2  C   UNL     1      -5.937  16.385  68.522  0.00  0.00    +0.053 A 
ATOM      3  I   UNL     1      -4.083  15.376  68.383  0.00  0.00    -0.041 I 
ATOM      4  C   UNL     1      -7.132  15.688  68.583  0.00  0.00    +0.093 A 
ATOM      5  C   UNL     1      -8.287  16.449  68.693  0.00  0.00    +0.053 A 
ATOM      6  I   UNL     1     -10.051  15.485  69.262  0.00  0.00    -0.041 I 
ATOM      7  C   UNL     1      -8.261  17.807  68.410  0.00  0.00    +0.085 A 
ATOM      8  C   UNL     1      -7.078  18.496  68.433  0.00  0.00    +0.061 A 
ATOM      9  I   UNL     1      -6.988  20.435  67.662  0.00  0.00    -0.040 I 
ENDROOT
BRANCH   1  12
ATOM     10  C   UNL     1      -4.190  20.029  70.976  0.00  0.00    +0.097 C 
ATOM     11  C   UNL     1      -4.782  18.764  70.458  0.00  0.00    +0.246 C 
ATOM     12  N   UNL     1      -4.780  18.486  69.067  0.00  0.00    -0.178 NA
ATOM     13  O   UNL     1      -5.068  17.788  71.213  0.00  0.00    -0.273 OA
ENDBRANCH   1  12
BRANCH   7  14
ATOM     14  N   UNL     1      -9.501  18.385  67.979  0.00  0.00    -0.178 NA
ATOM     15  C   UNL     1      -9.860  18.443  66.597  0.00  0.00    +0.246 C 
ATOM     16  O   UNL     1      -9.526  17.430  65.911  0.00  0.00    -0.273 OA
ATOM     17  C   UNL     1     -10.359  19.701  65.959  0.00  0.00    +0.097 C 
ENDBRANCH   7  14
BRANCH   4  18
ATOM     18  C   UNL     1      -7.153  14.244  68.387  0.00  0.00    +0.389 C 
ATOM     19  O   UNL     1      -6.841  13.347  69.406  0.00  0.00    -0.241 OA
ATOM     20  O   UNL     1      -7.305  13.737  67.242  0.00  0.00    -0.241 OA
ENDBRANCH   4  18
TORSDOF 3
ENDMDL
