MODEL 1
REMARK VINA RESULT:      -8.0      0.000      0.000
REMARK  Name = 
REMARK  8 active torsions:
REMARK  status: ('A' for Active; 'I' for Inactive)
REMARK    1  A    between atoms: C_2  and  C_3
REMARK    2  A    between atoms: C_3  and  C_4
REMARK    3  A    between atoms: C_4  and  O_6
REMARK    4  A    between atoms: O_6  and  C_7
REMARK    5  A    between atoms: C_7  and  C_8
REMARK    6  A    between atoms: C_8  and  C_10
REMARK    7  A    between atoms: C_10  and  O_11
REMARK    8  A    between atoms: O_11  and  C_12
REMARK                            x       y       z     vdW  Elec       q    Type
REMARK                         _______ _______ _______ _____ _____    ______ ____
ROOT
ATOM      1  C   UNL     1     -10.718  13.784  67.972  0.00  0.00    +0.190 C 
ATOM      2  C   UNL     1     -10.109  14.992  67.342  0.00  0.00    +0.043 C 
ATOM      3  C   UNL     1      -9.028  15.123  68.535  0.00  0.00    +0.007 C 
ATOM      4  C   UNL     1      -8.025  16.151  67.641  0.00  0.00    +0.036 C 
ATOM      5  C   UNL     1      -8.855  17.493  67.969  0.00  0.00    +0.168 C 
ATOM      6  C   UNL     1     -10.132  17.519  66.934  0.00  0.00    +0.182 C 
ATOM      7  O   UNL     1      -9.400  16.811  65.807  0.00  0.00    -0.220 OA
ATOM      8  F   UNL     1      -9.321  17.476  69.205  0.00  0.00    -0.237 F 
ATOM      9  C   UNL     1      -7.987  18.530  67.462  0.00  0.00    +0.066 C 
ATOM     10  C   UNL     1      -6.607  18.051  67.288  0.00  0.00    -0.003 C 
ATOM     11  C   UNL     1      -5.789  18.817  66.562  0.00  0.00    +0.036 C 
ATOM     12  C   UNL     1      -6.251  20.192  66.271  0.00  0.00    +0.195 C 
ATOM     13  C   UNL     1      -7.030  20.674  67.431  0.00  0.00    +0.038 C 
ATOM     14  O   UNL     1      -5.563  20.927  65.538  0.00  0.00    -0.287 OA
ATOM     15  C   UNL     1      -5.870  17.307  68.523  0.00  0.00    +0.180 C 
ATOM     16  F   UNL     1      -6.327  18.347  69.527  0.00  0.00    -0.233 F 
ATOM     17  C   UNL     1      -8.358  18.968  66.034  0.00  0.00    +0.011 C 
ATOM     18  C   UNL     1      -7.853  19.843  68.097  0.00  0.00    -0.017 C 
ATOM     19  C   UNL     1      -7.118  16.332  68.960  0.00  0.00    +0.042 C 
ATOM     20  C   UNL     1      -8.291  13.779  68.019  0.00  0.00    +0.004 C 
ATOM     21  C   UNL     1      -9.483  14.492  66.116  0.00  0.00    +0.004 C 
ATOM     22  C   UNL     1     -10.855  16.157  67.484  0.00  0.00    +0.039 C 
ATOM     23  C   UNL     1      -9.498  12.859  67.821  0.00  0.00    +0.048 C 
ENDROOT
BRANCH   1  24
ATOM     24  C   UNL     1     -11.865  13.174  67.303  0.00  0.00    +0.230 C 
ATOM     25  O   UNL     1     -11.861  11.939  67.295  0.00  0.00    -0.288 OA
BRANCH  24  26
ATOM     26  C   UNL     1     -12.603  13.728  66.149  0.00  0.00    +0.276 C 
BRANCH  26  27
ATOM     27  O   UNL     1     -12.883  12.803  65.140  0.00  0.00    -0.440 OA
BRANCH  27  28
ATOM     28  C   UNL     1     -12.262  12.777  63.915  0.00  0.00    +0.318 C 
ATOM     29  O   UNL     1     -12.531  13.726  63.151  0.00  0.00    -0.250 OA
ATOM     30  C   UNL     1     -11.183  11.845  63.535  0.00  0.00    +0.121 C 
ENDBRANCH  27  28
ENDBRANCH  26  27
ENDBRANCH  24  26
ENDBRANCH   1  24
BRANCH   1  31
ATOM     31  O   UNL     1     -10.877  13.883  69.346  0.00  0.00    -0.448 OA
BRANCH  31  32
ATOM     32  C   UNL     1     -12.039  13.780  70.063  0.00  0.00    +0.317 C 
ATOM     33  O   UNL     1     -12.332  12.673  70.548  0.00  0.00    -0.250 OA
BRANCH  32  34
ATOM     34  C   UNL     1     -12.673  15.068  70.419  0.00  0.00    +0.110 C 
BRANCH  34  36
ATOM     35  C   UNL     1     -11.980  15.968  72.355  0.00  0.00    +0.001 C 
ATOM     36  C   UNL     1     -11.660  15.959  71.106  0.00  0.00    +0.012 C 
ENDBRANCH  34  36
ENDBRANCH  32  34
ENDBRANCH  31  32
ENDBRANCH   1  31
TORSDOF 8
ENDMDL
MODEL 2
REMARK VINA RESULT:      -7.6      1.957      7.185
REMARK  Name = 
REMARK  8 active torsions:
REMARK  status: ('A' for Active; 'I' for Inactive)
REMARK    1  A    between atoms: C_2  and  C_3
REMARK    2  A    between atoms: C_3  and  C_4
REMARK    3  A    between atoms: C_4  and  O_6
REMARK    4  A    between atoms: O_6  and  C_7
REMARK    5  A    between atoms: C_7  and  C_8
REMARK    6  A    between atoms: C_8  and  C_10
REMARK    7  A    between atoms: C_10  and  O_11
REMARK    8  A    between atoms: O_11  and  C_12
REMARK                            x       y       z     vdW  Elec       q    Type
REMARK                         _______ _______ _______ _____ _____    ______ ____
ROOT
ATOM      1  C   UNL     1      -7.404  19.656  67.951  0.00  0.00    +0.190 C 
ATOM      2  C   UNL     1      -8.010  18.442  67.327  0.00  0.00    +0.043 C 
ATOM      3  C   UNL     1      -8.876  18.139  68.656  0.00  0.00    +0.007 C 
ATOM      4  C   UNL     1      -9.925  17.088  67.846  0.00  0.00    +0.036 C 
ATOM      5  C   UNL     1      -8.953  15.805  67.938  0.00  0.00    +0.168 C 
ATOM      6  C   UNL     1      -7.857  15.960  66.722  0.00  0.00    +0.182 C 
ATOM      7  O   UNL     1      -8.810  16.674  65.779  0.00  0.00    -0.220 OA
ATOM      8  F   UNL     1      -8.301  15.782  69.086  0.00  0.00    -0.237 F 
ATOM      9  C   UNL     1      -9.808  14.731  67.488  0.00  0.00    +0.066 C 
ATOM     10  C   UNL     1     -11.231  15.098  67.564  0.00  0.00    -0.003 C 
ATOM     11  C   UNL     1     -12.093  14.312  66.911  0.00  0.00    +0.036 C 
ATOM     12  C   UNL     1     -11.578  13.006  66.446  0.00  0.00    +0.195 C 
ATOM     13  C   UNL     1     -10.591  12.518  67.433  0.00  0.00    +0.038 C 
ATOM     14  O   UNL     1     -12.315  12.263  65.771  0.00  0.00    -0.287 OA
ATOM     15  C   UNL     1     -11.820  15.691  68.950  0.00  0.00    +0.180 C 
ATOM     16  F   UNL     1     -11.132  14.631  69.788  0.00  0.00    -0.233 F 
ATOM     17  C   UNL     1      -9.634  14.423  65.991  0.00  0.00    +0.011 C 
ATOM     18  C   UNL     1      -9.740  13.373  68.031  0.00  0.00    -0.017 C 
ATOM     19  C   UNL     1     -10.597  16.741  69.269  0.00  0.00    +0.042 C 
ATOM     20  C   UNL     1      -9.786  19.443  68.365  0.00  0.00    +0.004 C 
ATOM     21  C   UNL     1      -8.858  18.965  66.253  0.00  0.00    +0.004 C 
ATOM     22  C   UNL     1      -7.163  17.341  67.262  0.00  0.00    +0.039 C 
ATOM     23  C   UNL     1      -8.699  20.477  68.060  0.00  0.00    +0.048 C 
ENDROOT
BRANCH   1  24
ATOM     24  C   UNL     1      -6.427  20.406  67.166  0.00  0.00    +0.230 C 
ATOM     25  O   UNL     1      -6.724  21.589  66.967  0.00  0.00    -0.288 OA
BRANCH  24  26
ATOM     26  C   UNL     1      -5.564  19.869  66.093  0.00  0.00    +0.276 C 
BRANCH  26  27
ATOM     27  O   UNL     1      -5.446  20.695  64.973  0.00  0.00    -0.440 OA
BRANCH  27  28
ATOM     28  C   UNL     1      -5.803  20.332  63.698  0.00  0.00    +0.318 C 
ATOM     29  O   UNL     1      -6.011  19.114  63.520  0.00  0.00    -0.250 OA
ATOM     30  C   UNL     1      -6.143  21.274  62.614  0.00  0.00    +0.121 C 
ENDBRANCH  27  28
ENDBRANCH  26  27
ENDBRANCH  24  26
ENDBRANCH   1  24
BRANCH   1  31
ATOM     31  O   UNL     1      -7.023  19.481  69.273  0.00  0.00    -0.448 OA
BRANCH  31  32
ATOM     32  C   UNL     1      -5.829  19.820  69.851  0.00  0.00    +0.317 C 
ATOM     33  O   UNL     1      -5.772  20.882  70.495  0.00  0.00    -0.250 OA
BRANCH  32  34
ATOM     34  C   UNL     1      -4.817  18.741  69.883  0.00  0.00    +0.110 C 
BRANCH  34  36
ATOM     35  C   UNL     1      -5.002  16.516  70.108  0.00  0.00    +0.001 C 
ATOM     36  C   UNL     1      -5.324  17.596  70.734  0.00  0.00    +0.012 C 
ENDBRANCH  34  36
ENDBRANCH  32  34
ENDBRANCH  31  32
ENDBRANCH   1  31
TORSDOF 8
ENDMDL
MODEL 3
REMARK VINA RESULT:      -7.3      1.981      4.438
REMARK  Name = 
REMARK  8 active torsions:
REMARK  status: ('A' for Active; 'I' for Inactive)
REMARK    1  A    between atoms: C_2  and  C_3
REMARK    2  A    between atoms: C_3  and  C_4
REMARK    3  A    between atoms: C_4  and  O_6
REMARK    4  A    between atoms: O_6  and  C_7
REMARK    5  A    between atoms: C_7  and  C_8
REMARK    6  A    between atoms: C_8  and  C_10
REMARK    7  A    between atoms: C_10  and  O_11
REMARK    8  A    between atoms: O_11  and  C_12
REMARK                            x       y       z     vdW  Elec       q    Type
REMARK                         _______ _______ _______ _____ _____    ______ ____
ROOT
ATOM      1  C   UNL     1     -10.790  13.588  67.291  0.00  0.00    +0.190 C 
ATOM      2  C   UNL     1      -9.743  14.535  67.776  0.00  0.00    +0.043 C 
ATOM      3  C   UNL     1     -10.464  15.778  67.037  0.00  0.00    +0.007 C 
ATOM      4  C   UNL     1      -9.616  16.929  67.940  0.00  0.00    +0.036 C 
ATOM      5  C   UNL     1      -8.288  16.889  67.026  0.00  0.00    +0.168 C 
ATOM      6  C   UNL     1      -7.421  15.581  67.516  0.00  0.00    +0.182 C 
ATOM      7  O   UNL     1      -7.875  15.659  68.963  0.00  0.00    -0.220 OA
ATOM      8  F   UNL     1      -8.592  16.734  65.750  0.00  0.00    -0.237 F 
ATOM      9  C   UNL     1      -7.527  18.008  67.531  0.00  0.00    +0.066 C 
ATOM     10  C   UNL     1      -8.371  18.949  68.283  0.00  0.00    -0.003 C 
ATOM     11  C   UNL     1      -7.743  19.856  69.036  0.00  0.00    +0.036 C 
ATOM     12  C   UNL     1      -6.292  20.022  68.801  0.00  0.00    +0.195 C 
ATOM     13  C   UNL     1      -6.026  19.807  67.363  0.00  0.00    +0.038 C 
ATOM     14  O   UNL     1      -5.640  20.800  69.522  0.00  0.00    -0.287 OA
ATOM     15  C   UNL     1      -9.732  19.504  67.603  0.00  0.00    +0.180 C 
ATOM     16  F   UNL     1      -9.048  19.790  66.280  0.00  0.00    -0.233 F 
ATOM     17  C   UNL     1      -6.489  17.590  68.587  0.00  0.00    +0.011 C 
ATOM     18  C   UNL     1      -6.687  18.854  66.679  0.00  0.00    -0.017 C 
ATOM     19  C   UNL     1     -10.277  18.070  67.015  0.00  0.00    +0.042 C 
ATOM     20  C   UNL     1     -11.688  15.697  68.089  0.00  0.00    +0.004 C 
ATOM     21  C   UNL     1      -9.943  14.596  69.225  0.00  0.00    +0.004 C 
ATOM     22  C   UNL     1      -8.529  14.449  67.102  0.00  0.00    +0.039 C 
ATOM     23  C   UNL     1     -11.966  14.192  68.077  0.00  0.00    +0.048 C 
ENDROOT
BRANCH   1  24
ATOM     24  C   UNL     1     -10.650  12.179  67.650  0.00  0.00    +0.230 C 
ATOM     25  O   UNL     1      -9.892  11.534  66.919  0.00  0.00    -0.288 OA
BRANCH  24  26
ATOM     26  C   UNL     1     -11.687  11.320  68.259  0.00  0.00    +0.276 C 
BRANCH  26  27
ATOM     27  O   UNL     1     -11.381  10.858  69.541  0.00  0.00    -0.440 OA
BRANCH  27  28
ATOM     28  C   UNL     1     -12.175  11.047  70.646  0.00  0.00    +0.318 C 
ATOM     29  O   UNL     1     -12.440  12.235  70.926  0.00  0.00    -0.250 OA
ATOM     30  C   UNL     1     -12.876   9.974  71.376  0.00  0.00    +0.121 C 
ENDBRANCH  27  28
ENDBRANCH  26  27
ENDBRANCH  24  26
ENDBRANCH   1  24
BRANCH   1  31
ATOM     31  O   UNL     1     -11.157  13.780  65.968  0.00  0.00    -0.448 OA
BRANCH  31  32
ATOM     32  C   UNL     1     -12.291  13.336  65.341  0.00  0.00    +0.317 C 
ATOM     33  O   UNL     1     -13.300  14.063  65.375  0.00  0.00    -0.250 OA
BRANCH  32  34
ATOM     34  C   UNL     1     -12.102  12.170  64.452  0.00  0.00    +0.110 C 
BRANCH  34  36
ATOM     35  C   UNL     1     -10.379  11.148  63.441  0.00  0.00    +0.001 C 
ATOM     36  C   UNL     1     -10.824  12.338  63.660  0.00  0.00    +0.012 C 
ENDBRANCH  34  36
ENDBRANCH  32  34
ENDBRANCH  31  32
ENDBRANCH   1  31
TORSDOF 8
ENDMDL
MODEL 4
REMARK VINA RESULT:      -7.2      2.020      4.117
REMARK  Name = 
REMARK  8 active torsions:
REMARK  status: ('A' for Active; 'I' for Inactive)
REMARK    1  A    between atoms: C_2  and  C_3
REMARK    2  A    between atoms: C_3  and  C_4
REMARK    3  A    between atoms: C_4  and  O_6
REMARK    4  A    between atoms: O_6  and  C_7
REMARK    5  A    between atoms: C_7  and  C_8
REMARK    6  A    between atoms: C_8  and  C_10
REMARK    7  A    between atoms: C_10  and  O_11
REMARK    8  A    between atoms: O_11  and  C_12
REMARK                            x       y       z     vdW  Elec       q    Type
REMARK                         _______ _______ _______ _____ _____    ______ ____
ROOT
ATOM      1  C   UNL     1     -11.088  13.726  67.465  0.00  0.00    +0.190 C 
ATOM      2  C   UNL     1      -9.918  14.601  67.772  0.00  0.00    +0.043 C 
ATOM      3  C   UNL     1     -10.734  15.922  67.324  0.00  0.00    +0.007 C 
ATOM      4  C   UNL     1      -9.654  16.967  68.101  0.00  0.00    +0.036 C 
ATOM      5  C   UNL     1      -8.572  16.980  66.906  0.00  0.00    +0.168 C 
ATOM      6  C   UNL     1      -7.674  15.613  67.072  0.00  0.00    +0.182 C 
ATOM      7  O   UNL     1      -7.782  15.570  68.586  0.00  0.00    -0.220 OA
ATOM      8  F   UNL     1      -9.164  16.948  65.726  0.00  0.00    -0.237 F 
ATOM      9  C   UNL     1      -7.668  18.030  67.312  0.00  0.00    +0.066 C 
ATOM     10  C   UNL     1      -8.278  18.918  68.314  0.00  0.00    -0.003 C 
ATOM     11  C   UNL     1      -7.457  19.739  68.974  0.00  0.00    +0.036 C 
ATOM     12  C   UNL     1      -6.091  19.892  68.427  0.00  0.00    +0.195 C 
ATOM     13  C   UNL     1      -6.169  19.802  66.953  0.00  0.00    +0.038 C 
ATOM     14  O   UNL     1      -5.260  20.587  69.040  0.00  0.00    -0.287 OA
ATOM     15  C   UNL     1      -9.732  19.564  68.014  0.00  0.00    +0.180 C 
ATOM     16  F   UNL     1      -9.356  19.953  66.597  0.00  0.00    -0.233 F 
ATOM     17  C   UNL     1      -6.437  17.495  68.063  0.00  0.00    +0.011 C 
ATOM     18  C   UNL     1      -7.009  18.931  66.363  0.00  0.00    -0.017 C 
ATOM     19  C   UNL     1     -10.458  18.202  67.450  0.00  0.00    +0.042 C 
ATOM     20  C   UNL     1     -11.689  15.774  68.620  0.00  0.00    +0.004 C 
ATOM     21  C   UNL     1      -9.781  14.535  69.228  0.00  0.00    +0.004 C 
ATOM     22  C   UNL     1      -8.894  14.549  66.832  0.00  0.00    +0.039 C 
ATOM     23  C   UNL     1     -12.028  14.283  68.548  0.00  0.00    +0.048 C 
ENDROOT
BRANCH   1  24
ATOM     24  C   UNL     1     -10.930  12.288  67.663  0.00  0.00    +0.230 C 
ATOM     25  O   UNL     1     -11.771  11.775  68.410  0.00  0.00    -0.288 OA
BRANCH  24  26
ATOM     26  C   UNL     1      -9.657  11.538  67.674  0.00  0.00    +0.276 C 
BRANCH  26  27
ATOM     27  O   UNL     1      -9.408  10.798  66.515  0.00  0.00    -0.440 OA
BRANCH  27  28
ATOM     28  C   UNL     1      -9.780   9.489  66.334  0.00  0.00    +0.318 C 
ATOM     29  O   UNL     1      -9.341   8.939  65.302  0.00  0.00    -0.250 OA
ATOM     30  C   UNL     1     -10.468   8.658  67.340  0.00  0.00    +0.121 C 
ENDBRANCH  27  28
ENDBRANCH  26  27
ENDBRANCH  24  26
ENDBRANCH   1  24
BRANCH   1  31
ATOM     31  O   UNL     1     -11.738  14.046  66.282  0.00  0.00    -0.448 OA
BRANCH  31  32
ATOM     32  C   UNL     1     -12.004  13.218  65.224  0.00  0.00    +0.317 C 
ATOM     33  O   UNL     1     -13.177  12.838  65.060  0.00  0.00    -0.250 OA
BRANCH  32  34
ATOM     34  C   UNL     1     -10.915  13.098  64.230  0.00  0.00    +0.110 C 
BRANCH  34  36
ATOM     35  C   UNL     1      -9.820  11.526  63.062  0.00  0.00    +0.001 C 
ATOM     36  C   UNL     1     -10.989  11.742  63.560  0.00  0.00    +0.012 C 
ENDBRANCH  34  36
ENDBRANCH  32  34
ENDBRANCH  31  32
ENDBRANCH   1  31
TORSDOF 8
ENDMDL
MODEL 5
REMARK VINA RESULT:      -7.0      3.623      7.961
REMARK  Name = 
REMARK  8 active torsions:
REMARK  status: ('A' for Active; 'I' for Inactive)
REMARK    1  A    between atoms: C_2  and  C_3
REMARK    2  A    between atoms: C_3  and  C_4
REMARK    3  A    between atoms: C_4  and  O_6
REMARK    4  A    between atoms: O_6  and  C_7
REMARK    5  A    between atoms: C_7  and  C_8
REMARK    6  A    between atoms: C_8  and  C_10
REMARK    7  A    between atoms: C_10  and  O_11
REMARK    8  A    between atoms: O_11  and  C_12
REMARK                            x       y       z     vdW  Elec       q    Type
REMARK                         _______ _______ _______ _____ _____    ______ ____
ROOT
ATOM      1  C   UNL     1     -10.145  14.697  66.935  0.00  0.00    +0.190 C 
ATOM      2  C   UNL     1     -10.225  13.365  67.604  0.00  0.00    +0.043 C 
ATOM      3  C   UNL     1      -9.304  12.687  66.462  0.00  0.00    +0.007 C 
ATOM      4  C   UNL     1      -8.963  11.329  67.411  0.00  0.00    +0.036 C 
ATOM      5  C   UNL     1     -10.331  10.552  67.059  0.00  0.00    +0.168 C 
ATOM      6  C   UNL     1     -11.493  11.184  68.035  0.00  0.00    +0.182 C 
ATOM      7  O   UNL     1     -10.548  11.480  69.186  0.00  0.00    -0.220 OA
ATOM      8  F   UNL     1     -10.685  10.756  65.803  0.00  0.00    -0.237 F 
ATOM      9  C   UNL     1     -10.098   9.240  67.616  0.00  0.00    +0.066 C 
ATOM     10  C   UNL     1      -8.666   8.991  67.847  0.00  0.00    -0.003 C 
ATOM     11  C   UNL     1      -8.352   7.946  68.618  0.00  0.00    +0.036 C 
ATOM     12  C   UNL     1      -9.436   6.981  68.901  0.00  0.00    +0.195 C 
ATOM     13  C   UNL     1     -10.311   6.903  67.712  0.00  0.00    +0.038 C 
ATOM     14  O   UNL     1      -9.220   6.027  69.671  0.00  0.00    -0.287 OA
ATOM     15  C   UNL     1      -7.616   9.243  66.640  0.00  0.00    +0.180 C 
ATOM     16  F   UNL     1      -8.488   8.527  65.627  0.00  0.00    -0.233 F 
ATOM     17  C   UNL     1     -10.685   9.083  69.029  0.00  0.00    +0.011 C 
ATOM     18  C   UNL     1     -10.599   8.009  67.000  0.00  0.00    -0.017 C 
ATOM     19  C   UNL     1      -8.214  10.688  66.137  0.00  0.00    +0.042 C 
ATOM     20  C   UNL     1      -8.025  13.517  66.998  0.00  0.00    +0.004 C 
ATOM     21  C   UNL     1      -9.478  13.534  68.852  0.00  0.00    +0.004 C 
ATOM     22  C   UNL     1     -11.440  12.707  67.439  0.00  0.00    +0.039 C 
ATOM     23  C   UNL     1      -8.635  14.914  67.132  0.00  0.00    +0.048 C 
ENDROOT
BRANCH   1  24
ATOM     24  C   UNL     1     -10.871  15.808  67.544  0.00  0.00    +0.230 C 
ATOM     25  O   UNL     1     -10.202  16.834  67.707  0.00  0.00    -0.288 OA
BRANCH  24  26
ATOM     26  C   UNL     1     -11.966  15.705  68.531  0.00  0.00    +0.276 C 
BRANCH  26  27
ATOM     27  O   UNL     1     -11.684  16.275  69.775  0.00  0.00    -0.440 OA
BRANCH  27  28
ATOM     28  C   UNL     1     -11.868  15.643  70.980  0.00  0.00    +0.318 C 
ATOM     29  O   UNL     1     -11.843  16.380  71.987  0.00  0.00    -0.250 OA
ATOM     30  C   UNL     1     -12.281  14.236  71.143  0.00  0.00    +0.121 C 
ENDBRANCH  27  28
ENDBRANCH  26  27
ENDBRANCH  24  26
ENDBRANCH   1  24
BRANCH   1  31
ATOM     31  O   UNL     1     -10.283  14.646  65.556  0.00  0.00    -0.448 OA
BRANCH  31  32
ATOM     32  C   UNL     1     -11.258  15.229  64.791  0.00  0.00    +0.317 C 
ATOM     33  O   UNL     1     -11.062  16.384  64.375  0.00  0.00    -0.250 OA
BRANCH  32  34
ATOM     34  C   UNL     1     -12.312  14.311  64.309  0.00  0.00    +0.110 C 
BRANCH  34  36
ATOM     35  C   UNL     1     -12.608  12.199  63.610  0.00  0.00    +0.001 C 
ATOM     36  C   UNL     1     -11.673  13.082  63.698  0.00  0.00    +0.012 C 
ENDBRANCH  34  36
ENDBRANCH  32  34
ENDBRANCH  31  32
ENDBRANCH   1  31
TORSDOF 8
ENDMDL
MODEL 6
REMARK VINA RESULT:      -6.9      2.216      4.782
REMARK  Name = 
REMARK  8 active torsions:
REMARK  status: ('A' for Active; 'I' for Inactive)
REMARK    1  A    between atoms: C_2  and  C_3
REMARK    2  A    between atoms: C_3  and  C_4
REMARK    3  A    between atoms: C_4  and  O_6
REMARK    4  A    between atoms: O_6  and  C_7
REMARK    5  A    between atoms: C_7  and  C_8
REMARK    6  A    between atoms: C_8  and  C_10
REMARK    7  A    between atoms: C_10  and  O_11
REMARK    8  A    between atoms: O_11  and  C_12
REMARK                            x       y       z     vdW  Elec       q    Type
REMARK                         _______ _______ _______ _____ _____    ______ ____
ROOT
ATOM      1  C   UNL     1      -9.902  16.997  66.997  0.00  0.00    +0.190 C 
ATOM      2  C   UNL     1      -8.613  17.475  67.581  0.00  0.00    +0.043 C 
ATOM      3  C   UNL     1      -8.235  18.254  66.217  0.00  0.00    +0.007 C 
ATOM      4  C   UNL     1      -7.051  19.196  66.973  0.00  0.00    +0.036 C 
ATOM      5  C   UNL     1      -5.895  18.076  66.897  0.00  0.00    +0.168 C 
ATOM      6  C   UNL     1      -6.155  17.047  68.152  0.00  0.00    +0.182 C 
ATOM      7  O   UNL     1      -6.732  18.109  69.072  0.00  0.00    -0.220 OA
ATOM      8  F   UNL     1      -5.971  17.388  65.772  0.00  0.00    -0.237 F 
ATOM      9  C   UNL     1      -4.719  18.811  67.300  0.00  0.00    +0.066 C 
ATOM     10  C   UNL     1      -4.915  20.264  67.180  0.00  0.00    -0.003 C 
ATOM     11  C   UNL     1      -4.020  21.047  67.789  0.00  0.00    +0.036 C 
ATOM     12  C   UNL     1      -2.775  20.396  68.252  0.00  0.00    +0.195 C 
ATOM     13  C   UNL     1      -2.427  19.325  67.293  0.00  0.00    +0.038 C 
ATOM     14  O   UNL     1      -1.938  21.060  68.890  0.00  0.00    -0.287 OA
ATOM     15  C   UNL     1      -5.461  20.873  65.782  0.00  0.00    +0.180 C 
ATOM     16  F   UNL     1      -4.506  20.035  64.953  0.00  0.00    -0.233 F 
ATOM     17  C   UNL     1      -4.404  18.651  68.797  0.00  0.00    +0.011 C 
ATOM     18  C   UNL     1      -3.388  18.563  66.739  0.00  0.00    -0.017 C 
ATOM     19  C   UNL     1      -6.654  19.774  65.523  0.00  0.00    +0.042 C 
ATOM     20  C   UNL     1      -9.416  19.322  66.496  0.00  0.00    +0.004 C 
ATOM     21  C   UNL     1      -9.011  18.414  68.632  0.00  0.00    +0.004 C 
ATOM     22  C   UNL     1      -7.619  16.505  67.658  0.00  0.00    +0.039 C 
ATOM     23  C   UNL     1     -10.566  18.377  66.855  0.00  0.00    +0.048 C 
ENDROOT
BRANCH   1  24
ATOM     24  C   UNL     1     -10.748  16.143  67.827  0.00  0.00    +0.230 C 
ATOM     25  O   UNL     1     -11.580  16.749  68.511  0.00  0.00    -0.288 OA
BRANCH  24  26
ATOM     26  C   UNL     1     -10.359  14.859  68.447  0.00  0.00    +0.276 C 
BRANCH  26  27
ATOM     27  O   UNL     1     -11.314  13.846  68.335  0.00  0.00    -0.440 OA
BRANCH  27  28
ATOM     28  C   UNL     1     -11.035  12.552  67.971  0.00  0.00    +0.318 C 
ATOM     29  O   UNL     1     -12.025  11.838  67.707  0.00  0.00    -0.250 OA
ATOM     30  C   UNL     1      -9.687  12.026  67.684  0.00  0.00    +0.121 C 
ENDBRANCH  27  28
ENDBRANCH  26  27
ENDBRANCH  24  26
ENDBRANCH   1  24
BRANCH   1  31
ATOM     31  O   UNL     1      -9.799  16.555  65.687  0.00  0.00    -0.448 OA
BRANCH  31  32
ATOM     32  C   UNL     1     -10.775  15.975  64.921  0.00  0.00    +0.317 C 
ATOM     33  O   UNL     1     -11.452  16.711  64.182  0.00  0.00    -0.250 OA
BRANCH  32  34
ATOM     34  C   UNL     1     -10.722  14.499  64.847  0.00  0.00    +0.110 C 
BRANCH  34  36
ATOM     35  C   UNL     1     -12.057  13.039  63.787  0.00  0.00    +0.001 C 
ATOM     36  C   UNL     1     -12.124  13.949  64.698  0.00  0.00    +0.012 C 
ENDBRANCH  34  36
ENDBRANCH  32  34
ENDBRANCH  31  32
ENDBRANCH   1  31
TORSDOF 8
ENDMDL
MODEL 7
REMARK VINA RESULT:      -6.6      2.712      7.769
REMARK  Name = 
REMARK  8 active torsions:
REMARK  status: ('A' for Active; 'I' for Inactive)
REMARK    1  A    between atoms: C_2  and  C_3
REMARK    2  A    between atoms: C_3  and  C_4
REMARK    3  A    between atoms: C_4  and  O_6
REMARK    4  A    between atoms: O_6  and  C_7
REMARK    5  A    between atoms: C_7  and  C_8
REMARK    6  A    between atoms: C_8  and  C_10
REMARK    7  A    between atoms: C_10  and  O_11
REMARK    8  A    between atoms: O_11  and  C_12
REMARK                            x       y       z     vdW  Elec       q    Type
REMARK                         _______ _______ _______ _____ _____    ______ ____
ROOT
ATOM      1  C   UNL     1      -6.506  17.959  68.190  0.00  0.00    +0.190 C 
ATOM      2  C   UNL     1      -6.978  16.544  68.134  0.00  0.00    +0.043 C 
ATOM      3  C   UNL     1      -8.192  16.941  67.145  0.00  0.00    +0.007 C 
ATOM      4  C   UNL     1      -8.453  15.340  66.668  0.00  0.00    +0.036 C 
ATOM      5  C   UNL     1      -9.351  14.946  67.947  0.00  0.00    +0.168 C 
ATOM      6  C   UNL     1      -8.305  14.616  69.171  0.00  0.00    +0.182 C 
ATOM      7  O   UNL     1      -7.212  14.076  68.265  0.00  0.00    -0.220 OA
ATOM      8  F   UNL     1     -10.121  15.953  68.317  0.00  0.00    -0.237 F 
ATOM      9  C   UNL     1      -9.865  13.647  67.581  0.00  0.00    +0.066 C 
ATOM     10  C   UNL     1      -9.769  13.410  66.132  0.00  0.00    -0.003 C 
ATOM     11  C   UNL     1      -9.937  12.152  65.713  0.00  0.00    +0.036 C 
ATOM     12  C   UNL     1     -10.498  11.196  66.692  0.00  0.00    +0.195 C 
ATOM     13  C   UNL     1     -11.458  11.922  67.551  0.00  0.00    +0.038 C 
ATOM     14  O   UNL     1     -10.610   9.996  66.381  0.00  0.00    -0.287 OA
ATOM     15  C   UNL     1     -10.365  14.516  65.111  0.00  0.00    +0.180 C 
ATOM     16  F   UNL     1     -11.650  14.669  65.901  0.00  0.00    -0.233 F 
ATOM     17  C   UNL     1      -9.022  12.494  68.153  0.00  0.00    +0.011 C 
ATOM     18  C   UNL     1     -11.204  13.182  67.950  0.00  0.00    -0.017 C 
ATOM     19  C   UNL     1      -9.747  15.845  65.853  0.00  0.00    +0.042 C 
ATOM     20  C   UNL     1      -7.133  17.236  65.959  0.00  0.00    +0.004 C 
ATOM     21  C   UNL     1      -5.921  15.832  67.412  0.00  0.00    +0.004 C 
ATOM     22  C   UNL     1      -7.649  16.112  69.274  0.00  0.00    +0.039 C 
ATOM     23  C   UNL     1      -6.101  18.079  66.711  0.00  0.00    +0.048 C 
ENDROOT
BRANCH   1  24
ATOM     24  C   UNL     1      -5.348  18.256  69.028  0.00  0.00    +0.230 C 
ATOM     25  O   UNL     1      -4.255  18.063  68.486  0.00  0.00    -0.288 OA
BRANCH  24  26
ATOM     26  C   UNL     1      -5.266  18.106  70.497  0.00  0.00    +0.276 C 
BRANCH  26  27
ATOM     27  O   UNL     1      -5.515  19.277  71.216  0.00  0.00    -0.440 OA
BRANCH  27  28
ATOM     28  C   UNL     1      -4.560  20.210  71.538  0.00  0.00    +0.318 C 
ATOM     29  O   UNL     1      -3.799  19.904  72.478  0.00  0.00    -0.250 OA
ATOM     30  C   UNL     1      -4.254  21.416  70.743  0.00  0.00    +0.121 C 
ENDBRANCH  27  28
ENDBRANCH  26  27
ENDBRANCH  24  26
ENDBRANCH   1  24
BRANCH   1  31
ATOM     31  O   UNL     1      -7.527  18.890  68.319  0.00  0.00    -0.448 OA
BRANCH  31  32
ATOM     32  C   UNL     1      -7.513  20.204  67.934  0.00  0.00    +0.317 C 
ATOM     33  O   UNL     1      -6.461  20.848  68.090  0.00  0.00    -0.250 OA
BRANCH  32  34
ATOM     34  C   UNL     1      -8.668  20.630  67.114  0.00  0.00    +0.110 C 
BRANCH  34  36
ATOM     35  C   UNL     1     -10.624  19.638  66.641  0.00  0.00    +0.001 C 
ATOM     36  C   UNL     1      -9.936  20.014  67.664  0.00  0.00    +0.012 C 
ENDBRANCH  34  36
ENDBRANCH  32  34
ENDBRANCH  31  32
ENDBRANCH   1  31
TORSDOF 8
ENDMDL
MODEL 8
REMARK VINA RESULT:      -6.5      3.875      8.140
REMARK  Name = 
REMARK  8 active torsions:
REMARK  status: ('A' for Active; 'I' for Inactive)
REMARK    1  A    between atoms: C_2  and  C_3
REMARK    2  A    between atoms: C_3  and  C_4
REMARK    3  A    between atoms: C_4  and  O_6
REMARK    4  A    between atoms: O_6  and  C_7
REMARK    5  A    between atoms: C_7  and  C_8
REMARK    6  A    between atoms: C_8  and  C_10
REMARK    7  A    between atoms: C_10  and  O_11
REMARK    8  A    between atoms: O_11  and  C_12
REMARK                            x       y       z     vdW  Elec       q    Type
REMARK                         _______ _______ _______ _____ _____    ______ ____
ROOT
ATOM      1  C   UNL     1      -9.875  14.309  67.121  0.00  0.00    +0.190 C 
ATOM      2  C   UNL     1     -10.000  12.947  67.720  0.00  0.00    +0.043 C 
ATOM      3  C   UNL     1      -9.144  12.292  66.517  0.00  0.00    +0.007 C 
ATOM      4  C   UNL     1      -8.841  10.870  67.381  0.00  0.00    +0.036 C 
ATOM      5  C   UNL     1     -10.254  10.177  67.028  0.00  0.00    +0.168 C 
ATOM      6  C   UNL     1     -11.358  10.806  68.071  0.00  0.00    +0.182 C 
ATOM      7  O   UNL     1     -10.369  10.995  69.208  0.00  0.00    -0.220 OA
ATOM      8  F   UNL     1     -10.632  10.466  65.796  0.00  0.00    -0.237 F 
ATOM      9  C   UNL     1     -10.068   8.827  67.506  0.00  0.00    +0.066 C 
ATOM     10  C   UNL     1      -8.644   8.500  67.681  0.00  0.00    -0.003 C 
ATOM     11  C   UNL     1      -8.358   7.401  68.385  0.00  0.00    +0.036 C 
ATOM     12  C   UNL     1      -9.479   6.472  68.648  0.00  0.00    +0.195 C 
ATOM     13  C   UNL     1     -10.388   6.500  67.483  0.00  0.00    +0.038 C 
ATOM     14  O   UNL     1      -9.287   5.468  69.359  0.00  0.00    -0.287 OA
ATOM     15  C   UNL     1      -7.617   8.770  66.459  0.00  0.00    +0.180 C 
ATOM     16  F   UNL     1      -8.549   8.151  65.435  0.00  0.00    -0.233 F 
ATOM     17  C   UNL     1     -10.623   8.619  68.926  0.00  0.00    +0.011 C 
ATOM     18  C   UNL     1     -10.643   7.655  66.840  0.00  0.00    -0.017 C 
ATOM     19  C   UNL     1      -8.159  10.267  66.052  0.00  0.00    +0.042 C 
ATOM     20  C   UNL     1      -7.812  13.032  67.058  0.00  0.00    +0.004 C 
ATOM     21  C   UNL     1      -9.212  13.013  68.953  0.00  0.00    +0.004 C 
ATOM     22  C   UNL     1     -11.249  12.356  67.556  0.00  0.00    +0.039 C 
ATOM     23  C   UNL     1      -8.352  14.446  67.285  0.00  0.00    +0.048 C 
ENDROOT
BRANCH   1  24
ATOM     24  C   UNL     1     -10.531  15.417  67.811  0.00  0.00    +0.230 C 
ATOM     25  O   UNL     1     -11.764  15.406  67.748  0.00  0.00    -0.288 OA
BRANCH  24  26
ATOM     26  C   UNL     1     -10.002  16.788  67.971  0.00  0.00    +0.276 C 
BRANCH  26  27
ATOM     27  O   UNL     1     -10.923  17.802  67.699  0.00  0.00    -0.440 OA
BRANCH  27  28
ATOM     28  C   UNL     1     -10.585  19.094  67.377  0.00  0.00    +0.318 C 
ATOM     29  O   UNL     1     -10.161  19.794  68.320  0.00  0.00    -0.250 OA
ATOM     30  C   UNL     1     -10.498  19.627  66.004  0.00  0.00    +0.121 C 
ENDBRANCH  27  28
ENDBRANCH  26  27
ENDBRANCH  24  26
ENDBRANCH   1  24
BRANCH   1  31
ATOM     31  O   UNL     1     -10.054  14.340  65.746  0.00  0.00    -0.448 OA
BRANCH  31  32
ATOM     32  C   UNL     1     -11.022  15.006  65.044  0.00  0.00    +0.317 C 
ATOM     33  O   UNL     1     -10.793  16.180  64.701  0.00  0.00    -0.250 OA
BRANCH  32  34
ATOM     34  C   UNL     1     -12.118  14.159  64.526  0.00  0.00    +0.110 C 
BRANCH  34  36
ATOM     35  C   UNL     1     -12.530  12.179  63.552  0.00  0.00    +0.001 C 
ATOM     36  C   UNL     1     -11.535  12.957  63.814  0.00  0.00    +0.012 C 
ENDBRANCH  34  36
ENDBRANCH  32  34
ENDBRANCH  31  32
ENDBRANCH   1  31
TORSDOF 8
ENDMDL
MODEL 9
REMARK VINA RESULT:      -6.4      4.563      8.267
REMARK  Name = 
REMARK  8 active torsions:
REMARK  status: ('A' for Active; 'I' for Inactive)
REMARK    1  A    between atoms: C_2  and  C_3
REMARK    2  A    between atoms: C_3  and  C_4
REMARK    3  A    between atoms: C_4  and  O_6
REMARK    4  A    between atoms: O_6  and  C_7
REMARK    5  A    between atoms: C_7  and  C_8
REMARK    6  A    between atoms: C_8  and  C_10
REMARK    7  A    between atoms: C_10  and  O_11
REMARK    8  A    between atoms: O_11  and  C_12
REMARK                            x       y       z     vdW  Elec       q    Type
REMARK                         _______ _______ _______ _____ _____    ______ ____
ROOT
ATOM      1  C   UNL     1     -10.148  12.643  67.647  0.00  0.00    +0.190 C 
ATOM      2  C   UNL     1      -9.863  11.181  67.742  0.00  0.00    +0.043 C 
ATOM      3  C   UNL     1     -10.670  11.069  69.136  0.00  0.00    +0.007 C 
ATOM      4  C   UNL     1     -10.797   9.385  69.037  0.00  0.00    +0.036 C 
ATOM      5  C   UNL     1      -9.326   9.088  69.627  0.00  0.00    +0.168 C 
ATOM      6  C   UNL     1      -8.274   9.278  68.378  0.00  0.00    +0.182 C 
ATOM      7  O   UNL     1      -9.252   8.813  67.313  0.00  0.00    -0.220 OA
ATOM      8  F   UNL     1      -9.009   9.952  70.574  0.00  0.00    -0.237 F 
ATOM      9  C   UNL     1      -9.354   7.659  69.832  0.00  0.00    +0.066 C 
ATOM     10  C   UNL     1     -10.730   7.140  69.871  0.00  0.00    -0.003 C 
ATOM     11  C   UNL     1     -10.879   5.816  69.764  0.00  0.00    +0.036 C 
ATOM     12  C   UNL     1      -9.659   4.996  69.926  0.00  0.00    +0.195 C 
ATOM     13  C   UNL     1      -8.784   5.656  70.918  0.00  0.00    +0.038 C 
ATOM     14  O   UNL     1      -9.725   3.763  69.765  0.00  0.00    -0.287 OA
ATOM     15  C   UNL     1     -11.808   7.833  70.861  0.00  0.00    +0.180 C 
ATOM     16  F   UNL     1     -10.837   7.861  72.026  0.00  0.00    -0.233 F 
ATOM     17  C   UNL     1      -8.748   6.879  68.653  0.00  0.00    +0.011 C 
ATOM     18  C   UNL     1      -8.671   6.997  70.946  0.00  0.00    -0.017 C 
ATOM     19  C   UNL     1     -11.440   9.396  70.514  0.00  0.00    +0.042 C 
ATOM     20  C   UNL     1     -12.061  11.328  68.355  0.00  0.00    +0.004 C 
ATOM     21  C   UNL     1     -10.626  10.585  66.642  0.00  0.00    +0.004 C 
ATOM     22  C   UNL     1      -8.562  10.869  68.122  0.00  0.00    +0.039 C 
ATOM     23  C   UNL     1     -11.673  12.526  67.485  0.00  0.00    +0.048 C 
ENDROOT
BRANCH   1  24
ATOM     24  C   UNL     1      -9.601  13.369  66.504  0.00  0.00    +0.230 C 
ATOM     25  O   UNL     1      -8.481  13.855  66.690  0.00  0.00    -0.288 OA
BRANCH  24  26
ATOM     26  C   UNL     1     -10.370  14.133  65.499  0.00  0.00    +0.276 C 
BRANCH  26  27
ATOM     27  O   UNL     1     -10.658  13.428  64.328  0.00  0.00    -0.440 OA
BRANCH  27  28
ATOM     28  C   UNL     1     -11.925  13.176  63.864  0.00  0.00    +0.318 C 
ATOM     29  O   UNL     1     -12.627  14.182  63.630  0.00  0.00    -0.250 OA
ATOM     30  C   UNL     1     -12.424  11.852  63.444  0.00  0.00    +0.121 C 
ENDBRANCH  27  28
ENDBRANCH  26  27
ENDBRANCH  24  26
ENDBRANCH   1  24
BRANCH   1  31
ATOM     31  O   UNL     1     -10.005  13.325  68.846  0.00  0.00    -0.448 OA
BRANCH  31  32
ATOM     32  C   UNL     1     -10.599  14.503  69.214  0.00  0.00    +0.317 C 
ATOM     33  O   UNL     1     -10.322  15.526  68.563  0.00  0.00    -0.250 OA
BRANCH  32  34
ATOM     34  C   UNL     1     -11.721  14.370  70.168  0.00  0.00    +0.110 C 
BRANCH  34  36
ATOM     35  C   UNL     1     -11.886  15.938  71.765  0.00  0.00    +0.001 C 
ATOM     36  C   UNL     1     -12.236  15.744  70.540  0.00  0.00    +0.012 C 
ENDBRANCH  34  36
ENDBRANCH  32  34
ENDBRANCH  31  32
ENDBRANCH   1  31
TORSDOF 8
ENDMDL
