MODEL 1
REMARK VINA RESULT:      -6.9      0.000      0.000
REMARK  Name = 
REMARK  2 active torsions:
REMARK  status: ('A' for Active; 'I' for Inactive)
REMARK    1  A    between atoms: N_11  and  C1*_12
REMARK    2  A    between atoms: C4*_16  and  C5*_17
REMARK                            x       y       z     vdW  Elec       q    Type
REMARK                         _______ _______ _______ _____ _____    ______ ____
ROOT
ATOM      1  N   UNL     1     -12.505  12.658  65.571  0.00  0.00    -0.105 NA
ATOM      2  C   UNL     1     -11.866  13.572  66.316  0.00  0.00    +0.193 A 
ATOM      3  C   UNL     1     -11.707  13.336  67.680  0.00  0.00    +0.152 A 
ATOM      4  N   UNL     1     -11.864  12.273  68.497  0.00  0.00    -0.219 NA
ATOM      5  C   UNL     1     -11.745  12.716  69.775  0.00  0.00    +0.182 A 
ATOM      6  N   UNL     1     -11.565  14.021  69.829  0.00  0.00    -0.271 N 
ATOM      7  C   UNL     1     -11.317  14.358  68.540  0.00  0.00    +0.170 A 
ATOM      8  N   UNL     1     -10.831  15.465  67.953  0.00  0.00    -0.198 NA
ATOM      9  C   UNL     1     -10.432  15.419  66.658  0.00  0.00    +0.227 A 
ATOM     10 CL   UNL     1      -9.026  16.278  66.064  0.00  0.00    -0.041 Cl
ATOM     11  N   UNL     1     -11.206  14.668  65.877  0.00  0.00    -0.197 NA
ENDROOT
BRANCH   6  12
ATOM     12  C1* UNL     1     -12.573  15.018  70.555  0.00  0.00    +0.210 C 
ATOM     13  O4* UNL     1     -11.776  14.967  71.862  0.00  0.00    -0.332 OA
ATOM     14  C4* UNL     1     -12.839  15.880  72.417  0.00  0.00    +0.180 C 
ATOM     15  C3* UNL     1     -14.065  14.675  72.448  0.00  0.00    +0.186 C 
ATOM     16  O3* UNL     1     -14.917  15.500  71.504  0.00  0.00    -0.220 OA
ATOM     17  C2* UNL     1     -13.469  13.796  71.203  0.00  0.00    +0.089 C 
BRANCH  14  18
ATOM     18  C5* UNL     1     -12.421  15.532  73.968  0.00  0.00    +0.214 C 
ATOM     19  O5* UNL     1     -12.431  16.730  74.646  0.00  0.00    -0.218 OA
ENDBRANCH  14  18
ENDBRANCH   6  12
TORSDOF 2
ENDMDL
MODEL 2
REMARK VINA RESULT:      -6.9      1.837      2.347
REMARK  Name = 
REMARK  2 active torsions:
REMARK  status: ('A' for Active; 'I' for Inactive)
REMARK    1  A    between atoms: N_11  and  C1*_12
REMARK    2  A    between atoms: C4*_16  and  C5*_17
REMARK                            x       y       z     vdW  Elec       q    Type
REMARK                         _______ _______ _______ _____ _____    ______ ____
ROOT
ATOM      1  N   UNL     1     -10.695  16.216  65.240  0.00  0.00    -0.105 NA
ATOM      2  C   UNL     1     -10.491  16.727  66.463  0.00  0.00    +0.193 A 
ATOM      3  C   UNL     1     -10.485  15.866  67.559  0.00  0.00    +0.152 A 
ATOM      4  N   UNL     1     -10.438  14.527  67.730  0.00  0.00    -0.219 NA
ATOM      5  C   UNL     1     -10.664  14.274  69.045  0.00  0.00    +0.182 A 
ATOM      6  N   UNL     1     -10.900  15.378  69.725  0.00  0.00    -0.271 N 
ATOM      7  C   UNL     1     -10.566  16.362  68.856  0.00  0.00    +0.170 A 
ATOM      8  N   UNL     1     -10.354  17.682  68.993  0.00  0.00    -0.198 NA
ATOM      9  C   UNL     1      -9.760  18.375  67.991  0.00  0.00    +0.227 A 
ATOM     10 CL   UNL     1      -8.606  19.661  68.275  0.00  0.00    -0.041 Cl
ATOM     11  N   UNL     1     -10.135  17.995  66.771  0.00  0.00    -0.197 NA
ENDROOT
BRANCH   6  12
ATOM     12  C1* UNL     1     -12.265  15.659  70.497  0.00  0.00    +0.210 C 
ATOM     13  O4* UNL     1     -11.565  15.662  71.859  0.00  0.00    -0.332 OA
ATOM     14  C4* UNL     1     -12.937  15.885  72.441  0.00  0.00    +0.180 C 
ATOM     15  C3* UNL     1     -13.503  14.299  72.092  0.00  0.00    +0.186 C 
ATOM     16  O3* UNL     1     -14.606  14.870  71.223  0.00  0.00    -0.220 OA
ATOM     17  C2* UNL     1     -12.545  14.061  70.787  0.00  0.00    +0.089 C 
BRANCH  14  18
ATOM     18  C5* UNL     1     -12.451  15.411  73.937  0.00  0.00    +0.214 C 
ATOM     19  O5* UNL     1     -12.490  16.537  74.728  0.00  0.00    -0.218 OA
ENDBRANCH  14  18
ENDBRANCH   6  12
TORSDOF 2
ENDMDL
MODEL 3
REMARK VINA RESULT:      -6.5      4.078      6.560
REMARK  Name = 
REMARK  2 active torsions:
REMARK  status: ('A' for Active; 'I' for Inactive)
REMARK    1  A    between atoms: N_11  and  C1*_12
REMARK    2  A    between atoms: C4*_16  and  C5*_17
REMARK                            x       y       z     vdW  Elec       q    Type
REMARK                         _______ _______ _______ _____ _____    ______ ____
ROOT
ATOM      1  N   UNL     1     -13.896  13.635  72.544  0.00  0.00    -0.105 NA
ATOM      2  C   UNL     1     -13.233  12.793  71.738  0.00  0.00    +0.193 A 
ATOM      3  C   UNL     1     -12.374  13.321  70.775  0.00  0.00    +0.152 A 
ATOM      4  N   UNL     1     -11.835  14.534  70.528  0.00  0.00    -0.219 NA
ATOM      5  C   UNL     1     -11.226  14.472  69.317  0.00  0.00    +0.182 A 
ATOM      6  N   UNL     1     -11.383  13.295  68.745  0.00  0.00    -0.271 N 
ATOM      7  C   UNL     1     -11.890  12.527  69.739  0.00  0.00    +0.170 A 
ATOM      8  N   UNL     1     -12.054  11.202  69.891  0.00  0.00    -0.198 NA
ATOM      9  C   UNL     1     -12.341  10.696  71.115  0.00  0.00    +0.227 A 
ATOM     10 CL   UNL     1     -11.676   9.184  71.701  0.00  0.00    -0.041 Cl
ATOM     11  N   UNL     1     -13.176  11.446  71.832  0.00  0.00    -0.197 NA
ENDROOT
BRANCH   6  12
ATOM     12  C1* UNL     1     -12.124  13.086  67.351  0.00  0.00    +0.210 C 
ATOM     13  O4* UNL     1     -10.882  12.450  66.718  0.00  0.00    -0.332 OA
ATOM     14  C4* UNL     1     -11.706  12.362  65.458  0.00  0.00    +0.180 C 
ATOM     15  C3* UNL     1     -11.697  14.056  65.159  0.00  0.00    +0.186 C 
ATOM     16  O3* UNL     1     -13.210  14.092  65.244  0.00  0.00    -0.220 OA
ATOM     17  C2* UNL     1     -11.560  14.504  66.727  0.00  0.00    +0.089 C 
BRANCH  14  18
ATOM     18  C5* UNL     1     -10.371  12.163  64.521  0.00  0.00    +0.214 C 
ATOM     19  O5* UNL     1     -10.605  11.047  63.750  0.00  0.00    -0.218 OA
ENDBRANCH  14  18
ENDBRANCH   6  12
TORSDOF 2
ENDMDL
MODEL 4
REMARK VINA RESULT:      -6.3      3.722      5.623
REMARK  Name = 
REMARK  2 active torsions:
REMARK  status: ('A' for Active; 'I' for Inactive)
REMARK    1  A    between atoms: N_11  and  C1*_12
REMARK    2  A    between atoms: C4*_16  and  C5*_17
REMARK                            x       y       z     vdW  Elec       q    Type
REMARK                         _______ _______ _______ _____ _____    ______ ____
ROOT
ATOM      1  N   UNL     1     -11.708  11.884  69.938  0.00  0.00    -0.105 NA
ATOM      2  C   UNL     1     -12.082  13.162  70.099  0.00  0.00    +0.193 A 
ATOM      3  C   UNL     1     -11.855  14.065  69.062  0.00  0.00    +0.152 A 
ATOM      4  N   UNL     1     -11.504  13.968  67.762  0.00  0.00    -0.219 NA
ATOM      5  C   UNL     1     -11.241  15.223  67.314  0.00  0.00    +0.182 A 
ATOM      6  N   UNL     1     -11.360  16.122  68.270  0.00  0.00    -0.271 N 
ATOM      7  C   UNL     1     -11.954  15.436  69.276  0.00  0.00    +0.170 A 
ATOM      8  N   UNL     1     -12.554  15.809  70.420  0.00  0.00    -0.198 NA
ATOM      9  C   UNL     1     -13.305  14.915  71.107  0.00  0.00    +0.227 A 
ATOM     10 CL   UNL     1     -14.796  15.347  71.918  0.00  0.00    -0.041 Cl
ATOM     11  N   UNL     1     -12.807  13.680  71.116  0.00  0.00    -0.197 NA
ENDROOT
BRANCH   6  12
ATOM     12  C1* UNL     1     -10.159  17.045  68.763  0.00  0.00    +0.210 C 
ATOM     13  O4* UNL     1     -10.649  18.233  67.930  0.00  0.00    -0.332 OA
ATOM     14  C4* UNL     1      -9.437  18.959  68.454  0.00  0.00    +0.180 C 
ATOM     15  C3* UNL     1      -8.309  18.043  67.534  0.00  0.00    +0.186 C 
ATOM     16  O3* UNL     1      -7.638  17.567  68.809  0.00  0.00    -0.220 OA
ATOM     17  C2* UNL     1      -9.217  16.684  67.459  0.00  0.00    +0.089 C 
BRANCH  14  18
ATOM     18  C5* UNL     1      -9.523  20.093  67.268  0.00  0.00    +0.214 C 
ATOM     19  O5* UNL     1     -10.764  19.951  66.689  0.00  0.00    -0.218 OA
ENDBRANCH  14  18
ENDBRANCH   6  12
TORSDOF 2
ENDMDL
MODEL 5
REMARK VINA RESULT:      -6.3      4.275      5.690
REMARK  Name = 
REMARK  2 active torsions:
REMARK  status: ('A' for Active; 'I' for Inactive)
REMARK    1  A    between atoms: N_11  and  C1*_12
REMARK    2  A    between atoms: C4*_16  and  C5*_17
REMARK                            x       y       z     vdW  Elec       q    Type
REMARK                         _______ _______ _______ _____ _____    ______ ____
ROOT
ATOM      1  N   UNL     1     -11.871  11.879  68.106  0.00  0.00    -0.105 NA
ATOM      2  C   UNL     1     -11.669  12.606  66.997  0.00  0.00    +0.193 A 
ATOM      3  C   UNL     1     -10.549  13.433  66.930  0.00  0.00    +0.152 A 
ATOM      4  N   UNL     1      -9.418  13.581  67.651  0.00  0.00    -0.219 NA
ATOM      5  C   UNL     1      -8.792  14.701  67.207  0.00  0.00    +0.182 A 
ATOM      6  N   UNL     1      -9.484  15.311  66.266  0.00  0.00    -0.271 N 
ATOM      7  C   UNL     1     -10.443  14.410  65.945  0.00  0.00    +0.170 A 
ATOM      8  N   UNL     1     -11.310  14.309  64.923  0.00  0.00    -0.198 NA
ATOM      9  C   UNL     1     -11.973  13.145  64.717  0.00  0.00    +0.227 A 
ATOM     10 CL   UNL     1     -12.303  12.505  63.119  0.00  0.00    -0.041 Cl
ATOM     11  N   UNL     1     -12.357  12.533  65.835  0.00  0.00    -0.197 NA
ENDROOT
BRANCH   6  12
ATOM     12  C1* UNL     1     -10.041  16.796  66.408  0.00  0.00    +0.210 C 
ATOM     13  O4* UNL     1      -8.720  17.403  65.926  0.00  0.00    -0.332 OA
ATOM     14  C4* UNL     1      -9.378  18.740  66.154  0.00  0.00    +0.180 C 
ATOM     15  C3* UNL     1      -9.360  18.620  67.870  0.00  0.00    +0.186 C 
ATOM     16  O3* UNL     1     -10.872  18.720  67.905  0.00  0.00    -0.220 OA
ATOM     17  C2* UNL     1      -9.427  16.986  67.926  0.00  0.00    +0.089 C 
BRANCH  14  18
ATOM     18  C5* UNL     1      -7.933  19.522  66.167  0.00  0.00    +0.214 C 
ATOM     19  O5* UNL     1      -7.110  18.824  65.313  0.00  0.00    -0.218 OA
ENDBRANCH  14  18
ENDBRANCH   6  12
TORSDOF 2
ENDMDL
MODEL 6
REMARK VINA RESULT:      -6.1      5.171      7.463
REMARK  Name = 
REMARK  2 active torsions:
REMARK  status: ('A' for Active; 'I' for Inactive)
REMARK    1  A    between atoms: N_11  and  C1*_12
REMARK    2  A    between atoms: C4*_16  and  C5*_17
REMARK                            x       y       z     vdW  Elec       q    Type
REMARK                         _______ _______ _______ _____ _____    ______ ____
ROOT
ATOM      1  N   UNL     1      -5.938  20.612  68.929  0.00  0.00    -0.105 NA
ATOM      2  C   UNL     1      -6.407  20.217  67.736  0.00  0.00    +0.193 A 
ATOM      3  C   UNL     1      -7.730  19.789  67.641  0.00  0.00    +0.152 A 
ATOM      4  N   UNL     1      -8.817  19.842  68.440  0.00  0.00    -0.219 NA
ATOM      5  C   UNL     1      -9.780  19.071  67.872  0.00  0.00    +0.182 A 
ATOM      6  N   UNL     1      -9.357  18.485  66.771  0.00  0.00    -0.271 N 
ATOM      7  C   UNL     1      -8.180  19.107  66.515  0.00  0.00    +0.170 A 
ATOM      8  N   UNL     1      -7.373  19.150  65.442  0.00  0.00    -0.198 NA
ATOM      9  C   UNL     1      -6.391  20.082  65.377  0.00  0.00    +0.227 A 
ATOM     10 CL   UNL     1      -5.952  20.903  63.893  0.00  0.00    -0.041 Cl
ATOM     11  N   UNL     1      -5.784  20.315  66.540  0.00  0.00    -0.197 NA
ENDROOT
BRANCH   6  12
ATOM     12  C1* UNL     1      -9.283  16.905  66.587  0.00  0.00    +0.210 C 
ATOM     13  O4* UNL     1     -10.301  16.929  65.443  0.00  0.00    -0.332 OA
ATOM     14  C4* UNL     1     -10.151  15.430  65.425  0.00  0.00    +0.180 C 
ATOM     15  C3* UNL     1     -10.973  15.183  66.916  0.00  0.00    +0.186 C 
ATOM     16  O3* UNL     1      -9.733  14.542  67.507  0.00  0.00    -0.220 OA
ATOM     17  C2* UNL     1     -10.581  16.632  67.566  0.00  0.00    +0.089 C 
BRANCH  14  18
ATOM     18  C5* UNL     1     -11.553  15.234  64.590  0.00  0.00    +0.214 C 
ATOM     19  O5* UNL     1     -11.725  16.384  63.854  0.00  0.00    -0.218 OA
ENDBRANCH  14  18
ENDBRANCH   6  12
TORSDOF 2
ENDMDL
MODEL 7
REMARK VINA RESULT:      -6.1      5.371      7.187
REMARK  Name = 
REMARK  2 active torsions:
REMARK  status: ('A' for Active; 'I' for Inactive)
REMARK    1  A    between atoms: N_11  and  C1*_12
REMARK    2  A    between atoms: C4*_16  and  C5*_17
REMARK                            x       y       z     vdW  Elec       q    Type
REMARK                         _______ _______ _______ _____ _____    ______ ____
ROOT
ATOM      1  N   UNL     1     -11.143  16.908  64.478  0.00  0.00    -0.105 NA
ATOM      2  C   UNL     1     -10.574  16.814  65.689  0.00  0.00    +0.193 A 
ATOM      3  C   UNL     1     -10.193  17.983  66.346  0.00  0.00    +0.152 A 
ATOM      4  N   UNL     1     -10.423  19.302  66.174  0.00  0.00    -0.219 NA
ATOM      5  C   UNL     1      -9.610  19.975  67.027  0.00  0.00    +0.182 A 
ATOM      6  N   UNL     1      -8.831  19.161  67.711  0.00  0.00    -0.271 N 
ATOM      7  C   UNL     1      -9.351  17.937  67.453  0.00  0.00    +0.170 A 
ATOM      8  N   UNL     1      -9.181  16.725  68.010  0.00  0.00    -0.198 NA
ATOM      9  C   UNL     1     -10.047  15.724  67.718  0.00  0.00    +0.227 A 
ATOM     10 CL   UNL     1     -10.589  14.557  68.907  0.00  0.00    -0.041 Cl
ATOM     11  N   UNL     1     -10.445  15.702  66.447  0.00  0.00    -0.197 NA
ENDROOT
BRANCH   6  12
ATOM     12  C1* UNL     1      -7.241  19.195  67.634  0.00  0.00    +0.210 C 
ATOM     13  O4* UNL     1      -7.122  19.729  69.065  0.00  0.00    -0.332 OA
ATOM     14  C4* UNL     1      -5.635  19.742  68.819  0.00  0.00    +0.180 C 
ATOM     15  C3* UNL     1      -5.681  21.062  67.717  0.00  0.00    +0.186 C 
ATOM     16  O3* UNL     1      -5.089  20.190  66.628  0.00  0.00    -0.220 OA
ATOM     17  C2* UNL     1      -7.198  20.777  67.175  0.00  0.00    +0.089 C 
BRANCH  14  18
ATOM     18  C5* UNL     1      -5.371  20.766  70.076  0.00  0.00    +0.214 C 
ATOM     19  O5* UNL     1      -6.292  20.434  71.043  0.00  0.00    -0.218 OA
ENDBRANCH  14  18
ENDBRANCH   6  12
TORSDOF 2
ENDMDL
MODEL 8
REMARK VINA RESULT:      -5.9      6.142      8.251
REMARK  Name = 
REMARK  2 active torsions:
REMARK  status: ('A' for Active; 'I' for Inactive)
REMARK    1  A    between atoms: N_11  and  C1*_12
REMARK    2  A    between atoms: C4*_16  and  C5*_17
REMARK                            x       y       z     vdW  Elec       q    Type
REMARK                         _______ _______ _______ _____ _____    ______ ____
ROOT
ATOM      1  N   UNL     1      -5.091  20.822  71.724  0.00  0.00    -0.105 NA
ATOM      2  C   UNL     1      -5.383  19.718  71.021  0.00  0.00    +0.193 A 
ATOM      3  C   UNL     1      -5.857  19.857  69.718  0.00  0.00    +0.152 A 
ATOM      4  N   UNL     1      -5.936  20.866  68.825  0.00  0.00    -0.219 NA
ATOM      5  C   UNL     1      -6.687  20.432  67.781  0.00  0.00    +0.182 A 
ATOM      6  N   UNL     1      -7.138  19.209  67.973  0.00  0.00    -0.271 N 
ATOM      7  C   UNL     1      -6.441  18.782  69.053  0.00  0.00    +0.170 A 
ATOM      8  N   UNL     1      -6.252  17.575  69.612  0.00  0.00    -0.198 NA
ATOM      9  C   UNL     1      -5.275  17.408  70.537  0.00  0.00    +0.227 A 
ATOM     10 CL   UNL     1      -4.288  15.963  70.631  0.00  0.00    -0.041 Cl
ATOM     11  N   UNL     1      -5.135  18.436  71.372  0.00  0.00    -0.197 NA
ENDROOT
BRANCH   6  12
ATOM     12  C1* UNL     1      -8.686  18.843  68.041  0.00  0.00    +0.210 C 
ATOM     13  O4* UNL     1      -8.497  17.614  67.147  0.00  0.00    -0.332 OA
ATOM     14  C4* UNL     1      -9.988  17.429  67.275  0.00  0.00    +0.180 C 
ATOM     15  C3* UNL     1     -10.388  18.789  66.300  0.00  0.00    +0.186 C 
ATOM     16  O3* UNL     1     -11.129  19.419  67.464  0.00  0.00    -0.220 OA
ATOM     17  C2* UNL     1      -9.038  19.646  66.645  0.00  0.00    +0.089 C 
BRANCH  14  18
ATOM     18  C5* UNL     1     -10.043  16.440  65.963  0.00  0.00    +0.214 C 
ATOM     19  O5* UNL     1      -8.879  15.706  65.986  0.00  0.00    -0.218 OA
ENDBRANCH  14  18
ENDBRANCH   6  12
TORSDOF 2
ENDMDL
MODEL 9
REMARK VINA RESULT:      -5.8      3.799      5.452
REMARK  Name = 
REMARK  2 active torsions:
REMARK  status: ('A' for Active; 'I' for Inactive)
REMARK    1  A    between atoms: N_11  and  C1*_12
REMARK    2  A    between atoms: C4*_16  and  C5*_17
REMARK                            x       y       z     vdW  Elec       q    Type
REMARK                         _______ _______ _______ _____ _____    ______ ____
ROOT
ATOM      1  N   UNL     1     -11.024   9.381  67.984  0.00  0.00    -0.105 NA
ATOM      2  C   UNL     1     -11.351  10.525  68.602  0.00  0.00    +0.193 A 
ATOM      3  C   UNL     1     -11.602  11.658  67.831  0.00  0.00    +0.152 A 
ATOM      4  N   UNL     1     -11.808  11.902  66.519  0.00  0.00    -0.219 NA
ATOM      5  C   UNL     1     -11.802  13.249  66.347  0.00  0.00    +0.182 A 
ATOM      6  N   UNL     1     -11.556  13.888  67.473  0.00  0.00    -0.271 N 
ATOM      7  C   UNL     1     -11.660  12.920  68.415  0.00  0.00    +0.170 A 
ATOM      8  N   UNL     1     -11.755  12.941  69.755  0.00  0.00    -0.198 NA
ATOM      9  C   UNL     1     -12.125  11.820  70.421  0.00  0.00    +0.227 A 
ATOM     10 CL   UNL     1     -13.171  11.847  71.825  0.00  0.00    -0.041 Cl
ATOM     11  N   UNL     1     -11.617  10.697  69.917  0.00  0.00    -0.197 NA
ENDROOT
BRANCH   6  12
ATOM     12  C1* UNL     1     -10.297  14.839  67.687  0.00  0.00    +0.210 C 
ATOM     13  O4* UNL     1     -11.121  16.098  67.399  0.00  0.00    -0.332 OA
ATOM     14  C4* UNL     1      -9.831  16.853  67.591  0.00  0.00    +0.180 C 
ATOM     15  C3* UNL     1      -9.114  16.291  66.131  0.00  0.00    +0.186 C 
ATOM     16  O3* UNL     1      -7.981  15.660  66.916  0.00  0.00    -0.220 OA
ATOM     17  C2* UNL     1      -9.924  14.870  66.082  0.00  0.00    +0.089 C 
BRANCH  14  18
ATOM     18  C5* UNL     1     -10.418  18.181  66.823  0.00  0.00    +0.214 C 
ATOM     19  O5* UNL     1     -10.716  19.095  67.809  0.00  0.00    -0.218 OA
ENDBRANCH  14  18
ENDBRANCH   6  12
TORSDOF 2
ENDMDL
