MODEL 1
REMARK VINA RESULT:      -6.7      0.000      0.000
REMARK  Name = 
REMARK  4 active torsions:
REMARK  status: ('A' for Active; 'I' for Inactive)
REMARK    1  A    between atoms: C_2  and  C_3
REMARK    2  A    between atoms: N_5  and  C_6
REMARK    3  A    between atoms: C_6  and  C_7
REMARK    4  A    between atoms: C_7  and  C_8
REMARK                            x       y       z     vdW  Elec       q    Type
REMARK                         _______ _______ _______ _____ _____    ______ ____
ROOT
ATOM      1  C   UNL     1     -10.737  14.196  69.202  0.00  0.00    +0.024 C 
ATOM      2  C   UNL     1     -11.649  13.550  70.345  0.00  0.00    -0.027 A 
ATOM      3  C   UNL     1     -11.967  12.330  69.742  0.00  0.00    -0.026 A 
ATOM      4  C   UNL     1     -12.359  11.362  70.659  0.00  0.00    -0.001 A 
ATOM      5  C   UNL     1     -13.008  11.838  71.800  0.00  0.00    +0.036 A 
ATOM      6  C   UNL     1     -13.334  13.186  71.924  0.00  0.00    +0.134 A 
ATOM      7  O   UNL     1     -14.459  13.891  72.358  0.00  0.00    -0.475 OA
ATOM      8  C   UNL     1     -14.680  14.993  71.477  0.00  0.00    +0.210 C 
ATOM      9  C   UNL     1     -13.272  15.418  71.198  0.00  0.00    +0.076 C 
ATOM     10  C   UNL     1     -11.850  12.433  68.257  0.00  0.00    +0.026 C 
ATOM     11  C   UNL     1     -12.550  14.095  71.217  0.00  0.00    +0.011 A 
ATOM     12  C   UNL     1     -11.941  13.958  68.119  0.00  0.00    +0.009 C 
ENDROOT
BRANCH   1  13
ATOM     13  C   UNL     1     -11.160  15.761  69.454  0.00  0.00    +0.028 C 
BRANCH  13  14
ATOM     14  C   UNL     1     -11.212  16.163  67.979  0.00  0.00    +0.115 C 
BRANCH  14  16
ATOM     15  C   UNL     1     -10.418  18.307  66.856  0.00  0.00    +0.241 C 
ATOM     16  N   UNL     1     -10.961  17.574  67.925  0.00  0.00    -0.205 NA
ATOM     17  O   UNL     1     -10.420  17.729  65.732  0.00  0.00    -0.273 OA
BRANCH  15  19
ATOM     18  C   UNL     1      -9.940  20.152  67.980  0.00  0.00    +0.010 C 
ATOM     19  C   UNL     1     -10.242  19.794  66.953  0.00  0.00    +0.087 C 
ENDBRANCH  15  19
ENDBRANCH  14  16
ENDBRANCH  13  14
ENDBRANCH   1  13
TORSDOF 4
ENDMDL
MODEL 2
REMARK VINA RESULT:      -6.5      2.474      5.819
REMARK  Name = 
REMARK  4 active torsions:
REMARK  status: ('A' for Active; 'I' for Inactive)
REMARK    1  A    between atoms: C_2  and  C_3
REMARK    2  A    between atoms: N_5  and  C_6
REMARK    3  A    between atoms: C_6  and  C_7
REMARK    4  A    between atoms: C_7  and  C_8
REMARK                            x       y       z     vdW  Elec       q    Type
REMARK                         _______ _______ _______ _____ _____    ______ ____
ROOT
ATOM      1  C   UNL     1     -12.030  13.668  68.773  0.00  0.00    +0.024 C 
ATOM      2  C   UNL     1     -11.889  14.174  67.263  0.00  0.00    -0.027 A 
ATOM      3  C   UNL     1     -11.931  12.949  66.591  0.00  0.00    -0.026 A 
ATOM      4  C   UNL     1     -12.293  13.079  65.255  0.00  0.00    -0.001 A 
ATOM      5  C   UNL     1     -11.909  14.272  64.639  0.00  0.00    +0.036 A 
ATOM      6  C   UNL     1     -11.112  15.196  65.309  0.00  0.00    +0.134 A 
ATOM      7  O   UNL     1     -10.000  15.969  64.967  0.00  0.00    -0.475 OA
ATOM      8  C   UNL     1      -9.072  15.949  66.051  0.00  0.00    +0.210 C 
ATOM      9  C   UNL     1     -10.005  15.990  67.221  0.00  0.00    +0.076 C 
ATOM     10  C   UNL     1     -11.511  11.839  67.497  0.00  0.00    +0.026 C 
ATOM     11  C   UNL     1     -11.175  15.195  66.701  0.00  0.00    +0.011 A 
ATOM     12  C   UNL     1     -10.757  12.665  68.547  0.00  0.00    +0.009 C 
ENDROOT
BRANCH   1  13
ATOM     13  C   UNL     1     -11.101  14.826  69.471  0.00  0.00    +0.028 C 
BRANCH  13  14
ATOM     14  C   UNL     1     -12.234  15.512  70.238  0.00  0.00    +0.115 C 
BRANCH  14  16
ATOM     15  C   UNL     1     -12.824  15.613  72.714  0.00  0.00    +0.241 C 
ATOM     16  N   UNL     1     -11.998  15.266  71.631  0.00  0.00    -0.205 NA
ATOM     17  O   UNL     1     -14.020  15.905  72.425  0.00  0.00    -0.273 OA
BRANCH  15  19
ATOM     18  C   UNL     1     -12.468  16.132  74.834  0.00  0.00    +0.010 C 
ATOM     19  C   UNL     1     -12.440  15.259  74.120  0.00  0.00    +0.087 C 
ENDBRANCH  15  19
ENDBRANCH  14  16
ENDBRANCH  13  14
ENDBRANCH   1  13
TORSDOF 4
ENDMDL
MODEL 3
REMARK VINA RESULT:      -6.4      3.237      5.986
REMARK  Name = 
REMARK  4 active torsions:
REMARK  status: ('A' for Active; 'I' for Inactive)
REMARK    1  A    between atoms: C_2  and  C_3
REMARK    2  A    between atoms: N_5  and  C_6
REMARK    3  A    between atoms: C_6  and  C_7
REMARK    4  A    between atoms: C_7  and  C_8
REMARK                            x       y       z     vdW  Elec       q    Type
REMARK                         _______ _______ _______ _____ _____    ______ ____
ROOT
ATOM      1  C   UNL     1     -11.051  11.843  67.648  0.00  0.00    +0.024 C 
ATOM      2  C   UNL     1     -11.371  11.852  66.081  0.00  0.00    -0.027 A 
ATOM      3  C   UNL     1     -10.132  11.443  65.579  0.00  0.00    -0.026 A 
ATOM      4  C   UNL     1     -10.220  10.914  64.296  0.00  0.00    -0.001 A 
ATOM      5  C   UNL     1     -11.230  11.444  63.491  0.00  0.00    +0.036 A 
ATOM      6  C   UNL     1     -12.002  12.517  63.931  0.00  0.00    +0.134 A 
ATOM      7  O   UNL     1     -12.463  13.701  63.352  0.00  0.00    -0.475 OA
ATOM      8  C   UNL     1     -12.328  14.761  64.299  0.00  0.00    +0.210 C 
ATOM      9  C   UNL     1     -12.691  14.053  65.567  0.00  0.00    +0.076 C 
ATOM     10  C   UNL     1      -9.043  11.751  66.553  0.00  0.00    +0.026 C 
ATOM     11  C   UNL     1     -12.144  12.673  65.308  0.00  0.00    +0.011 A 
ATOM     12  C   UNL     1      -9.765  12.819  67.383  0.00  0.00    +0.009 C 
ENDROOT
BRANCH   1  13
ATOM     13  C   UNL     1     -12.023  13.097  68.069  0.00  0.00    +0.028 C 
BRANCH  13  14
ATOM     14  C   UNL     1     -11.274  13.469  69.349  0.00  0.00    +0.115 C 
BRANCH  14  16
ATOM     15  C   UNL     1     -12.641  15.146  70.695  0.00  0.00    +0.241 C 
ATOM     16  N   UNL     1     -12.266  13.846  70.315  0.00  0.00    -0.205 NA
ATOM     17  O   UNL     1     -12.288  16.073  69.912  0.00  0.00    -0.273 OA
BRANCH  15  19
ATOM     18  C   UNL     1     -14.329  14.446  71.942  0.00  0.00    +0.010 C 
ATOM     19  C   UNL     1     -13.722  15.369  71.710  0.00  0.00    +0.087 C 
ENDBRANCH  15  19
ENDBRANCH  14  16
ENDBRANCH  13  14
ENDBRANCH   1  13
TORSDOF 4
ENDMDL
MODEL 4
REMARK VINA RESULT:      -6.2      2.930      6.476
REMARK  Name = 
REMARK  4 active torsions:
REMARK  status: ('A' for Active; 'I' for Inactive)
REMARK    1  A    between atoms: C_2  and  C_3
REMARK    2  A    between atoms: N_5  and  C_6
REMARK    3  A    between atoms: C_6  and  C_7
REMARK    4  A    between atoms: C_7  and  C_8
REMARK                            x       y       z     vdW  Elec       q    Type
REMARK                         _______ _______ _______ _____ _____    ______ ____
ROOT
ATOM      1  C   UNL     1     -11.239  11.365  67.267  0.00  0.00    +0.024 C 
ATOM      2  C   UNL     1     -11.660  12.234  65.993  0.00  0.00    -0.027 A 
ATOM      3  C   UNL     1     -11.022  11.510  64.983  0.00  0.00    -0.026 A 
ATOM      4  C   UNL     1     -11.571  11.740  63.727  0.00  0.00    -0.001 A 
ATOM      5  C   UNL     1     -12.108  13.013  63.526  0.00  0.00    +0.036 A 
ATOM      6  C   UNL     1     -11.979  14.003  64.498  0.00  0.00    +0.134 A 
ATOM      7  O   UNL     1     -11.657  15.362  64.482  0.00  0.00    -0.475 OA
ATOM      8  C   UNL     1     -10.779  15.640  65.572  0.00  0.00    +0.210 C 
ATOM      9  C   UNL     1     -11.355  14.754  66.632  0.00  0.00    +0.076 C 
ATOM     10  C   UNL     1      -9.877  10.729  65.540  0.00  0.00    +0.026 C 
ATOM     11  C   UNL     1     -11.830  13.579  65.817  0.00  0.00    +0.011 A 
ATOM     12  C   UNL     1      -9.666  11.516  66.840  0.00  0.00    +0.009 C 
ENDROOT
BRANCH   1  13
ATOM     13  C   UNL     1     -11.151  12.600  68.345  0.00  0.00    +0.028 C 
BRANCH  13  14
ATOM     14  C   UNL     1     -11.730  11.829  69.533  0.00  0.00    +0.115 C 
BRANCH  14  16
ATOM     15  C   UNL     1     -13.095  12.596  71.542  0.00  0.00    +0.241 C 
ATOM     16  N   UNL     1     -12.224  12.805  70.460  0.00  0.00    -0.205 NA
ATOM     17  O   UNL     1     -13.229  11.397  71.919  0.00  0.00    -0.273 OA
BRANCH  15  19
ATOM     18  C   UNL     1     -14.344  14.355  72.029  0.00  0.00    +0.010 C 
ATOM     19  C   UNL     1     -13.498  13.730  72.437  0.00  0.00    +0.087 C 
ENDBRANCH  15  19
ENDBRANCH  14  16
ENDBRANCH  13  14
ENDBRANCH   1  13
TORSDOF 4
ENDMDL
MODEL 5
REMARK VINA RESULT:      -5.9      2.815      6.893
REMARK  Name = 
REMARK  4 active torsions:
REMARK  status: ('A' for Active; 'I' for Inactive)
REMARK    1  A    between atoms: C_2  and  C_3
REMARK    2  A    between atoms: N_5  and  C_6
REMARK    3  A    between atoms: C_6  and  C_7
REMARK    4  A    between atoms: C_7  and  C_8
REMARK                            x       y       z     vdW  Elec       q    Type
REMARK                         _______ _______ _______ _____ _____    ______ ____
ROOT
ATOM      1  C   UNL     1     -11.395  11.966  67.706  0.00  0.00    +0.024 C 
ATOM      2  C   UNL     1     -11.723  12.871  66.430  0.00  0.00    -0.027 A 
ATOM      3  C   UNL     1     -11.418  11.969  65.407  0.00  0.00    -0.026 A 
ATOM      4  C   UNL     1     -12.032  12.294  64.203  0.00  0.00    -0.001 A 
ATOM      5  C   UNL     1     -12.241  13.656  63.978  0.00  0.00    +0.036 A 
ATOM      6  C   UNL     1     -11.746  14.609  64.866  0.00  0.00    +0.134 A 
ATOM      7  O   UNL     1     -11.087  15.832  64.730  0.00  0.00    -0.475 OA
ATOM      8  C   UNL     1     -10.045  15.906  65.703  0.00  0.00    +0.210 C 
ATOM      9  C   UNL     1     -10.702  15.241  66.872  0.00  0.00    +0.076 C 
ATOM     10  C   UNL     1     -10.458  10.933  65.891  0.00  0.00    +0.026 C 
ATOM     11  C   UNL     1     -11.558  14.206  66.187  0.00  0.00    +0.011 A 
ATOM     12  C   UNL     1      -9.899  11.680  67.108  0.00  0.00    +0.009 C 
ENDROOT
BRANCH   1  13
ATOM     13  C   UNL     1     -10.864  13.169  68.688  0.00  0.00    +0.028 C 
BRANCH  13  14
ATOM     14  C   UNL     1     -11.978  13.041  69.729  0.00  0.00    +0.115 C 
BRANCH  14  16
ATOM     15  C   UNL     1     -12.595  11.096  71.254  0.00  0.00    +0.241 C 
ATOM     16  N   UNL     1     -12.060  11.653  70.080  0.00  0.00    -0.205 NA
ATOM     17  O   UNL     1     -13.337  11.857  71.938  0.00  0.00    -0.273 OA
BRANCH  15  19
ATOM     18  C   UNL     1     -13.444   9.262  72.152  0.00  0.00    +0.010 C 
ATOM     19  C   UNL     1     -12.626   9.610  71.457  0.00  0.00    +0.087 C 
ENDBRANCH  15  19
ENDBRANCH  14  16
ENDBRANCH  13  14
ENDBRANCH   1  13
TORSDOF 4
ENDMDL
MODEL 6
REMARK VINA RESULT:      -5.8      2.776      4.994
REMARK  Name = 
REMARK  4 active torsions:
REMARK  status: ('A' for Active; 'I' for Inactive)
REMARK    1  A    between atoms: C_2  and  C_3
REMARK    2  A    between atoms: N_5  and  C_6
REMARK    3  A    between atoms: C_6  and  C_7
REMARK    4  A    between atoms: C_7  and  C_8
REMARK                            x       y       z     vdW  Elec       q    Type
REMARK                         _______ _______ _______ _____ _____    ______ ____
ROOT
ATOM      1  C   UNL     1      -9.520  14.859  68.450  0.00  0.00    +0.024 C 
ATOM      2  C   UNL     1     -10.255  13.549  67.900  0.00  0.00    -0.027 A 
ATOM      3  C   UNL     1      -9.147  12.728  67.669  0.00  0.00    -0.026 A 
ATOM      4  C   UNL     1      -9.477  11.378  67.628  0.00  0.00    -0.001 A 
ATOM      5  C   UNL     1     -10.756  11.083  67.151  0.00  0.00    +0.036 A 
ATOM      6  C   UNL     1     -11.578  12.087  66.644  0.00  0.00    +0.134 A 
ATOM      7  O   UNL     1     -12.410  12.209  65.530  0.00  0.00    -0.475 OA
ATOM      8  C   UNL     1     -12.236  13.508  64.964  0.00  0.00    +0.210 C 
ATOM      9  C   UNL     1     -12.083  14.336  66.201  0.00  0.00    +0.076 C 
ATOM     10  C   UNL     1      -7.917  13.550  67.469  0.00  0.00    +0.026 C 
ATOM     11  C   UNL     1     -11.361  13.381  67.115  0.00  0.00    +0.011 A 
ATOM     12  C   UNL     1      -8.582  14.885  67.109  0.00  0.00    +0.009 C 
ENDROOT
BRANCH   1  13
ATOM     13  C   UNL     1     -10.570  15.962  67.840  0.00  0.00    +0.028 C 
BRANCH  13  14
ATOM     14  C   UNL     1     -10.902  16.634  69.173  0.00  0.00    +0.115 C 
BRANCH  14  16
ATOM     15  C   UNL     1     -12.423  15.704  70.993  0.00  0.00    +0.241 C 
ATOM     16  N   UNL     1     -12.102  16.017  69.661  0.00  0.00    -0.205 NA
ATOM     17  O   UNL     1     -11.729  16.279  71.878  0.00  0.00    -0.273 OA
BRANCH  15  19
ATOM     18  C   UNL     1     -14.217  15.499  72.271  0.00  0.00    +0.010 C 
ATOM     19  C   UNL     1     -13.741  15.077  71.339  0.00  0.00    +0.087 C 
ENDBRANCH  15  19
ENDBRANCH  14  16
ENDBRANCH  13  14
ENDBRANCH   1  13
TORSDOF 4
ENDMDL
MODEL 7
REMARK VINA RESULT:      -5.8      3.297      4.736
REMARK  Name = 
REMARK  4 active torsions:
REMARK  status: ('A' for Active; 'I' for Inactive)
REMARK    1  A    between atoms: C_2  and  C_3
REMARK    2  A    between atoms: N_5  and  C_6
REMARK    3  A    between atoms: C_6  and  C_7
REMARK    4  A    between atoms: C_7  and  C_8
REMARK                            x       y       z     vdW  Elec       q    Type
REMARK                         _______ _______ _______ _____ _____    ______ ____
ROOT
ATOM      1  C   UNL     1     -10.622  14.351  64.704  0.00  0.00    +0.024 C 
ATOM      2  C   UNL     1     -10.359  12.851  65.193  0.00  0.00    -0.027 A 
ATOM      3  C   UNL     1     -10.988  12.146  64.162  0.00  0.00    -0.026 A 
ATOM      4  C   UNL     1     -10.540  10.835  64.055  0.00  0.00    -0.001 A 
ATOM      5  C   UNL     1     -10.134  10.235  65.249  0.00  0.00    +0.036 A 
ATOM      6  C   UNL     1     -10.295  10.892  66.467  0.00  0.00    +0.134 A 
ATOM      7  O   UNL     1     -10.740  10.517  67.737  0.00  0.00    -0.475 OA
ATOM      8  C   UNL     1     -11.573  11.553  68.258  0.00  0.00    +0.210 C 
ATOM      9  C   UNL     1     -10.856  12.769  67.762  0.00  0.00    +0.076 C 
ATOM     10  C   UNL     1     -12.020  12.997  63.499  0.00  0.00    +0.026 C 
ATOM     11  C   UNL     1     -10.325  12.285  66.437  0.00  0.00    +0.011 A 
ATOM     12  C   UNL     1     -12.224  14.032  64.613  0.00  0.00    +0.009 C 
ENDROOT
BRANCH   1  13
ATOM     13  C   UNL     1     -10.757  15.035  66.190  0.00  0.00    +0.028 C 
BRANCH  13  14
ATOM     14  C   UNL     1      -9.467  15.854  66.117  0.00  0.00    +0.115 C 
BRANCH  14  16
ATOM     15  C   UNL     1     -10.292  18.070  67.064  0.00  0.00    +0.241 C 
ATOM     16  N   UNL     1      -9.855  17.232  66.025  0.00  0.00    -0.205 NA
ATOM     17  O   UNL     1     -10.045  17.670  68.237  0.00  0.00    -0.273 OA
BRANCH  15  19
ATOM     18  C   UNL     1      -9.901  20.241  67.233  0.00  0.00    +0.010 C 
ATOM     19  C   UNL     1     -10.640  19.505  66.802  0.00  0.00    +0.087 C 
ENDBRANCH  15  19
ENDBRANCH  14  16
ENDBRANCH  13  14
ENDBRANCH   1  13
TORSDOF 4
ENDMDL
MODEL 8
REMARK VINA RESULT:      -5.7      4.009      6.135
REMARK  Name = 
REMARK  4 active torsions:
REMARK  status: ('A' for Active; 'I' for Inactive)
REMARK    1  A    between atoms: C_2  and  C_3
REMARK    2  A    between atoms: N_5  and  C_6
REMARK    3  A    between atoms: C_6  and  C_7
REMARK    4  A    between atoms: C_7  and  C_8
REMARK                            x       y       z     vdW  Elec       q    Type
REMARK                         _______ _______ _______ _____ _____    ______ ____
ROOT
ATOM      1  C   UNL     1     -10.824  13.503  65.304  0.00  0.00    +0.024 C 
ATOM      2  C   UNL     1     -10.174  12.079  64.976  0.00  0.00    -0.027 A 
ATOM      3  C   UNL     1     -10.799  11.803  63.757  0.00  0.00    -0.026 A 
ATOM      4  C   UNL     1     -10.107  10.866  62.997  0.00  0.00    -0.001 A 
ATOM      5  C   UNL     1      -9.395   9.908  63.721  0.00  0.00    +0.036 A 
ATOM      6  C   UNL     1      -9.490   9.848  65.110  0.00  0.00    +0.134 A 
ATOM      7  O   UNL     1      -9.633   8.819  66.043  0.00  0.00    -0.475 OA
ATOM      8  C   UNL     1     -10.570   9.227  67.040  0.00  0.00    +0.210 C 
ATOM      9  C   UNL     1     -10.216  10.674  67.184  0.00  0.00    +0.076 C 
ATOM     10  C   UNL     1     -12.082  12.558  63.641  0.00  0.00    +0.026 C 
ATOM     11  C   UNL     1      -9.818  11.028  65.774  0.00  0.00    +0.011 A 
ATOM     12  C   UNL     1     -12.315  12.854  65.128  0.00  0.00    +0.009 C 
ENDROOT
BRANCH   1  13
ATOM     13  C   UNL     1     -10.857  13.348  66.938  0.00  0.00    +0.028 C 
BRANCH  13  14
ATOM     14  C   UNL     1     -12.002  14.333  67.178  0.00  0.00    +0.115 C 
BRANCH  14  16
ATOM     15  C   UNL     1     -11.671  15.695  69.306  0.00  0.00    +0.241 C 
ATOM     16  N   UNL     1     -12.071  14.551  68.594  0.00  0.00    -0.205 NA
ATOM     17  O   UNL     1     -11.507  16.743  68.619  0.00  0.00    -0.273 OA
BRANCH  15  19
ATOM     18  C   UNL     1     -12.889  15.581  71.149  0.00  0.00    +0.010 C 
ATOM     19  C   UNL     1     -11.834  15.771  70.795  0.00  0.00    +0.087 C 
ENDBRANCH  15  19
ENDBRANCH  14  16
ENDBRANCH  13  14
ENDBRANCH   1  13
TORSDOF 4
ENDMDL
MODEL 9
REMARK VINA RESULT:      -5.7      4.245      6.843
REMARK  Name = 
REMARK  4 active torsions:
REMARK  status: ('A' for Active; 'I' for Inactive)
REMARK    1  A    between atoms: C_2  and  C_3
REMARK    2  A    between atoms: N_5  and  C_6
REMARK    3  A    between atoms: C_6  and  C_7
REMARK    4  A    between atoms: C_7  and  C_8
REMARK                            x       y       z     vdW  Elec       q    Type
REMARK                         _______ _______ _______ _____ _____    ______ ____
ROOT
ATOM      1  C   UNL     1      -8.491  15.660  66.768  0.00  0.00    +0.024 C 
ATOM      2  C   UNL     1      -8.217  17.203  67.084  0.00  0.00    -0.027 A 
ATOM      3  C   UNL     1      -7.735  17.101  68.392  0.00  0.00    -0.026 A 
ATOM      4  C   UNL     1      -6.984  18.206  68.776  0.00  0.00    -0.001 A 
ATOM      5  C   UNL     1      -7.355  19.421  68.195  0.00  0.00    +0.036 A 
ATOM      6  C   UNL     1      -8.483  19.507  67.382  0.00  0.00    +0.134 A 
ATOM      7  O   UNL     1      -9.541  20.410  67.259  0.00  0.00    -0.475 OA
ATOM      8  C   UNL     1     -10.753  19.678  67.082  0.00  0.00    +0.210 C 
ATOM      9  C   UNL     1     -10.281  18.556  66.211  0.00  0.00    +0.076 C 
ATOM     10  C   UNL     1      -8.219  15.843  69.034  0.00  0.00    +0.026 C 
ATOM     11  C   UNL     1      -8.881  18.344  66.726  0.00  0.00    +0.011 A 
ATOM     12  C   UNL     1      -9.414  15.556  68.115  0.00  0.00    +0.009 C 
ENDROOT
BRANCH   1  13
ATOM     13  C   UNL     1      -9.792  15.872  65.791  0.00  0.00    +0.028 C 
BRANCH  13  14
ATOM     14  C   UNL     1     -10.634  14.741  66.383  0.00  0.00    +0.115 C 
BRANCH  14  16
ATOM     15  C   UNL     1     -12.126  13.350  64.856  0.00  0.00    +0.241 C 
ATOM     16  N   UNL     1     -10.882  13.809  65.320  0.00  0.00    -0.205 NA
ATOM     17  O   UNL     1     -13.131  14.035  65.202  0.00  0.00    -0.273 OA
BRANCH  15  19
ATOM     18  C   UNL     1     -11.230  11.895  63.452  0.00  0.00    +0.010 C 
ATOM     19  C   UNL     1     -12.212  12.386  63.710  0.00  0.00    +0.087 C 
ENDBRANCH  15  19
ENDBRANCH  14  16
ENDBRANCH  13  14
ENDBRANCH   1  13
TORSDOF 4
ENDMDL
