MODEL 1
REMARK VINA RESULT:      -5.5      0.000      0.000
REMARK  Name = 
REMARK  12 active torsions:
REMARK  status: ('A' for Active; 'I' for Inactive)
REMARK    1  A    between atoms: C_2  and  C_3
REMARK    2  A    between atoms: N_5  and  C_6
REMARK    3  A    between atoms: N_5  and  C_9
REMARK    4  A    between atoms: C_6  and  C_7
REMARK    5  A    between atoms: C_12  and  C_13
REMARK    6  A    between atoms: N_15  and  C_16
REMARK    7  A    between atoms: C_16  and  C_17
REMARK    8  A    between atoms: C_17  and  C_19
REMARK    9  A    between atoms: C_23  and  C_24
REMARK   10  A    between atoms: N_26  and  C_27
REMARK   11  A    between atoms: C_27  and  C_28
REMARK   12  A    between atoms: C_28  and  C_30
REMARK                            x       y       z     vdW  Elec       q    Type
REMARK                         _______ _______ _______ _____ _____    ______ ____
ROOT
ATOM      1  C   UNL     1      -8.475  16.907  67.351  0.00  0.00    +0.065 A 
ATOM      2  C   UNL     1      -8.067  18.151  66.892  0.00  0.00    +0.049 A 
ATOM      3  I   UNL     1      -9.279  19.791  67.465  0.00  0.00    -0.041 I 
ATOM      4  C   UNL     1      -6.826  18.358  66.301  0.00  0.00    +0.067 A 
ATOM      5  C   UNL     1      -5.887  17.395  66.530  0.00  0.00    +0.040 A 
ATOM      6  I   UNL     1      -3.907  17.785  65.923  0.00  0.00    -0.042 I 
ATOM      7  C   UNL     1      -6.138  16.317  67.373  0.00  0.00    +0.067 A 
ATOM      8  C   UNL     1      -7.478  15.941  67.434  0.00  0.00    +0.049 A 
ATOM      9  I   UNL     1      -8.025  14.073  68.194  0.00  0.00    -0.041 I 
ENDROOT
BRANCH   1  12
ATOM     10  O   UNL     1     -10.389  17.126  65.202  0.00  0.00    -0.272 OA
ATOM     11  C   UNL     1     -10.251  16.365  65.793  0.00  0.00    +0.263 C 
ATOM     12  N   UNL     1      -9.846  16.574  67.155  0.00  0.00    -0.253 N 
BRANCH  11  13
ATOM     13  C   UNL     1     -10.309  14.978  65.234  0.00  0.00    +0.267 C 
ATOM     14  O   UNL     1     -11.653  14.572  65.219  0.00  0.00    -0.210 OA
ENDBRANCH  11  13
BRANCH  12  15
ATOM     15  C   UNL     1     -10.911  16.932  68.057  0.00  0.00    +0.134 C 
BRANCH  15  16
ATOM     16  C   UNL     1     -11.587  15.722  68.680  0.00  0.00    +0.204 C 
ATOM     17  O   UNL     1     -12.326  16.024  69.801  0.00  0.00    -0.218 OA
ENDBRANCH  15  16
ENDBRANCH  12  15
ENDBRANCH   1  12
BRANCH   4  18
ATOM     18  C   UNL     1      -6.566  19.676  65.763  0.00  0.00    +0.266 C 
ATOM     19  N   UNL     1      -6.779  20.037  64.393  0.00  0.00    -0.199 NA
ATOM     20  O   UNL     1      -5.927  20.537  66.440  0.00  0.00    -0.268 OA
BRANCH  19  21
ATOM     21  C   UNL     1      -5.731  20.764  63.758  0.00  0.00    +0.151 C 
BRANCH  21  22
ATOM     22  C   UNL     1      -6.055  20.761  62.111  0.00  0.00    +0.206 C 
ATOM     23  O   UNL     1      -6.722  22.159  62.121  0.00  0.00    -0.218 OA
BRANCH  22  24
ATOM     24  C   UNL     1      -4.558  21.452  61.776  0.00  0.00    +0.217 C 
ATOM     25  O   UNL     1      -4.809  22.814  61.872  0.00  0.00    -0.218 OA
ENDBRANCH  22  24
ENDBRANCH  21  22
ENDBRANCH  19  21
ENDBRANCH   4  18
BRANCH   7  26
ATOM     26  C   UNL     1      -5.088  15.492  67.939  0.00  0.00    +0.266 C 
ATOM     27  N   UNL     1      -4.717  15.508  69.319  0.00  0.00    -0.199 NA
ATOM     28  O   UNL     1      -4.688  14.531  67.216  0.00  0.00    -0.268 OA
BRANCH  27  29
ATOM     29  C   UNL     1      -4.293  14.278  69.905  0.00  0.00    +0.151 C 
BRANCH  29  30
ATOM     30  C   UNL     1      -4.123  14.604  71.544  0.00  0.00    +0.206 C 
ATOM     31  O   UNL     1      -4.623  16.059  71.375  0.00  0.00    -0.218 OA
BRANCH  30  32
ATOM     32  C   UNL     1      -5.678  14.057  71.876  0.00  0.00    +0.217 C 
ATOM     33  O   UNL     1      -5.561  12.776  71.302  0.00  0.00    -0.218 OA
ENDBRANCH  30  32
ENDBRANCH  29  30
ENDBRANCH  27  29
ENDBRANCH   7  26
TORSDOF 12
ENDMDL
MODEL 2
REMARK VINA RESULT:      -5.3      4.889      8.684
REMARK  Name = 
REMARK  12 active torsions:
REMARK  status: ('A' for Active; 'I' for Inactive)
REMARK    1  A    between atoms: C_2  and  C_3
REMARK    2  A    between atoms: N_5  and  C_6
REMARK    3  A    between atoms: N_5  and  C_9
REMARK    4  A    between atoms: C_6  and  C_7
REMARK    5  A    between atoms: C_12  and  C_13
REMARK    6  A    between atoms: N_15  and  C_16
REMARK    7  A    between atoms: C_16  and  C_17
REMARK    8  A    between atoms: C_17  and  C_19
REMARK    9  A    between atoms: C_23  and  C_24
REMARK   10  A    between atoms: N_26  and  C_27
REMARK   11  A    between atoms: C_27  and  C_28
REMARK   12  A    between atoms: C_28  and  C_30
REMARK                            x       y       z     vdW  Elec       q    Type
REMARK                         _______ _______ _______ _____ _____    ______ ____
ROOT
ATOM      1  C   UNL     1      -9.481  12.918  66.122  0.00  0.00    +0.065 A 
ATOM      2  C   UNL     1      -9.543  11.603  65.681  0.00  0.00    +0.049 A 
ATOM      3  I   UNL     1     -10.398  11.312  63.764  0.00  0.00    -0.041 I 
ATOM      4  C   UNL     1      -8.881  10.567  66.327  0.00  0.00    +0.067 A 
ATOM      5  C   UNL     1      -7.875  10.936  67.172  0.00  0.00    +0.040 A 
ATOM      6  I   UNL     1      -6.636   9.420  67.950  0.00  0.00    -0.042 I 
ATOM      7  C   UNL     1      -7.487  12.265  67.308  0.00  0.00    +0.067 A 
ATOM      8  C   UNL     1      -8.509  13.184  67.081  0.00  0.00    +0.049 A 
ATOM      9  I   UNL     1      -8.323  15.164  67.721  0.00  0.00    -0.041 I 
ENDROOT
BRANCH   1  12
ATOM     10  O   UNL     1     -12.279  12.504  66.696  0.00  0.00    -0.272 OA
ATOM     11  C   UNL     1     -11.748  13.296  66.893  0.00  0.00    +0.263 C 
ATOM     12  N   UNL     1     -10.679  13.682  66.016  0.00  0.00    -0.253 N 
BRANCH  11  13
ATOM     13  C   UNL     1     -11.948  14.013  68.191  0.00  0.00    +0.267 C 
ATOM     14  O   UNL     1     -11.647  13.119  69.231  0.00  0.00    -0.210 OA
ENDBRANCH  11  13
BRANCH  12  15
ATOM     15  C   UNL     1     -11.091  14.396  64.834  0.00  0.00    +0.134 C 
BRANCH  15  16
ATOM     16  C   UNL     1     -10.941  15.902  64.974  0.00  0.00    +0.204 C 
ATOM     17  O   UNL     1     -11.550  16.609  63.963  0.00  0.00    -0.218 OA
ENDBRANCH  15  16
ENDBRANCH  12  15
ENDBRANCH   1  12
BRANCH   4  18
ATOM     18  C   UNL     1      -9.117   9.227  65.834  0.00  0.00    +0.266 C 
ATOM     19  N   UNL     1     -10.072   8.323  66.401  0.00  0.00    -0.199 NA
ATOM     20  O   UNL     1      -8.330   8.700  64.991  0.00  0.00    -0.268 OA
BRANCH  19  21
ATOM     21  C   UNL     1      -9.626   6.988  66.625  0.00  0.00    +0.151 C 
BRANCH  21  22
ATOM     22  C   UNL     1     -10.920   6.139  67.276  0.00  0.00    +0.206 C 
ATOM     23  O   UNL     1     -10.107   4.839  67.497  0.00  0.00    -0.218 OA
BRANCH  22  24
ATOM     24  C   UNL     1     -10.536   6.670  68.827  0.00  0.00    +0.217 C 
ATOM     25  O   UNL     1     -11.584   6.182  69.597  0.00  0.00    -0.218 OA
ENDBRANCH  22  24
ENDBRANCH  21  22
ENDBRANCH  19  21
ENDBRANCH   4  18
BRANCH   7  26
ATOM     26  C   UNL     1      -6.216  12.665  67.881  0.00  0.00    +0.266 C 
ATOM     27  N   UNL     1      -5.939  12.671  69.283  0.00  0.00    -0.199 NA
ATOM     28  O   UNL     1      -5.244  12.744  67.072  0.00  0.00    -0.268 OA
BRANCH  27  29
ATOM     29  C   UNL     1      -4.613  12.345  69.697  0.00  0.00    +0.151 C 
BRANCH  29  30
ATOM     30  C   UNL     1      -4.322  13.304  71.046  0.00  0.00    +0.206 C 
ATOM     31  O   UNL     1      -5.777  13.148  71.553  0.00  0.00    -0.218 OA
BRANCH  30  32
ATOM     32  C   UNL     1      -3.814  11.980  71.950  0.00  0.00    +0.217 C 
ATOM     33  O   UNL     1      -4.992  11.791  72.698  0.00  0.00    -0.218 OA
ENDBRANCH  30  32
ENDBRANCH  29  30
ENDBRANCH  27  29
ENDBRANCH   7  26
TORSDOF 12
ENDMDL
MODEL 3
REMARK VINA RESULT:      -5.3      4.206      8.122
REMARK  Name = 
REMARK  12 active torsions:
REMARK  status: ('A' for Active; 'I' for Inactive)
REMARK    1  A    between atoms: C_2  and  C_3
REMARK    2  A    between atoms: N_5  and  C_6
REMARK    3  A    between atoms: N_5  and  C_9
REMARK    4  A    between atoms: C_6  and  C_7
REMARK    5  A    between atoms: C_12  and  C_13
REMARK    6  A    between atoms: N_15  and  C_16
REMARK    7  A    between atoms: C_16  and  C_17
REMARK    8  A    between atoms: C_17  and  C_19
REMARK    9  A    between atoms: C_23  and  C_24
REMARK   10  A    between atoms: N_26  and  C_27
REMARK   11  A    between atoms: C_27  and  C_28
REMARK   12  A    between atoms: C_28  and  C_30
REMARK                            x       y       z     vdW  Elec       q    Type
REMARK                         _______ _______ _______ _____ _____    ______ ____
ROOT
ATOM      1  C   UNL     1      -9.182  13.734  66.840  0.00  0.00    +0.065 A 
ATOM      2  C   UNL     1      -9.407  12.370  66.966  0.00  0.00    +0.049 A 
ATOM      3  I   UNL     1     -10.534  11.474  65.411  0.00  0.00    -0.041 I 
ATOM      4  C   UNL     1      -8.749  11.588  67.906  0.00  0.00    +0.067 A 
ATOM      5  C   UNL     1      -7.612  12.124  68.437  0.00  0.00    +0.040 A 
ATOM      6  I   UNL     1      -6.404  10.880  69.636  0.00  0.00    -0.042 I 
ATOM      7  C   UNL     1      -7.103  13.342  67.997  0.00  0.00    +0.067 A 
ATOM      8  C   UNL     1      -8.071  14.223  67.519  0.00  0.00    +0.049 A 
ATOM      9  I   UNL     1      -7.642  16.256  67.299  0.00  0.00    -0.041 I 
ENDROOT
BRANCH   1  12
ATOM     10  O   UNL     1     -11.922  13.880  67.733  0.00  0.00    -0.272 OA
ATOM     11  C   UNL     1     -11.310  14.623  67.585  0.00  0.00    +0.263 C 
ATOM     12  N   UNL     1     -10.317  14.543  66.550  0.00  0.00    -0.253 N 
BRANCH  11  13
ATOM     13  C   UNL     1     -11.305  15.775  68.540  0.00  0.00    +0.267 C 
ATOM     14  O   UNL     1     -10.640  15.367  69.708  0.00  0.00    -0.210 OA
ENDBRANCH  11  13
BRANCH  12  15
ATOM     15  C   UNL     1     -10.799  14.830  65.223  0.00  0.00    +0.134 C 
BRANCH  15  16
ATOM     16  C   UNL     1     -10.850  16.320  64.925  0.00  0.00    +0.204 C 
ATOM     17  O   UNL     1     -11.665  16.638  63.862  0.00  0.00    -0.218 OA
ENDBRANCH  15  16
ENDBRANCH  12  15
ENDBRANCH   1  12
BRANCH   4  18
ATOM     18  C   UNL     1      -9.155  10.204  68.011  0.00  0.00    +0.266 C 
ATOM     19  N   UNL     1     -10.153   9.729  68.923  0.00  0.00    -0.199 NA
ATOM     20  O   UNL     1      -8.490   9.288  67.437  0.00  0.00    -0.268 OA
BRANCH  19  21
ATOM     21  C   UNL     1      -9.830   8.554  69.662  0.00  0.00    +0.151 C 
BRANCH  21  22
ATOM     22  C   UNL     1     -10.204   8.864  71.269  0.00  0.00    +0.206 C 
ATOM     23  O   UNL     1     -11.159  10.039  70.941  0.00  0.00    -0.218 OA
BRANCH  22  24
ATOM     24  C   UNL     1     -11.487   7.777  71.219  0.00  0.00    +0.217 C 
ATOM     25  O   UNL     1     -12.577   8.555  71.584  0.00  0.00    -0.218 OA
ENDBRANCH  22  24
ENDBRANCH  21  22
ENDBRANCH  19  21
ENDBRANCH   4  18
BRANCH   7  26
ATOM     26  C   UNL     1      -5.740  13.767  68.243  0.00  0.00    +0.266 C 
ATOM     27  N   UNL     1      -5.283  14.309  69.484  0.00  0.00    -0.199 NA
ATOM     28  O   UNL     1      -4.877  13.378  67.400  0.00  0.00    -0.268 OA
BRANCH  27  29
ATOM     29  C   UNL     1      -3.949  14.006  69.888  0.00  0.00    +0.151 C 
BRANCH  29  30
ATOM     30  C   UNL     1      -3.866  14.450  71.507  0.00  0.00    +0.206 C 
ATOM     31  O   UNL     1      -4.202  15.927  71.189  0.00  0.00    -0.218 OA
BRANCH  30  32
ATOM     32  C   UNL     1      -5.489  14.083  71.752  0.00  0.00    +0.217 C 
ATOM     33  O   UNL     1      -5.316  13.057  72.701  0.00  0.00    -0.218 OA
ENDBRANCH  30  32
ENDBRANCH  29  30
ENDBRANCH  27  29
ENDBRANCH   7  26
TORSDOF 12
ENDMDL
MODEL 4
REMARK VINA RESULT:      -5.3      3.299      7.187
REMARK  Name = 
REMARK  12 active torsions:
REMARK  status: ('A' for Active; 'I' for Inactive)
REMARK    1  A    between atoms: C_2  and  C_3
REMARK    2  A    between atoms: N_5  and  C_6
REMARK    3  A    between atoms: N_5  and  C_9
REMARK    4  A    between atoms: C_6  and  C_7
REMARK    5  A    between atoms: C_12  and  C_13
REMARK    6  A    between atoms: N_15  and  C_16
REMARK    7  A    between atoms: C_16  and  C_17
REMARK    8  A    between atoms: C_17  and  C_19
REMARK    9  A    between atoms: C_23  and  C_24
REMARK   10  A    between atoms: N_26  and  C_27
REMARK   11  A    between atoms: C_27  and  C_28
REMARK   12  A    between atoms: C_28  and  C_30
REMARK                            x       y       z     vdW  Elec       q    Type
REMARK                         _______ _______ _______ _____ _____    ______ ____
ROOT
ATOM      1  C   UNL     1      -6.135  14.671  67.892  0.00  0.00    +0.065 A 
ATOM      2  C   UNL     1      -5.744  15.999  67.979  0.00  0.00    +0.049 A 
ATOM      3  I   UNL     1      -3.824  16.449  67.206  0.00  0.00    -0.041 I 
ATOM      4  C   UNL     1      -6.627  17.017  68.322  0.00  0.00    +0.067 A 
ATOM      5  C   UNL     1      -7.953  16.722  68.200  0.00  0.00    +0.040 A 
ATOM      6  I   UNL     1      -9.335  18.299  68.411  0.00  0.00    -0.042 I 
ATOM      7  C   UNL     1      -8.387  15.505  67.683  0.00  0.00    +0.067 A 
ATOM      8  C   UNL     1      -7.508  14.447  67.903  0.00  0.00    +0.049 A 
ATOM      9  I   UNL     1      -8.151  12.470  67.697  0.00  0.00    -0.041 I 
ENDROOT
BRANCH   1  12
ATOM     10  O   UNL     1      -4.452  14.333  70.212  0.00  0.00    -0.272 OA
ATOM     11  C   UNL     1      -4.995  13.653  69.774  0.00  0.00    +0.263 C 
ATOM     12  N   UNL     1      -5.200  13.700  68.353  0.00  0.00    -0.253 N 
BRANCH  11  13
ATOM     13  C   UNL     1      -5.742  12.659  70.606  0.00  0.00    +0.267 C 
ATOM     14  O   UNL     1      -5.480  12.940  71.957  0.00  0.00    -0.210 OA
ENDBRANCH  11  13
BRANCH  12  15
ATOM     15  C   UNL     1      -4.116  13.171  67.566  0.00  0.00    +0.134 C 
BRANCH  15  16
ATOM     16  C   UNL     1      -4.360  11.741  67.113  0.00  0.00    +0.204 C 
ATOM     17  O   UNL     1      -4.980  11.653  65.888  0.00  0.00    -0.218 OA
ENDBRANCH  15  16
ENDBRANCH  12  15
ENDBRANCH   1  12
BRANCH   4  18
ATOM     18  C   UNL     1      -6.070  18.342  68.487  0.00  0.00    +0.266 C 
ATOM     19  N   UNL     1      -5.522  18.832  69.716  0.00  0.00    -0.199 NA
ATOM     20  O   UNL     1      -6.231  19.227  67.593  0.00  0.00    -0.268 OA
BRANCH  19  21
ATOM     21  C   UNL     1      -5.928  20.139  70.115  0.00  0.00    +0.151 C 
BRANCH  21  22
ATOM     22  C   UNL     1      -5.696  20.242  71.774  0.00  0.00    +0.206 C 
ATOM     23  O   UNL     1      -5.198  18.782  71.913  0.00  0.00    -0.218 OA
BRANCH  22  24
ATOM     24  C   UNL     1      -4.118  20.785  71.558  0.00  0.00    +0.217 C 
ATOM     25  O   UNL     1      -3.421  20.146  72.575  0.00  0.00    -0.218 OA
ENDBRANCH  22  24
ENDBRANCH  21  22
ENDBRANCH  19  21
ENDBRANCH   4  18
BRANCH   7  26
ATOM     26  C   UNL     1      -9.733  15.288  67.189  0.00  0.00    +0.266 C 
ATOM     27  N   UNL     1     -10.049  15.035  65.818  0.00  0.00    -0.199 NA
ATOM     28  O   UNL     1     -10.614  15.044  68.067  0.00  0.00    -0.268 OA
BRANCH  27  29
ATOM     29  C   UNL     1     -11.136  14.153  65.541  0.00  0.00    +0.151 C 
BRANCH  29  30
ATOM     30  C   UNL     1     -10.535  13.048  64.427  0.00  0.00    +0.206 C 
ATOM     31  O   UNL     1     -10.987  11.839  65.282  0.00  0.00    -0.218 OA
BRANCH  30  32
ATOM     32  C   UNL     1     -11.981  13.041  63.567  0.00  0.00    +0.217 C 
ATOM     33  O   UNL     1     -12.860  12.967  64.663  0.00  0.00    -0.218 OA
ENDBRANCH  30  32
ENDBRANCH  29  30
ENDBRANCH  27  29
ENDBRANCH   7  26
TORSDOF 12
ENDMDL
MODEL 5
REMARK VINA RESULT:      -5.3      1.739      5.826
REMARK  Name = 
REMARK  12 active torsions:
REMARK  status: ('A' for Active; 'I' for Inactive)
REMARK    1  A    between atoms: C_2  and  C_3
REMARK    2  A    between atoms: N_5  and  C_6
REMARK    3  A    between atoms: N_5  and  C_9
REMARK    4  A    between atoms: C_6  and  C_7
REMARK    5  A    between atoms: C_12  and  C_13
REMARK    6  A    between atoms: N_15  and  C_16
REMARK    7  A    between atoms: C_16  and  C_17
REMARK    8  A    between atoms: C_17  and  C_19
REMARK    9  A    between atoms: C_23  and  C_24
REMARK   10  A    between atoms: N_26  and  C_27
REMARK   11  A    between atoms: C_27  and  C_28
REMARK   12  A    between atoms: C_28  and  C_30
REMARK                            x       y       z     vdW  Elec       q    Type
REMARK                         _______ _______ _______ _____ _____    ______ ____
ROOT
ATOM      1  C   UNL     1      -6.205  17.028  67.646  0.00  0.00    +0.065 A 
ATOM      2  C   UNL     1      -6.118  18.168  66.859  0.00  0.00    +0.049 A 
ATOM      3  I   UNL     1      -4.363  18.348  65.687  0.00  0.00    -0.041 I 
ATOM      4  C   UNL     1      -7.197  19.020  66.656  0.00  0.00    +0.067 A 
ATOM      5  C   UNL     1      -8.427  18.503  66.941  0.00  0.00    +0.040 A 
ATOM      6  I   UNL     1     -10.121  19.623  66.376  0.00  0.00    -0.042 I 
ATOM      7  C   UNL     1      -8.591  17.177  67.330  0.00  0.00    +0.067 A 
ATOM      8  C   UNL     1      -7.494  16.641  68.000  0.00  0.00    +0.049 A 
ATOM      9  I   UNL     1      -7.685  14.887  69.120  0.00  0.00    -0.041 I 
ENDROOT
BRANCH   1  12
ATOM     10  O   UNL     1      -4.421  18.480  69.390  0.00  0.00    -0.272 OA
ATOM     11  C   UNL     1      -4.817  17.604  69.548  0.00  0.00    +0.263 C 
ATOM     12  N   UNL     1      -5.068  16.718  68.446  0.00  0.00    -0.253 N 
BRANCH  11  13
ATOM     13  C   UNL     1      -5.304  17.252  70.918  0.00  0.00    +0.267 C 
ATOM     14  O   UNL     1      -5.053  18.345  71.762  0.00  0.00    -0.210 OA
ENDBRANCH  11  13
BRANCH  12  15
ATOM     15  C   UNL     1      -3.918  15.985  67.981  0.00  0.00    +0.134 C 
BRANCH  15  16
ATOM     16  C   UNL     1      -3.992  14.503  68.310  0.00  0.00    +0.204 C 
ATOM     17  O   UNL     1      -4.446  13.733  67.264  0.00  0.00    -0.218 OA
ENDBRANCH  15  16
ENDBRANCH  12  15
ENDBRANCH   1  12
BRANCH   4  18
ATOM     18  C   UNL     1      -6.946  20.232  65.907  0.00  0.00    +0.266 C 
ATOM     19  N   UNL     1      -7.020  20.319  64.479  0.00  0.00    -0.199 NA
ATOM     20  O   UNL     1      -6.436  21.247  66.471  0.00  0.00    -0.268 OA
BRANCH  19  21
ATOM     21  C   UNL     1      -5.944  20.993  63.829  0.00  0.00    +0.151 C 
BRANCH  21  22
ATOM     22  C   UNL     1      -6.477  21.401  62.291  0.00  0.00    +0.206 C 
ATOM     23  O   UNL     1      -5.275  22.332  61.995  0.00  0.00    -0.218 OA
BRANCH  22  24
ATOM     24  C   UNL     1      -5.658  20.092  61.620  0.00  0.00    +0.217 C 
ATOM     25  O   UNL     1      -5.758  20.322  60.254  0.00  0.00    -0.218 OA
ENDBRANCH  22  24
ENDBRANCH  21  22
ENDBRANCH  19  21
ENDBRANCH   4  18
BRANCH   7  26
ATOM     26  C   UNL     1      -9.864  16.486  67.278  0.00  0.00    +0.266 C 
ATOM     27  N   UNL     1     -10.188  15.478  66.318  0.00  0.00    -0.199 NA
ATOM     28  O   UNL     1     -10.600  16.603  68.304  0.00  0.00    -0.268 OA
BRANCH  27  29
ATOM     29  C   UNL     1     -11.031  14.407  66.741  0.00  0.00    +0.151 C 
BRANCH  29  30
ATOM     30  C   UNL     1     -11.001  13.297  65.480  0.00  0.00    +0.206 C 
ATOM     31  O   UNL     1     -12.193  12.500  66.066  0.00  0.00    -0.218 OA
BRANCH  30  32
ATOM     32  C   UNL     1     -12.031  14.243  64.545  0.00  0.00    +0.217 C 
ATOM     33  O   UNL     1     -13.221  13.995  65.255  0.00  0.00    -0.218 OA
ENDBRANCH  30  32
ENDBRANCH  29  30
ENDBRANCH  27  29
ENDBRANCH   7  26
TORSDOF 12
ENDMDL
MODEL 6
REMARK VINA RESULT:      -5.2      2.248      7.663
REMARK  Name = 
REMARK  12 active torsions:
REMARK  status: ('A' for Active; 'I' for Inactive)
REMARK    1  A    between atoms: C_2  and  C_3
REMARK    2  A    between atoms: N_5  and  C_6
REMARK    3  A    between atoms: N_5  and  C_9
REMARK    4  A    between atoms: C_6  and  C_7
REMARK    5  A    between atoms: C_12  and  C_13
REMARK    6  A    between atoms: N_15  and  C_16
REMARK    7  A    between atoms: C_16  and  C_17
REMARK    8  A    between atoms: C_17  and  C_19
REMARK    9  A    between atoms: C_23  and  C_24
REMARK   10  A    between atoms: N_26  and  C_27
REMARK   11  A    between atoms: C_27  and  C_28
REMARK   12  A    between atoms: C_28  and  C_30
REMARK                            x       y       z     vdW  Elec       q    Type
REMARK                         _______ _______ _______ _____ _____    ______ ____
ROOT
ATOM      1  C   UNL     1      -6.865  17.974  68.265  0.00  0.00    +0.065 A 
ATOM      2  C   UNL     1      -5.976  16.927  68.462  0.00  0.00    +0.049 A 
ATOM      3  I   UNL     1      -4.343  17.333  69.750  0.00  0.00    -0.041 I 
ATOM      4  C   UNL     1      -6.247  15.628  68.050  0.00  0.00    +0.067 A 
ATOM      5  C   UNL     1      -7.557  15.346  67.791  0.00  0.00    +0.040 A 
ATOM      6  I   UNL     1      -8.083  13.333  67.455  0.00  0.00    -0.042 I 
ATOM      7  C   UNL     1      -8.563  16.282  68.010  0.00  0.00    +0.067 A 
ATOM      8  C   UNL     1      -8.149  17.605  67.877  0.00  0.00    +0.049 A 
ATOM      9  I   UNL     1      -9.548  19.140  67.643  0.00  0.00    -0.041 I 
ENDROOT
BRANCH   1  12
ATOM     10  O   UNL     1      -4.765  18.920  66.526  0.00  0.00    -0.272 OA
ATOM     11  C   UNL     1      -5.649  19.309  66.648  0.00  0.00    +0.263 C 
ATOM     12  N   UNL     1      -6.298  19.237  67.928  0.00  0.00    -0.253 N 
BRANCH  11  13
ATOM     13  C   UNL     1      -6.391  19.840  65.462  0.00  0.00    +0.267 C 
ATOM     14  O   UNL     1      -6.527  18.795  64.533  0.00  0.00    -0.210 OA
ENDBRANCH  11  13
BRANCH  12  15
ATOM     15  C   UNL     1      -5.862  20.219  68.886  0.00  0.00    +0.134 C 
BRANCH  15  16
ATOM     16  C   UNL     1      -6.677  20.192  70.169  0.00  0.00    +0.204 C 
ATOM     17  O   UNL     1      -5.975  20.620  71.273  0.00  0.00    -0.218 OA
ENDBRANCH  15  16
ENDBRANCH  12  15
ENDBRANCH   1  12
BRANCH   4  18
ATOM     18  C   UNL     1      -5.192  14.652  68.213  0.00  0.00    +0.266 C 
ATOM     19  N   UNL     1      -5.030  13.838  69.380  0.00  0.00    -0.199 NA
ATOM     20  O   UNL     1      -4.216  14.612  67.404  0.00  0.00    -0.268 OA
BRANCH  19  21
ATOM     21  C   UNL     1      -3.709  13.743  69.908  0.00  0.00    +0.151 C 
BRANCH  21  22
ATOM     22  C   UNL     1      -3.849  13.210  71.493  0.00  0.00    +0.206 C 
ATOM     23  O   UNL     1      -3.432  14.568  72.110  0.00  0.00    -0.218 OA
BRANCH  22  24
ATOM     24  C   UNL     1      -5.470  13.658  71.541  0.00  0.00    +0.217 C 
ATOM     25  O   UNL     1      -5.730  13.762  72.901  0.00  0.00    -0.218 OA
ENDBRANCH  22  24
ENDBRANCH  21  22
ENDBRANCH  19  21
ENDBRANCH   4  18
BRANCH   7  26
ATOM     26  C   UNL     1      -9.965  15.929  68.114  0.00  0.00    +0.266 C 
ATOM     27  N   UNL     1     -10.804  15.651  66.991  0.00  0.00    -0.199 NA
ATOM     28  O   UNL     1     -10.368  15.591  69.267  0.00  0.00    -0.268 OA
BRANCH  27  29
ATOM     29  C   UNL     1     -11.820  14.663  67.151  0.00  0.00    +0.151 C 
BRANCH  29  30
ATOM     30  C   UNL     1     -11.748  13.724  65.759  0.00  0.00    +0.206 C 
ATOM     31  O   UNL     1     -13.261  13.902  65.481  0.00  0.00    -0.218 OA
BRANCH  30  32
ATOM     32  C   UNL     1     -11.367  15.057  64.808  0.00  0.00    +0.217 C 
ATOM     33  O   UNL     1     -12.525  15.064  64.009  0.00  0.00    -0.218 OA
ENDBRANCH  30  32
ENDBRANCH  29  30
ENDBRANCH  27  29
ENDBRANCH   7  26
TORSDOF 12
ENDMDL
MODEL 7
REMARK VINA RESULT:      -5.2      3.935      7.801
REMARK  Name = 
REMARK  12 active torsions:
REMARK  status: ('A' for Active; 'I' for Inactive)
REMARK    1  A    between atoms: C_2  and  C_3
REMARK    2  A    between atoms: N_5  and  C_6
REMARK    3  A    between atoms: N_5  and  C_9
REMARK    4  A    between atoms: C_6  and  C_7
REMARK    5  A    between atoms: C_12  and  C_13
REMARK    6  A    between atoms: N_15  and  C_16
REMARK    7  A    between atoms: C_16  and  C_17
REMARK    8  A    between atoms: C_17  and  C_19
REMARK    9  A    between atoms: C_23  and  C_24
REMARK   10  A    between atoms: N_26  and  C_27
REMARK   11  A    between atoms: C_27  and  C_28
REMARK   12  A    between atoms: C_28  and  C_30
REMARK                            x       y       z     vdW  Elec       q    Type
REMARK                         _______ _______ _______ _____ _____    ______ ____
ROOT
ATOM      1  C   UNL     1      -9.457  14.511  67.146  0.00  0.00    +0.065 A 
ATOM      2  C   UNL     1      -9.194  13.157  67.298  0.00  0.00    +0.049 A 
ATOM      3  I   UNL     1     -10.199  11.864  65.953  0.00  0.00    -0.041 I 
ATOM      4  C   UNL     1      -8.167  12.681  68.105  0.00  0.00    +0.067 A 
ATOM      5  C   UNL     1      -7.201  13.587  68.437  0.00  0.00    +0.040 A 
ATOM      6  I   UNL     1      -5.468  12.870  69.398  0.00  0.00    -0.042 I 
ATOM      7  C   UNL     1      -7.206  14.881  67.926  0.00  0.00    +0.067 A 
ATOM      8  C   UNL     1      -8.476  15.371  67.628  0.00  0.00    +0.049 A 
ATOM      9  I   UNL     1      -8.789  17.419  67.354  0.00  0.00    -0.041 I 
ENDROOT
BRANCH   1  12
ATOM     10  O   UNL     1     -11.891  13.850  68.550  0.00  0.00    -0.272 OA
ATOM     11  C   UNL     1     -11.594  14.734  68.269  0.00  0.00    +0.263 C 
ATOM     12  N   UNL     1     -10.829  14.887  67.063  0.00  0.00    -0.253 N 
BRANCH  11  13
ATOM     13  C   UNL     1     -11.802  15.904  69.177  0.00  0.00    +0.267 C 
ATOM     14  O   UNL     1     -12.537  15.464  70.290  0.00  0.00    -0.210 OA
ENDBRANCH  11  13
BRANCH  12  15
ATOM     15  C   UNL     1     -11.603  14.890  65.848  0.00  0.00    +0.134 C 
BRANCH  15  16
ATOM     16  C   UNL     1     -10.863  15.519  64.680  0.00  0.00    +0.204 C 
ATOM     17  O   UNL     1     -11.358  16.751  64.318  0.00  0.00    -0.218 OA
ENDBRANCH  15  16
ENDBRANCH  12  15
ENDBRANCH   1  12
BRANCH   4  18
ATOM     18  C   UNL     1      -8.067  11.247  68.266  0.00  0.00    +0.266 C 
ATOM     19  N   UNL     1      -8.689  10.517  69.330  0.00  0.00    -0.199 NA
ATOM     20  O   UNL     1      -7.238  10.575  67.581  0.00  0.00    -0.268 OA
BRANCH  19  21
ATOM     21  C   UNL     1      -7.877   9.552  69.995  0.00  0.00    +0.151 C 
BRANCH  21  22
ATOM     22  C   UNL     1      -8.914   8.414  70.665  0.00  0.00    +0.206 C 
ATOM     23  O   UNL     1      -8.627   8.840  72.126  0.00  0.00    -0.218 OA
BRANCH  22  24
ATOM     24  C   UNL     1     -10.207   9.488  70.582  0.00  0.00    +0.217 C 
ATOM     25  O   UNL     1     -10.915   9.223  71.746  0.00  0.00    -0.218 OA
ENDBRANCH  22  24
ENDBRANCH  21  22
ENDBRANCH  19  21
ENDBRANCH   4  18
BRANCH   7  26
ATOM     26  C   UNL     1      -6.040  15.742  67.936  0.00  0.00    +0.266 C 
ATOM     27  N   UNL     1      -5.646  16.539  69.056  0.00  0.00    -0.199 NA
ATOM     28  O   UNL     1      -5.202  15.553  67.004  0.00  0.00    -0.268 OA
BRANCH  27  29
ATOM     29  C   UNL     1      -4.249  16.723  69.278  0.00  0.00    +0.151 C 
BRANCH  29  30
ATOM     30  C   UNL     1      -4.101  18.280  69.894  0.00  0.00    +0.206 C 
ATOM     31  O   UNL     1      -5.104  18.854  68.865  0.00  0.00    -0.218 OA
BRANCH  30  32
ATOM     32  C   UNL     1      -5.327  18.016  71.015  0.00  0.00    +0.217 C 
ATOM     33  O   UNL     1      -4.934  18.979  71.964  0.00  0.00    -0.218 OA
ENDBRANCH  30  32
ENDBRANCH  29  30
ENDBRANCH  27  29
ENDBRANCH   7  26
TORSDOF 12
ENDMDL
MODEL 8
REMARK VINA RESULT:      -5.1      6.311      9.081
REMARK  Name = 
REMARK  12 active torsions:
REMARK  status: ('A' for Active; 'I' for Inactive)
REMARK    1  A    between atoms: C_2  and  C_3
REMARK    2  A    between atoms: N_5  and  C_6
REMARK    3  A    between atoms: N_5  and  C_9
REMARK    4  A    between atoms: C_6  and  C_7
REMARK    5  A    between atoms: C_12  and  C_13
REMARK    6  A    between atoms: N_15  and  C_16
REMARK    7  A    between atoms: C_16  and  C_17
REMARK    8  A    between atoms: C_17  and  C_19
REMARK    9  A    between atoms: C_23  and  C_24
REMARK   10  A    between atoms: N_26  and  C_27
REMARK   11  A    between atoms: C_27  and  C_28
REMARK   12  A    between atoms: C_28  and  C_30
REMARK                            x       y       z     vdW  Elec       q    Type
REMARK                         _______ _______ _______ _____ _____    ______ ____
ROOT
ATOM      1  C   UNL     1      -9.860   8.455  70.808  0.00  0.00    +0.065 A 
ATOM      2  C   UNL     1     -10.668   9.465  70.306  0.00  0.00    +0.049 A 
ATOM      3  I   UNL     1     -12.477   9.807  71.355  0.00  0.00    -0.041 I 
ATOM      4  C   UNL     1     -10.231  10.358  69.335  0.00  0.00    +0.067 A 
ATOM      5  C   UNL     1      -8.880  10.446  69.170  0.00  0.00    +0.040 A 
ATOM      6  I   UNL     1      -8.137  11.986  67.938  0.00  0.00    -0.042 I 
ATOM      7  C   UNL     1      -7.997   9.746  69.986  0.00  0.00    +0.067 A 
ATOM      8  C   UNL     1      -8.510   8.551  70.486  0.00  0.00    +0.049 A 
ATOM      9  I   UNL     1      -7.237   7.098  71.283  0.00  0.00    -0.041 I 
ENDROOT
BRANCH   1  12
ATOM     10  O   UNL     1     -11.655   6.677  69.413  0.00  0.00    -0.272 OA
ATOM     11  C   UNL     1     -10.868   6.432  69.932  0.00  0.00    +0.263 C 
ATOM     12  N   UNL     1     -10.493   7.208  71.081  0.00  0.00    -0.253 N 
BRANCH  11  13
ATOM     13  C   UNL     1      -9.968   5.345  69.435  0.00  0.00    +0.267 C 
ATOM     14  O   UNL     1     -10.110   4.240  70.290  0.00  0.00    -0.210 OA
ENDBRANCH  11  13
BRANCH  12  15
ATOM     15  C   UNL     1     -11.232   6.912  72.281  0.00  0.00    +0.134 C 
BRANCH  15  16
ATOM     16  C   UNL     1     -10.459   6.026  73.244  0.00  0.00    +0.204 C 
ATOM     17  O   UNL     1     -10.179   6.637  74.446  0.00  0.00    -0.218 OA
ENDBRANCH  15  16
ENDBRANCH  12  15
ENDBRANCH   1  12
BRANCH   4  18
ATOM     18  C   UNL     1     -11.206  11.292  68.815  0.00  0.00    +0.266 C 
ATOM     19  N   UNL     1     -11.772  11.209  67.501  0.00  0.00    -0.199 NA
ATOM     20  O   UNL     1     -11.459  12.372  69.429  0.00  0.00    -0.268 OA
BRANCH  19  21
ATOM     21  C   UNL     1     -11.824  12.422  66.755  0.00  0.00    +0.151 C 
BRANCH  21  22
ATOM     22  C   UNL     1     -11.633  12.015  65.138  0.00  0.00    +0.206 C 
ATOM     23  O   UNL     1     -13.046  12.501  64.729  0.00  0.00    -0.218 OA
BRANCH  22  24
ATOM     24  C   UNL     1     -10.988  13.531  64.794  0.00  0.00    +0.217 C 
ATOM     25  O   UNL     1     -10.743  14.064  66.052  0.00  0.00    -0.218 OA
ENDBRANCH  22  24
ENDBRANCH  21  22
ENDBRANCH  19  21
ENDBRANCH   4  18
BRANCH   7  26
ATOM     26  C   UNL     1      -6.592  10.082  70.106  0.00  0.00    +0.266 C 
ATOM     27  N   UNL     1      -6.024  10.751  71.234  0.00  0.00    -0.199 NA
ATOM     28  O   UNL     1      -5.812   9.503  69.292  0.00  0.00    -0.268 OA
BRANCH  27  29
ATOM     29  C   UNL     1      -4.698  10.394  71.618  0.00  0.00    +0.151 C 
BRANCH  29  30
ATOM     30  C   UNL     1      -4.057  11.773  72.334  0.00  0.00    +0.206 C 
ATOM     31  O   UNL     1      -5.392  12.545  72.195  0.00  0.00    -0.218 OA
BRANCH  30  32
ATOM     32  C   UNL     1      -4.471  11.238  73.874  0.00  0.00    +0.217 C 
ATOM     33  O   UNL     1      -5.141  12.397  74.309  0.00  0.00    -0.218 OA
ENDBRANCH  30  32
ENDBRANCH  29  30
ENDBRANCH  27  29
ENDBRANCH   7  26
TORSDOF 12
ENDMDL
MODEL 9
REMARK VINA RESULT:      -5.1      3.866      6.607
REMARK  Name = 
REMARK  12 active torsions:
REMARK  status: ('A' for Active; 'I' for Inactive)
REMARK    1  A    between atoms: C_2  and  C_3
REMARK    2  A    between atoms: N_5  and  C_6
REMARK    3  A    between atoms: N_5  and  C_9
REMARK    4  A    between atoms: C_6  and  C_7
REMARK    5  A    between atoms: C_12  and  C_13
REMARK    6  A    between atoms: N_15  and  C_16
REMARK    7  A    between atoms: C_16  and  C_17
REMARK    8  A    between atoms: C_17  and  C_19
REMARK    9  A    between atoms: C_23  and  C_24
REMARK   10  A    between atoms: N_26  and  C_27
REMARK   11  A    between atoms: C_27  and  C_28
REMARK   12  A    between atoms: C_28  and  C_30
REMARK                            x       y       z     vdW  Elec       q    Type
REMARK                         _______ _______ _______ _____ _____    ______ ____
ROOT
ATOM      1  C   UNL     1      -9.334  14.536  67.657  0.00  0.00    +0.065 A 
ATOM      2  C   UNL     1      -7.999  14.811  67.915  0.00  0.00    +0.049 A 
ATOM      3  I   UNL     1      -7.626  16.474  69.174  0.00  0.00    -0.041 I 
ATOM      4  C   UNL     1      -6.977  13.932  67.580  0.00  0.00    +0.067 A 
ATOM      5  C   UNL     1      -7.353  12.643  67.339  0.00  0.00    +0.040 A 
ATOM      6  I   UNL     1      -5.835  11.197  67.123  0.00  0.00    -0.042 I 
ATOM      7  C   UNL     1      -8.670  12.223  67.503  0.00  0.00    +0.067 A 
ATOM      8  C   UNL     1      -9.617  13.223  67.292  0.00  0.00    +0.049 A 
ATOM      9  I   UNL     1     -11.623  12.737  66.968  0.00  0.00    -0.041 I 
ENDROOT
BRANCH   1  12
ATOM     10  O   UNL     1      -9.139  16.655  65.707  0.00  0.00    -0.272 OA
ATOM     11  C   UNL     1      -9.920  16.108  65.907  0.00  0.00    +0.263 C 
ATOM     12  N   UNL     1     -10.143  15.634  67.244  0.00  0.00    -0.253 N 
BRANCH  11  13
ATOM     13  C   UNL     1     -10.794  15.636  64.789  0.00  0.00    +0.267 C 
ATOM     14  O   UNL     1     -11.383  16.763  64.193  0.00  0.00    -0.210 OA
ENDBRANCH  11  13
BRANCH  12  15
ATOM     15  C   UNL     1     -10.734  16.595  68.139  0.00  0.00    +0.134 C 
BRANCH  15  16
ATOM     16  C   UNL     1     -11.682  15.961  69.143  0.00  0.00    +0.204 C 
ATOM     17  O   UNL     1     -11.129  15.801  70.393  0.00  0.00    -0.218 OA
ENDBRANCH  15  16
ENDBRANCH  12  15
ENDBRANCH   1  12
BRANCH   4  18
ATOM     18  C   UNL     1      -5.621  14.385  67.800  0.00  0.00    +0.266 C 
ATOM     19  N   UNL     1      -4.839  14.041  68.949  0.00  0.00    -0.199 NA
ATOM     20  O   UNL     1      -5.117  15.297  67.075  0.00  0.00    -0.268 OA
BRANCH  19  21
ATOM     21  C   UNL     1      -4.139  15.109  69.584  0.00  0.00    +0.151 C 
BRANCH  21  22
ATOM     22  C   UNL     1      -3.996  14.708  71.207  0.00  0.00    +0.206 C 
ATOM     23  O   UNL     1      -4.769  15.955  71.703  0.00  0.00    -0.218 OA
BRANCH  22  24
ATOM     24  C   UNL     1      -5.422  13.817  71.152  0.00  0.00    +0.217 C 
ATOM     25  O   UNL     1      -5.553  13.347  72.452  0.00  0.00    -0.218 OA
ENDBRANCH  22  24
ENDBRANCH  21  22
ENDBRANCH  19  21
ENDBRANCH   4  18
BRANCH   7  26
ATOM     26  C   UNL     1      -9.048  10.830  67.629  0.00  0.00    +0.266 C 
ATOM     27  N   UNL     1      -9.486  10.228  68.849  0.00  0.00    -0.199 NA
ATOM     28  O   UNL     1      -9.254  10.211  66.542  0.00  0.00    -0.268 OA
BRANCH  27  29
ATOM     29  C   UNL     1     -10.477   9.205  68.764  0.00  0.00    +0.151 C 
BRANCH  29  30
ATOM     30  C   UNL     1     -10.897   8.863  70.355  0.00  0.00    +0.206 C 
ATOM     31  O   UNL     1      -9.515   9.315  70.887  0.00  0.00    -0.218 OA
BRANCH  30  32
ATOM     32  C   UNL     1     -11.540  10.401  70.578  0.00  0.00    +0.217 C 
ATOM     33  O   UNL     1     -12.555  10.058  71.491  0.00  0.00    -0.218 OA
ENDBRANCH  30  32
ENDBRANCH  29  30
ENDBRANCH  27  29
ENDBRANCH   7  26
TORSDOF 12
ENDMDL
