MODEL 1
REMARK VINA RESULT:      -6.9      0.000      0.000
REMARK  Name = 
REMARK  5 active torsions:
REMARK  status: ('A' for Active; 'I' for Inactive)
REMARK    1  A    between atoms: C_8  and  O_9
REMARK    2  A    between atoms: O_9  and  C_10
REMARK    3  A    between atoms: C_10  and  C_12
REMARK    4  A    between atoms: C_12  and  C_14
REMARK    5  A    between atoms: C_12  and  C_20
REMARK                            x       y       z     vdW  Elec       q    Type
REMARK                         _______ _______ _______ _____ _____    ______ ____
ROOT
ATOM      1  C   UNL     1     -11.016  13.922  67.126  0.00  0.00    +0.252 C 
ATOM      2  O   UNL     1     -12.055  14.829  67.398  0.00  0.00    -0.205 OA
ENDROOT
BRANCH   1   3
ATOM      3  C   UNL     1     -11.088  12.881  68.143  0.00  0.00    +0.019 A 
ATOM      4  C   UNL     1     -11.650  13.246  69.363  0.00  0.00    -0.001 A 
ATOM      5  C   UNL     1     -12.103  12.335  70.275  0.00  0.00    -0.000 A 
ATOM      6  C   UNL     1     -12.044  10.988  70.003  0.00  0.00    -0.000 A 
ATOM      7  C   UNL     1     -11.407  10.627  68.832  0.00  0.00    -0.000 A 
ATOM      8  C   UNL     1     -10.806  11.556  67.990  0.00  0.00    -0.001 A 
ENDBRANCH   1   3
BRANCH   1   9
ATOM      9  C   UNL     1     -11.264  13.299  65.788  0.00  0.00    +0.019 A 
ATOM     10  C   UNL     1     -10.226  13.034  64.902  0.00  0.00    -0.001 A 
ATOM     11  C   UNL     1     -10.426  12.281  63.778  0.00  0.00    -0.000 A 
ATOM     12  C   UNL     1     -11.699  11.873  63.475  0.00  0.00    -0.000 A 
ATOM     13  C   UNL     1     -12.746  12.290  64.262  0.00  0.00    -0.000 A 
ATOM     14  C   UNL     1     -12.531  13.244  65.229  0.00  0.00    -0.001 A 
ENDBRANCH   1   9
BRANCH   1  15
ATOM     15  C   UNL     1      -9.784  14.684  67.034  0.00  0.00    +0.353 C 
ATOM     16  O   UNL     1      -8.832  14.275  67.768  0.00  0.00    -0.247 OA
BRANCH  15  17
ATOM     17  O   UNL     1      -9.558  15.907  66.440  0.00  0.00    -0.444 OA
BRANCH  17  21
ATOM     18  C   UNL     1      -7.116  19.793  66.496  0.00  0.00    +0.171 C 
ATOM     19  N   UNL     1      -8.191  19.094  66.911  0.00  0.00    +0.304 N 
ATOM     20  C   UNL     1      -8.141  17.734  66.374  0.00  0.00    +0.153 C 
ATOM     21  C   UNL     1      -8.933  16.833  67.514  0.00  0.00    +0.224 C 
ATOM     22  C   UNL     1     -10.261  17.815  67.546  0.00  0.00    +0.058 C 
ATOM     23  C   UNL     1     -10.365  18.501  66.236  0.00  0.00    +0.065 C 
ATOM     24  C   UNL     1      -9.811  18.779  68.640  0.00  0.00    +0.065 C 
ATOM     25  C   UNL     1      -9.388  19.675  66.300  0.00  0.00    +0.109 C 
ATOM     26  C   UNL     1      -8.339  19.057  68.364  0.00  0.00    +0.109 C 
ENDBRANCH  17  21
ENDBRANCH  15  17
ENDBRANCH   1  15
TORSDOF 5
ENDMDL
MODEL 2
REMARK VINA RESULT:      -6.9      1.367      3.761
REMARK  Name = 
REMARK  5 active torsions:
REMARK  status: ('A' for Active; 'I' for Inactive)
REMARK    1  A    between atoms: C_8  and  O_9
REMARK    2  A    between atoms: O_9  and  C_10
REMARK    3  A    between atoms: C_10  and  C_12
REMARK    4  A    between atoms: C_12  and  C_14
REMARK    5  A    between atoms: C_12  and  C_20
REMARK                            x       y       z     vdW  Elec       q    Type
REMARK                         _______ _______ _______ _____ _____    ______ ____
ROOT
ATOM      1  C   UNL     1     -10.177  13.906  68.116  0.00  0.00    +0.252 C 
ATOM      2  O   UNL     1      -9.501  12.717  68.439  0.00  0.00    -0.205 OA
ENDROOT
BRANCH   1   3
ATOM      3  C   UNL     1     -10.861  13.672  66.851  0.00  0.00    +0.019 A 
ATOM      4  C   UNL     1     -10.569  12.476  66.202  0.00  0.00    -0.001 A 
ATOM      5  C   UNL     1     -11.358  11.952  65.217  0.00  0.00    -0.000 A 
ATOM      6  C   UNL     1     -12.516  12.592  64.838  0.00  0.00    -0.000 A 
ATOM      7  C   UNL     1     -12.756  13.821  65.421  0.00  0.00    -0.000 A 
ATOM      8  C   UNL     1     -11.862  14.418  66.302  0.00  0.00    -0.001 A 
ENDBRANCH   1   3
BRANCH   1   9
ATOM      9  C   UNL     1     -11.205  14.173  69.170  0.00  0.00    +0.019 A 
ATOM     10  C   UNL     1     -11.846  13.141  69.844  0.00  0.00    -0.001 A 
ATOM     11  C   UNL     1     -12.625  13.383  70.942  0.00  0.00    -0.000 A 
ATOM     12  C   UNL     1     -12.855  14.683  71.313  0.00  0.00    -0.000 A 
ATOM     13  C   UNL     1     -12.362  15.704  70.537  0.00  0.00    -0.000 A 
ATOM     14  C   UNL     1     -11.801  15.416  69.314  0.00  0.00    -0.001 A 
ENDBRANCH   1   9
BRANCH   1  15
ATOM     15  C   UNL     1      -9.208  14.986  68.164  0.00  0.00    +0.353 C 
ATOM     16  O   UNL     1      -8.595  15.122  69.267  0.00  0.00    -0.247 OA
BRANCH  15  17
ATOM     17  O   UNL     1      -9.007  16.017  67.271  0.00  0.00    -0.444 OA
BRANCH  17  21
ATOM     18  C   UNL     1      -7.108  20.098  66.372  0.00  0.00    +0.171 C 
ATOM     19  N   UNL     1      -8.088  19.379  66.955  0.00  0.00    +0.304 N 
ATOM     20  C   UNL     1      -7.846  17.949  66.755  0.00  0.00    +0.153 C 
ATOM     21  C   UNL     1      -8.533  17.247  68.087  0.00  0.00    +0.224 C 
ATOM     22  C   UNL     1      -9.981  18.021  67.902  0.00  0.00    +0.058 C 
ATOM     23  C   UNL     1     -10.149  18.356  66.468  0.00  0.00    +0.065 C 
ATOM     24  C   UNL     1      -9.685  19.268  68.730  0.00  0.00    +0.065 C 
ATOM     25  C   UNL     1      -9.340  19.633  66.239  0.00  0.00    +0.109 C 
ATOM     26  C   UNL     1      -8.258  19.668  68.377  0.00  0.00    +0.109 C 
ENDBRANCH  17  21
ENDBRANCH  15  17
ENDBRANCH   1  15
TORSDOF 5
ENDMDL
MODEL 3
REMARK VINA RESULT:      -6.7      2.421      6.734
REMARK  Name = 
REMARK  5 active torsions:
REMARK  status: ('A' for Active; 'I' for Inactive)
REMARK    1  A    between atoms: C_8  and  O_9
REMARK    2  A    between atoms: O_9  and  C_10
REMARK    3  A    between atoms: C_10  and  C_12
REMARK    4  A    between atoms: C_12  and  C_14
REMARK    5  A    between atoms: C_12  and  C_20
REMARK                            x       y       z     vdW  Elec       q    Type
REMARK                         _______ _______ _______ _____ _____    ______ ____
ROOT
ATOM      1  C   UNL     1      -9.816  17.657  66.542  0.00  0.00    +0.252 C 
ATOM      2  O   UNL     1     -10.795  18.666  66.528  0.00  0.00    -0.205 OA
ENDROOT
BRANCH   1   3
ATOM      3  C   UNL     1      -8.522  18.324  66.494  0.00  0.00    +0.019 A 
ATOM      4  C   UNL     1      -8.433  19.549  67.152  0.00  0.00    -0.001 A 
ATOM      5  C   UNL     1      -7.242  20.122  67.497  0.00  0.00    -0.000 A 
ATOM      6  C   UNL     1      -6.055  19.482  67.223  0.00  0.00    -0.000 A 
ATOM      7  C   UNL     1      -6.144  18.312  66.494  0.00  0.00    -0.000 A 
ATOM      8  C   UNL     1      -7.351  17.823  66.009  0.00  0.00    -0.001 A 
ENDBRANCH   1   3
BRANCH   1   9
ATOM      9  C   UNL     1      -9.919  16.909  67.834  0.00  0.00    +0.019 A 
ATOM     10  C   UNL     1     -11.080  16.925  68.596  0.00  0.00    -0.001 A 
ATOM     11  C   UNL     1     -11.244  16.081  69.661  0.00  0.00    -0.000 A 
ATOM     12  C   UNL     1     -10.194  15.284  70.037  0.00  0.00    -0.000 A 
ATOM     13  C   UNL     1      -8.989  15.403  69.388  0.00  0.00    -0.000 A 
ATOM     14  C   UNL     1      -8.798  16.433  68.495  0.00  0.00    -0.001 A 
ENDBRANCH   1   9
BRANCH   1  15
ATOM     15  C   UNL     1     -10.131  16.729  65.471  0.00  0.00    +0.353 C 
ATOM     16  O   UNL     1     -10.986  17.139  64.626  0.00  0.00    -0.247 OA
BRANCH  15  17
ATOM     17  O   UNL     1      -9.808  15.394  65.351  0.00  0.00    -0.444 OA
BRANCH  17  21
ATOM     18  C   UNL     1     -10.847  11.149  63.949  0.00  0.00    +0.171 C 
ATOM     19  N   UNL     1     -11.142  12.224  64.708  0.00  0.00    +0.304 N 
ATOM     20  C   UNL     1     -10.174  13.293  64.458  0.00  0.00    +0.153 C 
ATOM     21  C   UNL     1     -11.038  14.676  64.740  0.00  0.00    +0.224 C 
ATOM     22  C   UNL     1     -11.578  14.183  66.223  0.00  0.00    +0.058 C 
ATOM     23  C   UNL     1     -10.603  13.212  66.773  0.00  0.00    +0.065 C 
ATOM     24  C   UNL     1     -12.862  13.487  65.782  0.00  0.00    +0.065 C 
ATOM     25  C   UNL     1     -10.929  11.872  66.113  0.00  0.00    +0.109 C 
ATOM     26  C   UNL     1     -12.502  12.719  64.517  0.00  0.00    +0.109 C 
ENDBRANCH  17  21
ENDBRANCH  15  17
ENDBRANCH   1  15
TORSDOF 5
ENDMDL
MODEL 4
REMARK VINA RESULT:      -6.7      1.626      4.136
REMARK  Name = 
REMARK  5 active torsions:
REMARK  status: ('A' for Active; 'I' for Inactive)
REMARK    1  A    between atoms: C_8  and  O_9
REMARK    2  A    between atoms: O_9  and  C_10
REMARK    3  A    between atoms: C_10  and  C_12
REMARK    4  A    between atoms: C_12  and  C_14
REMARK    5  A    between atoms: C_12  and  C_20
REMARK                            x       y       z     vdW  Elec       q    Type
REMARK                         _______ _______ _______ _____ _____    ______ ____
ROOT
ATOM      1  C   UNL     1      -9.954  14.472  66.387  0.00  0.00    +0.252 C 
ATOM      2  O   UNL     1      -8.863  13.597  66.530  0.00  0.00    -0.205 OA
ENDROOT
BRANCH   1   3
ATOM      3  C   UNL     1     -10.850  13.872  65.408  0.00  0.00    +0.019 A 
ATOM      4  C   UNL     1     -10.248  13.168  64.368  0.00  0.00    -0.001 A 
ATOM      5  C   UNL     1     -10.924  12.275  63.585  0.00  0.00    -0.000 A 
ATOM      6  C   UNL     1     -12.254  12.010  63.820  0.00  0.00    -0.000 A 
ATOM      7  C   UNL     1     -12.868  12.774  64.793  0.00  0.00    -0.000 A 
ATOM      8  C   UNL     1     -12.209  13.793  65.471  0.00  0.00    -0.001 A 
ENDBRANCH   1   3
BRANCH   1   9
ATOM      9  C   UNL     1     -10.671  14.560  67.697  0.00  0.00    +0.019 A 
ATOM     10  C   UNL     1     -11.008  15.783  68.265  0.00  0.00    -0.001 A 
ATOM     11  C   UNL     1     -11.839  15.858  69.349  0.00  0.00    -0.000 A 
ATOM     12  C   UNL     1     -12.257  14.695  69.942  0.00  0.00    -0.000 A 
ATOM     13  C   UNL     1     -11.775  13.493  69.483  0.00  0.00    -0.000 A 
ATOM     14  C   UNL     1     -10.756  13.479  68.560  0.00  0.00    -0.001 A 
ENDBRANCH   1   9
BRANCH   1  15
ATOM     15  C   UNL     1      -9.421  15.789  66.088  0.00  0.00    +0.353 C 
ATOM     16  O   UNL     1     -10.116  16.492  65.292  0.00  0.00    -0.247 OA
BRANCH  15  17
ATOM     17  O   UNL     1      -8.174  16.308  66.363  0.00  0.00    -0.444 OA
BRANCH  17  21
ATOM     18  C   UNL     1      -6.866  19.576  69.308  0.00  0.00    +0.171 C 
ATOM     19  N   UNL     1      -6.915  19.106  68.046  0.00  0.00    +0.304 N 
ATOM     20  C   UNL     1      -7.675  17.856  68.008  0.00  0.00    +0.153 C 
ATOM     21  C   UNL     1      -8.332  17.845  66.489  0.00  0.00    +0.224 C 
ATOM     22  C   UNL     1      -6.892  18.128  65.729  0.00  0.00    +0.058 C 
ATOM     23  C   UNL     1      -5.801  17.625  66.597  0.00  0.00    +0.065 C 
ATOM     24  C   UNL     1      -6.931  19.654  65.720  0.00  0.00    +0.065 C 
ATOM     25  C   UNL     1      -5.562  18.714  67.643  0.00  0.00    +0.109 C 
ATOM     26  C   UNL     1      -7.465  20.061  67.088  0.00  0.00    +0.109 C 
ENDBRANCH  17  21
ENDBRANCH  15  17
ENDBRANCH   1  15
TORSDOF 5
ENDMDL
MODEL 5
REMARK VINA RESULT:      -6.6      2.491      7.040
REMARK  Name = 
REMARK  5 active torsions:
REMARK  status: ('A' for Active; 'I' for Inactive)
REMARK    1  A    between atoms: C_8  and  O_9
REMARK    2  A    between atoms: O_9  and  C_10
REMARK    3  A    between atoms: C_10  and  C_12
REMARK    4  A    between atoms: C_12  and  C_14
REMARK    5  A    between atoms: C_12  and  C_20
REMARK                            x       y       z     vdW  Elec       q    Type
REMARK                         _______ _______ _______ _____ _____    ______ ____
ROOT
ATOM      1  C   UNL     1      -6.792  18.140  67.388  0.00  0.00    +0.252 C 
ATOM      2  O   UNL     1      -6.115  18.423  66.188  0.00  0.00    -0.205 OA
ENDROOT
BRANCH   1   3
ATOM      3  C   UNL     1      -5.996  18.713  68.465  0.00  0.00    +0.019 A 
ATOM      4  C   UNL     1      -5.640  20.052  68.328  0.00  0.00    -0.001 A 
ATOM      5  C   UNL     1      -5.212  20.819  69.374  0.00  0.00    -0.000 A 
ATOM      6  C   UNL     1      -5.138  20.290  70.642  0.00  0.00    -0.000 A 
ATOM      7  C   UNL     1      -5.407  18.940  70.758  0.00  0.00    -0.000 A 
ATOM      8  C   UNL     1      -5.684  18.135  69.660  0.00  0.00    -0.001 A 
ENDBRANCH   1   3
BRANCH   1   9
ATOM      9  C   UNL     1      -8.120  18.828  67.360  0.00  0.00    +0.019 A 
ATOM     10  C   UNL     1      -8.608  19.428  66.205  0.00  0.00    -0.001 A 
ATOM     11  C   UNL     1      -9.900  19.870  66.125  0.00  0.00    -0.000 A 
ATOM     12  C   UNL     1     -10.688  19.811  67.245  0.00  0.00    -0.000 A 
ATOM     13  C   UNL     1     -10.144  19.380  68.431  0.00  0.00    -0.000 A 
ATOM     14  C   UNL     1      -8.785  19.185  68.522  0.00  0.00    -0.001 A 
ENDBRANCH   1   9
BRANCH   1  15
ATOM     15  C   UNL     1      -7.038  16.710  67.424  0.00  0.00    +0.353 C 
ATOM     16  O   UNL     1      -6.140  15.987  66.893  0.00  0.00    -0.247 OA
BRANCH  15  17
ATOM     17  O   UNL     1      -8.193  16.033  67.752  0.00  0.00    -0.444 OA
BRANCH  17  21
ATOM     18  C   UNL     1     -10.757  12.347  66.799  0.00  0.00    +0.171 C 
ATOM     19  N   UNL     1     -10.498  13.657  66.616  0.00  0.00    +0.304 N 
ATOM     20  C   UNL     1      -9.303  14.040  67.368  0.00  0.00    +0.153 C 
ATOM     21  C   UNL     1      -8.663  15.281  66.480  0.00  0.00    +0.224 C 
ATOM     22  C   UNL     1     -10.080  16.129  66.413  0.00  0.00    +0.058 C 
ATOM     23  C   UNL     1     -10.899  15.759  67.592  0.00  0.00    +0.065 C 
ATOM     24  C   UNL     1     -10.651  15.525  65.133  0.00  0.00    +0.065 C 
ATOM     25  C   UNL     1     -11.573  14.435  67.235  0.00  0.00    +0.109 C 
ATOM     26  C   UNL     1     -10.353  14.033  65.212  0.00  0.00    +0.109 C 
ENDBRANCH  17  21
ENDBRANCH  15  17
ENDBRANCH   1  15
TORSDOF 5
ENDMDL
MODEL 6
REMARK VINA RESULT:      -6.5      1.956      3.145
REMARK  Name = 
REMARK  5 active torsions:
REMARK  status: ('A' for Active; 'I' for Inactive)
REMARK    1  A    between atoms: C_8  and  O_9
REMARK    2  A    between atoms: O_9  and  C_10
REMARK    3  A    between atoms: C_10  and  C_12
REMARK    4  A    between atoms: C_12  and  C_14
REMARK    5  A    between atoms: C_12  and  C_20
REMARK                            x       y       z     vdW  Elec       q    Type
REMARK                         _______ _______ _______ _____ _____    ______ ____
ROOT
ATOM      1  C   UNL     1     -11.487  15.059  69.357  0.00  0.00    +0.252 C 
ATOM      2  O   UNL     1     -12.432  15.997  68.906  0.00  0.00    -0.205 OA
ENDROOT
BRANCH   1   3
ATOM      3  C   UNL     1     -11.885  14.674  70.705  0.00  0.00    +0.019 A 
ATOM      4  C   UNL     1     -11.420  15.479  71.741  0.00  0.00    -0.001 A 
ATOM      5  C   UNL     1     -11.969  15.470  72.993  0.00  0.00    -0.000 A 
ATOM      6  C   UNL     1     -13.047  14.664  73.276  0.00  0.00    -0.000 A 
ATOM      7  C   UNL     1     -13.448  13.804  72.272  0.00  0.00    -0.000 A 
ATOM      8  C   UNL     1     -12.779  13.707  71.058  0.00  0.00    -0.001 A 
ENDBRANCH   1   3
BRANCH   1   9
ATOM      9  C   UNL     1     -11.555  13.851  68.477  0.00  0.00    +0.019 A 
ATOM     10  C   UNL     1     -12.041  13.920  67.178  0.00  0.00    -0.001 A 
ATOM     11  C   UNL     1     -11.910  12.869  66.312  0.00  0.00    -0.000 A 
ATOM     12  C   UNL     1     -11.383  11.693  66.778  0.00  0.00    -0.000 A 
ATOM     13  C   UNL     1     -11.069  11.575  68.111  0.00  0.00    -0.000 A 
ATOM     14  C   UNL     1     -11.447  12.566  68.987  0.00  0.00    -0.001 A 
ENDBRANCH   1   9
BRANCH   1  15
ATOM     15  C   UNL     1     -10.171  15.650  69.191  0.00  0.00    +0.353 C 
ATOM     16  O   UNL     1      -9.203  14.829  69.164  0.00  0.00    -0.247 OA
BRANCH  15  17
ATOM     17  O   UNL     1      -9.792  16.972  69.277  0.00  0.00    -0.444 OA
BRANCH  17  21
ATOM     18  C   UNL     1     -10.631  19.604  65.611  0.00  0.00    +0.171 C 
ATOM     19  N   UNL     1      -9.813  19.254  66.624  0.00  0.00    +0.304 N 
ATOM     20  C   UNL     1     -10.391  18.136  67.370  0.00  0.00    +0.153 C 
ATOM     21  C   UNL     1      -9.068  17.331  67.954  0.00  0.00    +0.224 C 
ATOM     22  C   UNL     1      -8.381  18.682  68.610  0.00  0.00    +0.058 C 
ATOM     23  C   UNL     1      -9.460  19.652  68.915  0.00  0.00    +0.065 C 
ATOM     24  C   UNL     1      -7.558  19.132  67.406  0.00  0.00    +0.065 C 
ATOM     25  C   UNL     1      -9.780  20.351  67.593  0.00  0.00    +0.109 C 
ATOM     26  C   UNL     1      -8.457  18.926  66.193  0.00  0.00    +0.109 C 
ENDBRANCH  17  21
ENDBRANCH  15  17
ENDBRANCH   1  15
TORSDOF 5
ENDMDL
MODEL 7
REMARK VINA RESULT:      -6.5      2.351      4.906
REMARK  Name = 
REMARK  5 active torsions:
REMARK  status: ('A' for Active; 'I' for Inactive)
REMARK    1  A    between atoms: C_8  and  O_9
REMARK    2  A    between atoms: O_9  and  C_10
REMARK    3  A    between atoms: C_10  and  C_12
REMARK    4  A    between atoms: C_12  and  C_14
REMARK    5  A    between atoms: C_12  and  C_20
REMARK                            x       y       z     vdW  Elec       q    Type
REMARK                         _______ _______ _______ _____ _____    ______ ____
ROOT
ATOM      1  C   UNL     1      -8.869  16.260  67.238  0.00  0.00    +0.252 C 
ATOM      2  O   UNL     1      -8.578  15.852  68.551  0.00  0.00    -0.205 OA
ENDROOT
BRANCH   1   3
ATOM      3  C   UNL     1      -9.845  15.316  66.710  0.00  0.00    +0.019 A 
ATOM      4  C   UNL     1     -10.816  14.867  67.601  0.00  0.00    -0.001 A 
ATOM      5  C   UNL     1     -11.979  14.274  67.197  0.00  0.00    -0.000 A 
ATOM      6  C   UNL     1     -12.253  14.118  65.858  0.00  0.00    -0.000 A 
ATOM      7  C   UNL     1     -11.250  14.483  64.981  0.00  0.00    -0.000 A 
ATOM      8  C   UNL     1     -10.009  14.935  65.412  0.00  0.00    -0.001 A 
ENDBRANCH   1   3
BRANCH   1   9
ATOM      9  C   UNL     1      -9.498  17.617  67.287  0.00  0.00    +0.019 A 
ATOM     10  C   UNL     1      -9.565  18.349  68.466  0.00  0.00    -0.001 A 
ATOM     11  C   UNL     1      -9.948  19.662  68.468  0.00  0.00    -0.000 A 
ATOM     12  C   UNL     1     -10.372  20.227  67.293  0.00  0.00    -0.000 A 
ATOM     13  C   UNL     1     -10.471  19.446  66.166  0.00  0.00    -0.000 A 
ATOM     14  C   UNL     1     -10.316  18.083  66.270  0.00  0.00    -0.001 A 
ENDBRANCH   1   9
BRANCH   1  15
ATOM     15  C   UNL     1      -7.608  16.385  66.530  0.00  0.00    +0.353 C 
ATOM     16  O   UNL     1      -6.696  15.579  66.890  0.00  0.00    -0.247 OA
BRANCH  15  17
ATOM     17  O   UNL     1      -7.181  17.384  65.681  0.00  0.00    -0.444 OA
BRANCH  17  21
ATOM     18  C   UNL     1      -3.840  20.112  64.111  0.00  0.00    +0.171 C 
ATOM     19  N   UNL     1      -4.643  19.728  65.123  0.00  0.00    +0.304 N 
ATOM     20  C   UNL     1      -5.474  18.600  64.702  0.00  0.00    +0.153 C 
ATOM     21  C   UNL     1      -5.739  17.764  66.105  0.00  0.00    +0.224 C 
ATOM     22  C   UNL     1      -6.257  19.091  66.943  0.00  0.00    +0.058 C 
ATOM     23  C   UNL     1      -6.810  20.066  65.973  0.00  0.00    +0.065 C 
ATOM     24  C   UNL     1      -4.912  19.558  67.492  0.00  0.00    +0.065 C 
ATOM     25  C   UNL     1      -5.604  20.801  65.386  0.00  0.00    +0.109 C 
ATOM     26  C   UNL     1      -3.920  19.393  66.347  0.00  0.00    +0.109 C 
ENDBRANCH  17  21
ENDBRANCH  15  17
ENDBRANCH   1  15
TORSDOF 5
ENDMDL
MODEL 8
REMARK VINA RESULT:      -6.5      2.941      4.361
REMARK  Name = 
REMARK  5 active torsions:
REMARK  status: ('A' for Active; 'I' for Inactive)
REMARK    1  A    between atoms: C_8  and  O_9
REMARK    2  A    between atoms: O_9  and  C_10
REMARK    3  A    between atoms: C_10  and  C_12
REMARK    4  A    between atoms: C_12  and  C_14
REMARK    5  A    between atoms: C_12  and  C_20
REMARK                            x       y       z     vdW  Elec       q    Type
REMARK                         _______ _______ _______ _____ _____    ______ ____
ROOT
ATOM      1  C   UNL     1     -11.617  15.430  69.553  0.00  0.00    +0.252 C 
ATOM      2  O   UNL     1     -12.352  16.389  68.834  0.00  0.00    -0.205 OA
ENDROOT
BRANCH   1   3
ATOM      3  C   UNL     1     -12.308  15.233  70.820  0.00  0.00    +0.019 A 
ATOM      4  C   UNL     1     -11.527  15.314  71.970  0.00  0.00    -0.001 A 
ATOM      5  C   UNL     1     -12.055  15.500  73.216  0.00  0.00    -0.000 A 
ATOM      6  C   UNL     1     -13.413  15.644  73.383  0.00  0.00    -0.000 A 
ATOM      7  C   UNL     1     -14.190  15.475  72.254  0.00  0.00    -0.000 A 
ATOM      8  C   UNL     1     -13.652  15.126  71.021  0.00  0.00    -0.001 A 
ENDBRANCH   1   3
BRANCH   1   9
ATOM      9  C   UNL     1     -11.640  14.142  68.793  0.00  0.00    +0.019 A 
ATOM     10  C   UNL     1     -11.910  14.102  67.430  0.00  0.00    -0.001 A 
ATOM     11  C   UNL     1     -11.727  12.958  66.702  0.00  0.00    -0.000 A 
ATOM     12  C   UNL     1     -11.372  11.808  67.359  0.00  0.00    -0.000 A 
ATOM     13  C   UNL     1     -11.280  11.815  68.730  0.00  0.00    -0.000 A 
ATOM     14  C   UNL     1     -11.713  12.915  69.433  0.00  0.00    -0.001 A 
ENDBRANCH   1   9
BRANCH   1  15
ATOM     15  C   UNL     1     -10.239  15.885  69.605  0.00  0.00    +0.353 C 
ATOM     16  O   UNL     1     -10.056  17.107  69.314  0.00  0.00    -0.247 OA
BRANCH  15  17
ATOM     17  O   UNL     1      -9.080  15.145  69.709  0.00  0.00    -0.444 OA
BRANCH  17  21
ATOM     18  C   UNL     1      -4.616  14.570  68.814  0.00  0.00    +0.171 C 
ATOM     19  N   UNL     1      -5.860  14.840  68.373  0.00  0.00    +0.304 N 
ATOM     20  C   UNL     1      -6.792  14.881  69.500  0.00  0.00    +0.153 C 
ATOM     21  C   UNL     1      -7.956  15.949  69.006  0.00  0.00    +0.224 C 
ATOM     22  C   UNL     1      -8.215  15.189  67.562  0.00  0.00    +0.058 C 
ATOM     23  C   UNL     1      -7.845  13.762  67.714  0.00  0.00    +0.065 C 
ATOM     24  C   UNL     1      -7.189  15.939  66.718  0.00  0.00    +0.065 C 
ATOM     25  C   UNL     1      -6.324  13.707  67.569  0.00  0.00    +0.109 C 
ATOM     26  C   UNL     1      -5.951  16.074  67.597  0.00  0.00    +0.109 C 
ENDBRANCH  17  21
ENDBRANCH  15  17
ENDBRANCH   1  15
TORSDOF 5
ENDMDL
MODEL 9
REMARK VINA RESULT:      -6.4      2.373      7.012
REMARK  Name = 
REMARK  5 active torsions:
REMARK  status: ('A' for Active; 'I' for Inactive)
REMARK    1  A    between atoms: C_8  and  O_9
REMARK    2  A    between atoms: O_9  and  C_10
REMARK    3  A    between atoms: C_10  and  C_12
REMARK    4  A    between atoms: C_12  and  C_14
REMARK    5  A    between atoms: C_12  and  C_20
REMARK                            x       y       z     vdW  Elec       q    Type
REMARK                         _______ _______ _______ _____ _____    ______ ____
ROOT
ATOM      1  C   UNL     1      -8.696  18.000  67.253  0.00  0.00    +0.252 C 
ATOM      2  O   UNL     1      -9.631  18.351  68.242  0.00  0.00    -0.205 OA
ENDROOT
BRANCH   1   3
ATOM      3  C   UNL     1      -7.911  19.195  66.972  0.00  0.00    +0.019 A 
ATOM      4  C   UNL     1      -7.413  19.881  68.077  0.00  0.00    -0.001 A 
ATOM      5  C   UNL     1      -6.396  20.790  67.992  0.00  0.00    -0.000 A 
ATOM      6  C   UNL     1      -5.792  21.048  66.783  0.00  0.00    -0.000 A 
ATOM      7  C   UNL     1      -6.346  20.432  65.677  0.00  0.00    -0.000 A 
ATOM      8  C   UNL     1      -7.482  19.636  65.756  0.00  0.00    -0.001 A 
ENDBRANCH   1   3
BRANCH   1   9
ATOM      9  C   UNL     1      -7.785  16.950  67.806  0.00  0.00    +0.019 A 
ATOM     10  C   UNL     1      -8.012  16.366  69.046  0.00  0.00    -0.001 A 
ATOM     11  C   UNL     1      -7.305  15.269  69.456  0.00  0.00    -0.000 A 
ATOM     12  C   UNL     1      -6.283  14.810  68.666  0.00  0.00    -0.000 A 
ATOM     13  C   UNL     1      -5.949  15.502  67.526  0.00  0.00    -0.000 A 
ATOM     14  C   UNL     1      -6.519  16.731  67.287  0.00  0.00    -0.001 A 
ENDBRANCH   1   9
BRANCH   1  15
ATOM     15  C   UNL     1      -9.430  17.407  66.149  0.00  0.00    +0.353 C 
ATOM     16  O   UNL     1     -10.402  18.094  65.708  0.00  0.00    -0.247 OA
BRANCH  15  17
ATOM     17  O   UNL     1      -9.370  16.123  65.652  0.00  0.00    -0.444 OA
BRANCH  17  21
ATOM     18  C   UNL     1     -11.472  12.286  64.265  0.00  0.00    +0.171 C 
ATOM     19  N   UNL     1     -11.194  13.164  65.249  0.00  0.00    +0.304 N 
ATOM     20  C   UNL     1     -10.392  14.268  64.722  0.00  0.00    +0.153 C 
ATOM     21  C   UNL     1     -10.809  15.549  65.683  0.00  0.00    +0.224 C 
ATOM     22  C   UNL     1     -10.534  14.738  67.096  0.00  0.00    +0.058 C 
ATOM     23  C   UNL     1      -9.534  13.675  66.835  0.00  0.00    +0.065 C 
ATOM     24  C   UNL     1     -11.927  14.148  67.300  0.00  0.00    +0.065 C 
ATOM     25  C   UNL     1     -10.312  12.512  66.218  0.00  0.00    +0.109 C 
ATOM     26  C   UNL     1     -12.383  13.681  65.923  0.00  0.00    +0.109 C 
ENDBRANCH  17  21
ENDBRANCH  15  17
ENDBRANCH   1  15
TORSDOF 5
ENDMDL
