MODEL 1
REMARK VINA RESULT:      -7.8      0.000      0.000
REMARK  Name = 
REMARK  4 active torsions:
REMARK  status: ('A' for Active; 'I' for Inactive)
REMARK    1  A    between atoms: C_2  and  O_4
REMARK    2  A    between atoms: O_4  and  C_5
REMARK    3  A    between atoms: C_5  and  C_6
REMARK    4  A    between atoms: C_6  and  C_8
REMARK                            x       y       z     vdW  Elec       q    Type
REMARK                         _______ _______ _______ _____ _____    ______ ____
ROOT
ATOM      1  C   UNL     1     -11.454  14.178  66.962  0.00  0.00    +0.178 C 
ATOM      2  C   UNL     1     -10.689  15.369  66.797  0.00  0.00    +0.031 C 
ATOM      3  C   UNL     1      -9.414  15.088  67.783  0.00  0.00    +0.006 C 
ATOM      4  C   UNL     1      -8.513  16.218  66.884  0.00  0.00    +0.004 C 
ATOM      5  C   UNL     1      -8.928  17.439  67.976  0.00  0.00    +0.038 C 
ATOM      6  C   UNL     1     -10.390  17.921  67.163  0.00  0.00    +0.153 C 
ATOM      7  O   UNL     1      -9.881  17.590  65.750  0.00  0.00    -0.223 OA
ATOM      8  C   UNL     1      -8.019  18.577  67.315  0.00  0.00    +0.036 C 
ATOM      9  C   UNL     1      -6.946  18.014  66.491  0.00  0.00    -0.038 C 
ATOM     10  C   UNL     1      -6.252  19.003  65.911  0.00  0.00    +0.034 C 
ATOM     11  C   UNL     1      -6.151  20.334  66.535  0.00  0.00    +0.195 C 
ATOM     12  C   UNL     1      -6.551  20.303  67.951  0.00  0.00    +0.038 C 
ATOM     13  O   UNL     1      -5.554  21.267  65.981  0.00  0.00    -0.287 OA
ATOM     14  C   UNL     1      -6.217  16.760  66.875  0.00  0.00    +0.022 C 
ATOM     15  C   UNL     1      -8.804  19.649  66.696  0.00  0.00    +0.009 C 
ATOM     16  C   UNL     1      -7.284  19.285  68.422  0.00  0.00    -0.020 C 
ATOM     17  C   UNL     1      -7.160  15.897  67.706  0.00  0.00    +0.004 C 
ATOM     18  C   UNL     1      -9.023  13.843  66.803  0.00  0.00    +0.046 C 
ATOM     19  C   UNL     1     -10.225  15.266  65.390  0.00  0.00    +0.003 C 
ATOM     20  C   UNL     1     -11.198  16.498  67.416  0.00  0.00    +0.035 C 
ATOM     21  C   UNL     1     -10.372  12.939  67.218  0.00  0.00    +0.194 C 
ATOM     22  O   UNL     1     -10.280  13.279  68.748  0.00  0.00    -0.465 OA
ATOM     23  C   UNL     1     -11.642  13.389  69.059  0.00  0.00    +0.196 C 
ATOM     24  C   UNL     1     -12.212  13.343  70.444  0.00  0.00    +0.094 C 
ATOM     25  N   UNL     1     -12.265  13.990  68.109  0.00  0.00    -0.235 NA
ENDROOT
BRANCH   1  26
ATOM     26  C   UNL     1     -12.147  13.707  65.719  0.00  0.00    +0.218 C 
ATOM     27  O   UNL     1     -12.823  14.438  65.009  0.00  0.00    -0.290 OA
BRANCH  26  28
ATOM     28  C   UNL     1     -12.042  12.283  65.291  0.00  0.00    +0.274 C 
BRANCH  28  29
ATOM     29  O   UNL     1     -11.375  12.321  64.028  0.00  0.00    -0.440 OA
BRANCH  29  31
ATOM     30  C   UNL     1     -10.050  10.454  64.346  0.00  0.00    +0.121 C 
ATOM     31  C   UNL     1     -10.219  11.557  63.833  0.00  0.00    +0.318 C 
ATOM     32  O   UNL     1      -9.616  11.812  62.750  0.00  0.00    -0.250 OA
ENDBRANCH  29  31
ENDBRANCH  28  29
ENDBRANCH  26  28
ENDBRANCH   1  26
TORSDOF 4
ENDMDL
MODEL 2
REMARK VINA RESULT:      -7.8      1.864      2.538
REMARK  Name = 
REMARK  4 active torsions:
REMARK  status: ('A' for Active; 'I' for Inactive)
REMARK    1  A    between atoms: C_2  and  O_4
REMARK    2  A    between atoms: O_4  and  C_5
REMARK    3  A    between atoms: C_5  and  C_6
REMARK    4  A    between atoms: C_6  and  C_8
REMARK                            x       y       z     vdW  Elec       q    Type
REMARK                         _______ _______ _______ _____ _____    ______ ____
ROOT
ATOM      1  C   UNL     1     -10.224  16.022  67.132  0.00  0.00    +0.178 C 
ATOM      2  C   UNL     1      -9.172  16.975  67.259  0.00  0.00    +0.031 C 
ATOM      3  C   UNL     1      -8.440  16.485  68.637  0.00  0.00    +0.006 C 
ATOM      4  C   UNL     1      -7.025  17.280  68.129  0.00  0.00    +0.004 C 
ATOM      5  C   UNL     1      -7.467  18.657  69.002  0.00  0.00    +0.038 C 
ATOM      6  C   UNL     1      -8.377  19.402  67.719  0.00  0.00    +0.153 C 
ATOM      7  O   UNL     1      -7.509  18.835  66.583  0.00  0.00    -0.223 OA
ATOM      8  C   UNL     1      -6.126  19.480  68.718  0.00  0.00    +0.036 C 
ATOM      9  C   UNL     1      -5.014  18.605  68.335  0.00  0.00    -0.038 C 
ATOM     10  C   UNL     1      -3.933  19.342  68.048  0.00  0.00    +0.034 C 
ATOM     11  C   UNL     1      -3.719  20.660  68.672  0.00  0.00    +0.195 C 
ATOM     12  C   UNL     1      -4.583  20.852  69.848  0.00  0.00    +0.038 C 
ATOM     13  O   UNL     1      -2.748  21.369  68.375  0.00  0.00    -0.287 OA
ATOM     14  C   UNL     1      -4.813  17.252  68.951  0.00  0.00    +0.022 C 
ATOM     15  C   UNL     1      -6.342  20.650  67.862  0.00  0.00    +0.009 C 
ATOM     16  C   UNL     1      -5.669  20.086  70.019  0.00  0.00    -0.020 C 
ATOM     17  C   UNL     1      -6.175  16.718  69.382  0.00  0.00    +0.004 C 
ATOM     18  C   UNL     1      -8.064  15.100  67.859  0.00  0.00    +0.046 C 
ATOM     19  C   UNL     1      -8.288  16.639  66.113  0.00  0.00    +0.003 C 
ATOM     20  C   UNL     1      -9.558  18.243  67.657  0.00  0.00    +0.035 C 
ATOM     21  C   UNL     1      -9.656  14.588  67.756  0.00  0.00    +0.194 C 
ATOM     22  O   UNL     1     -10.022  15.029  69.218  0.00  0.00    -0.465 OA
ATOM     23  C   UNL     1     -11.329  15.491  69.017  0.00  0.00    +0.196 C 
ATOM     24  C   UNL     1     -12.339  15.707  70.102  0.00  0.00    +0.094 C 
ATOM     25  N   UNL     1     -11.405  16.137  67.908  0.00  0.00    -0.235 NA
ENDROOT
BRANCH   1  26
ATOM     26  C   UNL     1     -10.534  15.624  65.720  0.00  0.00    +0.218 C 
ATOM     27  O   UNL     1     -10.814  16.426  64.841  0.00  0.00    -0.290 OA
BRANCH  26  28
ATOM     28  C   UNL     1     -10.523  14.187  65.324  0.00  0.00    +0.274 C 
BRANCH  28  29
ATOM     29  O   UNL     1     -11.562  14.060  64.353  0.00  0.00    -0.440 OA
BRANCH  29  31
ATOM     30  C   UNL     1     -11.391  11.872  63.625  0.00  0.00    +0.121 C 
ATOM     31  C   UNL     1     -12.080  12.792  64.056  0.00  0.00    +0.318 C 
ATOM     32  O   UNL     1     -13.125  12.504  64.708  0.00  0.00    -0.250 OA
ENDBRANCH  29  31
ENDBRANCH  28  29
ENDBRANCH  26  28
ENDBRANCH   1  26
TORSDOF 4
ENDMDL
MODEL 3
REMARK VINA RESULT:      -7.8      1.545      1.785
REMARK  Name = 
REMARK  4 active torsions:
REMARK  status: ('A' for Active; 'I' for Inactive)
REMARK    1  A    between atoms: C_2  and  O_4
REMARK    2  A    between atoms: O_4  and  C_5
REMARK    3  A    between atoms: C_5  and  C_6
REMARK    4  A    between atoms: C_6  and  C_8
REMARK                            x       y       z     vdW  Elec       q    Type
REMARK                         _______ _______ _______ _____ _____    ______ ____
ROOT
ATOM      1  C   UNL     1     -10.903  15.470  67.416  0.00  0.00    +0.178 C 
ATOM      2  C   UNL     1      -9.910  16.484  67.282  0.00  0.00    +0.031 C 
ATOM      3  C   UNL     1      -9.000  16.240  68.619  0.00  0.00    +0.006 C 
ATOM      4  C   UNL     1      -7.706  17.023  67.839  0.00  0.00    +0.004 C 
ATOM      5  C   UNL     1      -8.141  18.489  68.557  0.00  0.00    +0.038 C 
ATOM      6  C   UNL     1      -9.235  18.989  67.299  0.00  0.00    +0.153 C 
ATOM      7  O   UNL     1      -8.461  18.305  66.159  0.00  0.00    -0.223 OA
ATOM      8  C   UNL     1      -6.898  19.328  68.003  0.00  0.00    +0.036 C 
ATOM      9  C   UNL     1      -5.779  18.464  67.617  0.00  0.00    -0.038 C 
ATOM     10  C   UNL     1      -4.788  19.205  67.103  0.00  0.00    +0.034 C 
ATOM     11  C   UNL     1      -4.596  20.610  67.506  0.00  0.00    +0.195 C 
ATOM     12  C   UNL     1      -5.337  20.929  68.737  0.00  0.00    +0.038 C 
ATOM     13  O   UNL     1      -3.714  21.315  66.999  0.00  0.00    -0.287 OA
ATOM     14  C   UNL     1      -5.420  17.228  68.389  0.00  0.00    +0.022 C 
ATOM     15  C   UNL     1      -7.286  20.346  67.022  0.00  0.00    +0.009 C 
ATOM     16  C   UNL     1      -6.343  20.142  69.141  0.00  0.00    -0.020 C 
ATOM     17  C   UNL     1      -6.687  16.696  69.050  0.00  0.00    +0.004 C 
ATOM     18  C   UNL     1      -8.619  14.777  68.004  0.00  0.00    +0.046 C 
ATOM     19  C   UNL     1      -9.137  16.027  66.098  0.00  0.00    +0.003 C 
ATOM     20  C   UNL     1     -10.335  17.775  67.540  0.00  0.00    +0.035 C 
ATOM     21  C   UNL     1     -10.174  14.174  68.164  0.00  0.00    +0.194 C 
ATOM     22  O   UNL     1     -10.406  14.807  69.582  0.00  0.00    -0.465 OA
ATOM     23  C   UNL     1     -11.756  15.167  69.475  0.00  0.00    +0.196 C 
ATOM     24  C   UNL     1     -12.652  15.488  70.631  0.00  0.00    +0.094 C 
ATOM     25  N   UNL     1     -11.997  15.638  68.303  0.00  0.00    -0.235 NA
ENDROOT
BRANCH   1  26
ATOM     26  C   UNL     1     -11.339  14.852  66.122  0.00  0.00    +0.218 C 
ATOM     27  O   UNL     1     -11.504  15.492  65.093  0.00  0.00    -0.290 OA
BRANCH  26  28
ATOM     28  C   UNL     1     -11.606  13.388  66.038  0.00  0.00    +0.274 C 
BRANCH  28  29
ATOM     29  O   UNL     1     -12.558  13.242  64.984  0.00  0.00    -0.440 OA
BRANCH  29  31
ATOM     30  C   UNL     1     -11.044  12.229  63.560  0.00  0.00    +0.121 C 
ATOM     31  C   UNL     1     -12.200  12.550  63.820  0.00  0.00    +0.318 C 
ATOM     32  O   UNL     1     -13.139  11.854  63.333  0.00  0.00    -0.250 OA
ENDBRANCH  29  31
ENDBRANCH  28  29
ENDBRANCH  26  28
ENDBRANCH   1  26
TORSDOF 4
ENDMDL
MODEL 4
REMARK VINA RESULT:      -7.6      1.851      4.029
REMARK  Name = 
REMARK  4 active torsions:
REMARK  status: ('A' for Active; 'I' for Inactive)
REMARK    1  A    between atoms: C_2  and  O_4
REMARK    2  A    between atoms: O_4  and  C_5
REMARK    3  A    between atoms: C_5  and  C_6
REMARK    4  A    between atoms: C_6  and  C_8
REMARK                            x       y       z     vdW  Elec       q    Type
REMARK                         _______ _______ _______ _____ _____    ______ ____
ROOT
ATOM      1  C   UNL     1     -10.603  13.406  67.366  0.00  0.00    +0.178 C 
ATOM      2  C   UNL     1      -9.698  14.496  67.529  0.00  0.00    +0.031 C 
ATOM      3  C   UNL     1     -10.588  15.755  66.982  0.00  0.00    +0.006 C 
ATOM      4  C   UNL     1      -9.599  16.803  67.887  0.00  0.00    +0.004 C 
ATOM      5  C   UNL     1      -8.621  17.070  66.536  0.00  0.00    +0.038 C 
ATOM      6  C   UNL     1      -7.532  15.745  66.834  0.00  0.00    +0.153 C 
ATOM      7  O   UNL     1      -7.640  15.816  68.366  0.00  0.00    -0.223 OA
ATOM      8  C   UNL     1      -7.685  18.175  67.216  0.00  0.00    +0.036 C 
ATOM      9  C   UNL     1      -8.324  18.795  68.380  0.00  0.00    -0.038 C 
ATOM     10  C   UNL     1      -7.480  19.666  68.951  0.00  0.00    +0.034 C 
ATOM     11  C   UNL     1      -6.442  20.353  68.163  0.00  0.00    +0.195 C 
ATOM     12  C   UNL     1      -6.700  20.253  66.717  0.00  0.00    +0.038 C 
ATOM     13  O   UNL     1      -5.627  21.120  68.692  0.00  0.00    -0.287 OA
ATOM     14  C   UNL     1      -9.794  19.093  68.422  0.00  0.00    +0.022 C 
ATOM     15  C   UNL     1      -6.308  17.715  67.413  0.00  0.00    +0.009 C 
ATOM     16  C   UNL     1      -7.531  19.315  66.245  0.00  0.00    -0.020 C 
ATOM     17  C   UNL     1     -10.508  18.087  67.524  0.00  0.00    +0.004 C 
ATOM     18  C   UNL     1     -11.608  15.479  68.225  0.00  0.00    +0.046 C 
ATOM     19  C   UNL     1      -9.584  14.607  69.005  0.00  0.00    +0.003 C 
ATOM     20  C   UNL     1      -8.659  14.551  66.616  0.00  0.00    +0.035 C 
ATOM     21  C   UNL     1     -12.134  14.007  67.621  0.00  0.00    +0.194 C 
ATOM     22  O   UNL     1     -12.230  14.511  66.137  0.00  0.00    -0.465 OA
ATOM     23  C   UNL     1     -11.793  13.366  65.458  0.00  0.00    +0.196 C 
ATOM     24  C   UNL     1     -12.006  13.100  64.000  0.00  0.00    +0.094 C 
ATOM     25  N   UNL     1     -10.815  12.823  66.091  0.00  0.00    -0.235 NA
ENDROOT
BRANCH   1  26
ATOM     26  C   UNL     1     -10.517  12.362  68.438  0.00  0.00    +0.218 C 
ATOM     27  O   UNL     1      -9.538  11.650  68.606  0.00  0.00    -0.290 OA
BRANCH  26  28
ATOM     28  C   UNL     1     -11.663  12.139  69.365  0.00  0.00    +0.274 C 
BRANCH  28  29
ATOM     29  O   UNL     1     -11.707  10.726  69.570  0.00  0.00    -0.440 OA
BRANCH  29  31
ATOM     30  C   UNL     1     -12.889  10.001  71.419  0.00  0.00    +0.121 C 
ATOM     31  C   UNL     1     -11.813  10.218  70.871  0.00  0.00    +0.318 C 
ATOM     32  O   UNL     1     -10.807   9.544  71.238  0.00  0.00    -0.250 OA
ENDBRANCH  29  31
ENDBRANCH  28  29
ENDBRANCH  26  28
ENDBRANCH   1  26
TORSDOF 4
ENDMDL
MODEL 5
REMARK VINA RESULT:      -7.3      2.220      4.390
REMARK  Name = 
REMARK  4 active torsions:
REMARK  status: ('A' for Active; 'I' for Inactive)
REMARK    1  A    between atoms: C_2  and  O_4
REMARK    2  A    between atoms: O_4  and  C_5
REMARK    3  A    between atoms: C_5  and  C_6
REMARK    4  A    between atoms: C_6  and  C_8
REMARK                            x       y       z     vdW  Elec       q    Type
REMARK                         _______ _______ _______ _____ _____    ______ ____
ROOT
ATOM      1  C   UNL     1     -10.624  12.021  66.919  0.00  0.00    +0.178 C 
ATOM      2  C   UNL     1      -9.886  13.183  67.289  0.00  0.00    +0.031 C 
ATOM      3  C   UNL     1     -10.273  14.223  66.087  0.00  0.00    +0.006 C 
ATOM      4  C   UNL     1      -9.864  15.514  67.117  0.00  0.00    +0.004 C 
ATOM      5  C   UNL     1      -8.302  15.550  66.476  0.00  0.00    +0.038 C 
ATOM      6  C   UNL     1      -7.619  14.407  67.596  0.00  0.00    +0.153 C 
ATOM      7  O   UNL     1      -8.526  14.804  68.773  0.00  0.00    -0.223 OA
ATOM      8  C   UNL     1      -7.814  16.843  67.282  0.00  0.00    +0.036 C 
ATOM      9  C   UNL     1      -8.941  17.654  67.752  0.00  0.00    -0.038 C 
ATOM     10  C   UNL     1      -8.486  18.689  68.472  0.00  0.00    +0.034 C 
ATOM     11  C   UNL     1      -7.150  19.261  68.228  0.00  0.00    +0.195 C 
ATOM     12  C   UNL     1      -6.600  18.829  66.934  0.00  0.00    +0.038 C 
ATOM     13  O   UNL     1      -6.703  20.184  68.922  0.00  0.00    -0.287 OA
ATOM     14  C   UNL     1     -10.185  17.844  66.935  0.00  0.00    +0.022 C 
ATOM     15  C   UNL     1      -6.785  16.541  68.280  0.00  0.00    +0.009 C 
ATOM     16  C   UNL     1      -7.100  17.750  66.316  0.00  0.00    -0.020 C 
ATOM     17  C   UNL     1     -10.363  16.617  66.048  0.00  0.00    +0.004 C 
ATOM     18  C   UNL     1     -11.814  14.152  66.618  0.00  0.00    +0.046 C 
ATOM     19  C   UNL     1     -10.575  13.624  68.529  0.00  0.00    +0.003 C 
ATOM     20  C   UNL     1      -8.519  13.114  67.086  0.00  0.00    +0.035 C 
ATOM     21  C   UNL     1     -12.017  12.548  66.175  0.00  0.00    +0.194 C 
ATOM     22  O   UNL     1     -11.275  12.706  64.801  0.00  0.00    -0.465 OA
ATOM     23  C   UNL     1     -10.608  11.476  64.737  0.00  0.00    +0.196 C 
ATOM     24  C   UNL     1     -10.022  10.881  63.494  0.00  0.00    +0.094 C 
ATOM     25  N   UNL     1     -10.153  11.158  65.897  0.00  0.00    -0.235 NA
ENDROOT
BRANCH   1  26
ATOM     26  C   UNL     1     -11.185  11.247  68.073  0.00  0.00    +0.218 C 
ATOM     27  O   UNL     1     -12.371  11.243  68.367  0.00  0.00    -0.290 OA
BRANCH  26  28
ATOM     28  C   UNL     1     -10.287  10.434  68.942  0.00  0.00    +0.274 C 
BRANCH  28  29
ATOM     29  O   UNL     1     -10.841  10.540  70.254  0.00  0.00    -0.440 OA
BRANCH  29  31
ATOM     30  C   UNL     1      -9.891   8.838  71.497  0.00  0.00    +0.121 C 
ATOM     31  C   UNL     1     -10.893   9.408  71.076  0.00  0.00    +0.318 C 
ATOM     32  O   UNL     1     -11.961   9.318  71.751  0.00  0.00    -0.250 OA
ENDBRANCH  29  31
ENDBRANCH  28  29
ENDBRANCH  26  28
ENDBRANCH   1  26
TORSDOF 4
ENDMDL
MODEL 6
REMARK VINA RESULT:      -7.2      1.818      2.266
REMARK  Name = 
REMARK  4 active torsions:
REMARK  status: ('A' for Active; 'I' for Inactive)
REMARK    1  A    between atoms: C_2  and  O_4
REMARK    2  A    between atoms: O_4  and  C_5
REMARK    3  A    between atoms: C_5  and  C_6
REMARK    4  A    between atoms: C_6  and  C_8
REMARK                            x       y       z     vdW  Elec       q    Type
REMARK                         _______ _______ _______ _____ _____    ______ ____
ROOT
ATOM      1  C   UNL     1     -10.790  15.190  67.824  0.00  0.00    +0.178 C 
ATOM      2  C   UNL     1      -9.906  16.220  67.386  0.00  0.00    +0.031 C 
ATOM      3  C   UNL     1      -8.921  16.388  68.681  0.00  0.00    +0.006 C 
ATOM      4  C   UNL     1      -7.743  17.062  67.654  0.00  0.00    +0.004 C 
ATOM      5  C   UNL     1      -8.288  18.617  68.026  0.00  0.00    +0.038 C 
ATOM      6  C   UNL     1      -9.478  18.701  66.758  0.00  0.00    +0.153 C 
ATOM      7  O   UNL     1      -8.690  17.826  65.768  0.00  0.00    -0.223 OA
ATOM      8  C   UNL     1      -7.157  19.397  67.207  0.00  0.00    +0.036 C 
ATOM      9  C   UNL     1      -5.977  18.562  66.968  0.00  0.00    -0.038 C 
ATOM     10  C   UNL     1      -5.086  19.235  66.228  0.00  0.00    +0.034 C 
ATOM     11  C   UNL     1      -5.014  20.706  66.269  0.00  0.00    +0.195 C 
ATOM     12  C   UNL     1      -5.729  21.254  67.433  0.00  0.00    +0.038 C 
ATOM     13  O   UNL     1      -4.228  21.338  65.551  0.00  0.00    -0.287 OA
ATOM     14  C   UNL     1      -5.467  17.587  67.989  0.00  0.00    +0.022 C 
ATOM     15  C   UNL     1      -7.683  20.108  66.038  0.00  0.00    +0.009 C 
ATOM     16  C   UNL     1      -6.636  20.508  68.078  0.00  0.00    -0.020 C 
ATOM     17  C   UNL     1      -6.647  17.128  68.838  0.00  0.00    +0.004 C 
ATOM     18  C   UNL     1      -8.425  14.856  68.412  0.00  0.00    +0.046 C 
ATOM     19  C   UNL     1      -9.144  15.554  66.299  0.00  0.00    +0.003 C 
ATOM     20  C   UNL     1     -10.444  17.495  67.355  0.00  0.00    +0.035 C 
ATOM     21  C   UNL     1      -9.907  14.183  68.812  0.00  0.00    +0.194 C 
ATOM     22  O   UNL     1     -10.139  15.122  70.048  0.00  0.00    -0.465 OA
ATOM     23  C   UNL     1     -11.520  15.330  69.946  0.00  0.00    +0.196 C 
ATOM     24  C   UNL     1     -12.394  15.848  71.047  0.00  0.00    +0.094 C 
ATOM     25  N   UNL     1     -11.855  15.477  68.714  0.00  0.00    -0.235 NA
ENDROOT
BRANCH   1  26
ATOM     26  C   UNL     1     -11.218  14.240  66.746  0.00  0.00    +0.218 C 
ATOM     27  O   UNL     1     -11.971  14.552  65.835  0.00  0.00    -0.290 OA
BRANCH  26  28
ATOM     28  C   UNL     1     -10.735  12.830  66.750  0.00  0.00    +0.274 C 
BRANCH  28  29
ATOM     29  O   UNL     1     -11.873  12.047  67.112  0.00  0.00    -0.440 OA
BRANCH  29  31
ATOM     30  C   UNL     1     -10.961  10.105  67.973  0.00  0.00    +0.121 C 
ATOM     31  C   UNL     1     -11.743  11.044  68.081  0.00  0.00    +0.318 C 
ATOM     32  O   UNL     1     -12.076  11.416  69.245  0.00  0.00    -0.250 OA
ENDBRANCH  29  31
ENDBRANCH  28  29
ENDBRANCH  26  28
ENDBRANCH   1  26
TORSDOF 4
ENDMDL
MODEL 7
REMARK VINA RESULT:      -7.2      4.308      8.792
REMARK  Name = 
REMARK  4 active torsions:
REMARK  status: ('A' for Active; 'I' for Inactive)
REMARK    1  A    between atoms: C_2  and  O_4
REMARK    2  A    between atoms: O_4  and  C_5
REMARK    3  A    between atoms: C_5  and  C_6
REMARK    4  A    between atoms: C_6  and  C_8
REMARK                            x       y       z     vdW  Elec       q    Type
REMARK                         _______ _______ _______ _____ _____    ______ ____
ROOT
ATOM      1  C   UNL     1      -9.970  11.889  67.310  0.00  0.00    +0.178 C 
ATOM      2  C   UNL     1     -10.034  10.727  68.132  0.00  0.00    +0.031 C 
ATOM      3  C   UNL     1     -10.749  11.310  69.483  0.00  0.00    +0.006 C 
ATOM      4  C   UNL     1     -11.247   9.728  69.862  0.00  0.00    +0.004 C 
ATOM      5  C   UNL     1      -9.880   9.514  70.830  0.00  0.00    +0.038 C 
ATOM      6  C   UNL     1      -8.850   8.913  69.562  0.00  0.00    +0.153 C 
ATOM      7  O   UNL     1      -9.980   8.225  68.778  0.00  0.00    -0.223 OA
ATOM      8  C   UNL     1     -10.282   8.067  71.380  0.00  0.00    +0.036 C 
ATOM      9  C   UNL     1     -11.720   7.812  71.257  0.00  0.00    -0.038 C 
ATOM     10  C   UNL     1     -11.999   6.569  71.672  0.00  0.00    +0.034 C 
ATOM     11  C   UNL     1     -11.163   5.895  72.680  0.00  0.00    +0.195 C 
ATOM     12  C   UNL     1     -10.294   6.846  73.392  0.00  0.00    +0.038 C 
ATOM     13  O   UNL     1     -11.385   4.728  73.032  0.00  0.00    -0.287 OA
ATOM     14  C   UNL     1     -12.744   8.886  71.480  0.00  0.00    +0.022 C 
ATOM     15  C   UNL     1      -9.401   7.003  70.891  0.00  0.00    +0.009 C 
ATOM     16  C   UNL     1     -10.044   8.053  72.867  0.00  0.00    -0.020 C 
ATOM     17  C   UNL     1     -12.109  10.228  71.132  0.00  0.00    +0.004 C 
ATOM     18  C   UNL     1     -12.066  11.614  68.567  0.00  0.00    +0.046 C 
ATOM     19  C   UNL     1     -11.014   9.873  67.413  0.00  0.00    +0.003 C 
ATOM     20  C   UNL     1      -8.832  10.316  68.682  0.00  0.00    +0.035 C 
ATOM     21  C   UNL     1     -11.309  12.810  67.669  0.00  0.00    +0.194 C 
ATOM     22  O   UNL     1     -10.588  13.454  68.906  0.00  0.00    -0.465 OA
ATOM     23  C   UNL     1      -9.362  13.802  68.324  0.00  0.00    +0.196 C 
ATOM     24  C   UNL     1      -8.384  14.777  68.903  0.00  0.00    +0.094 C 
ATOM     25  N   UNL     1      -8.973  12.875  67.523  0.00  0.00    -0.235 NA
ENDROOT
BRANCH   1  26
ATOM     26  C   UNL     1     -10.178  11.629  65.849  0.00  0.00    +0.218 C 
ATOM     27  O   UNL     1      -9.390  10.998  65.159  0.00  0.00    -0.290 OA
BRANCH  26  28
ATOM     28  C   UNL     1     -11.388  12.154  65.155  0.00  0.00    +0.274 C 
BRANCH  28  29
ATOM     29  O   UNL     1     -10.928  13.278  64.402  0.00  0.00    -0.440 OA
BRANCH  29  31
ATOM     30  C   UNL     1     -10.805  15.501  65.024  0.00  0.00    +0.121 C 
ATOM     31  C   UNL     1     -11.475  14.544  64.646  0.00  0.00    +0.318 C 
ATOM     32  O   UNL     1     -12.535  14.775  63.995  0.00  0.00    -0.250 OA
ENDBRANCH  29  31
ENDBRANCH  28  29
ENDBRANCH  26  28
ENDBRANCH   1  26
TORSDOF 4
ENDMDL
MODEL 8
REMARK VINA RESULT:      -6.9      2.626      7.711
REMARK  Name = 
REMARK  4 active torsions:
REMARK  status: ('A' for Active; 'I' for Inactive)
REMARK    1  A    between atoms: C_2  and  O_4
REMARK    2  A    between atoms: O_4  and  C_5
REMARK    3  A    between atoms: C_5  and  C_6
REMARK    4  A    between atoms: C_6  and  C_8
REMARK                            x       y       z     vdW  Elec       q    Type
REMARK                         _______ _______ _______ _____ _____    ______ ____
ROOT
ATOM      1  C   UNL     1      -7.243  18.796  67.004  0.00  0.00    +0.178 C 
ATOM      2  C   UNL     1      -8.158  17.711  67.133  0.00  0.00    +0.031 C 
ATOM      3  C   UNL     1      -7.226  16.434  66.717  0.00  0.00    +0.006 C 
ATOM      4  C   UNL     1      -8.288  15.420  67.577  0.00  0.00    +0.004 C 
ATOM      5  C   UNL     1      -9.147  15.094  66.159  0.00  0.00    +0.038 C 
ATOM      6  C   UNL     1     -10.257  16.427  66.308  0.00  0.00    +0.153 C 
ATOM      7  O   UNL     1     -10.280  16.419  67.846  0.00  0.00    -0.223 OA
ATOM      8  C   UNL     1     -10.138  14.015  66.802  0.00  0.00    +0.036 C 
ATOM      9  C   UNL     1      -9.601  13.446  68.041  0.00  0.00    -0.038 C 
ATOM     10  C   UNL     1     -10.490  12.596  68.574  0.00  0.00    +0.034 C 
ATOM     11  C   UNL     1     -11.458  11.874  67.729  0.00  0.00    +0.195 C 
ATOM     12  C   UNL     1     -11.077  11.915  66.308  0.00  0.00    +0.038 C 
ATOM     13  O   UNL     1     -12.314  11.126  68.218  0.00  0.00    -0.287 OA
ATOM     14  C   UNL     1      -8.140  13.155  68.220  0.00  0.00    +0.022 C 
ATOM     15  C   UNL     1     -11.527  14.478  66.862  0.00  0.00    +0.009 C 
ATOM     16  C   UNL     1     -10.209  12.836  65.869  0.00  0.00    -0.020 C 
ATOM     17  C   UNL     1      -7.352  14.125  67.346  0.00  0.00    +0.004 C 
ATOM     18  C   UNL     1      -6.315  16.763  68.030  0.00  0.00    +0.046 C 
ATOM     19  C   UNL     1      -8.398  17.660  68.598  0.00  0.00    +0.003 C 
ATOM     20  C   UNL     1      -9.116  17.615  66.138  0.00  0.00    +0.035 C 
ATOM     21  C   UNL     1      -5.739  18.211  67.412  0.00  0.00    +0.194 C 
ATOM     22  O   UNL     1      -5.517  17.647  65.964  0.00  0.00    -0.465 OA
ATOM     23  C   UNL     1      -5.895  18.762  65.204  0.00  0.00    +0.196 C 
ATOM     24  C   UNL     1      -5.558  18.969  63.759  0.00  0.00    +0.094 C 
ATOM     25  N   UNL     1      -6.923  19.328  65.729  0.00  0.00    -0.235 NA
ENDROOT
BRANCH   1  26
ATOM     26  C   UNL     1      -7.420  19.883  68.021  0.00  0.00    +0.218 C 
ATOM     27  O   UNL     1      -8.496  20.410  68.261  0.00  0.00    -0.290 OA
BRANCH  26  28
ATOM     28  C   UNL     1      -6.251  20.385  68.797  0.00  0.00    +0.274 C 
BRANCH  28  29
ATOM     29  O   UNL     1      -6.666  20.344  70.164  0.00  0.00    -0.440 OA
BRANCH  29  31
ATOM     30  C   UNL     1      -5.171  18.938  71.227  0.00  0.00    +0.121 C 
ATOM     31  C   UNL     1      -5.734  20.026  71.160  0.00  0.00    +0.318 C 
ATOM     32  O   UNL     1      -5.149  21.035  71.650  0.00  0.00    -0.250 OA
ENDBRANCH  29  31
ENDBRANCH  28  29
ENDBRANCH  26  28
ENDBRANCH   1  26
TORSDOF 4
ENDMDL
MODEL 9
REMARK VINA RESULT:      -6.8      2.979      6.475
REMARK  Name = 
REMARK  4 active torsions:
REMARK  status: ('A' for Active; 'I' for Inactive)
REMARK    1  A    between atoms: C_2  and  O_4
REMARK    2  A    between atoms: O_4  and  C_5
REMARK    3  A    between atoms: C_5  and  C_6
REMARK    4  A    between atoms: C_6  and  C_8
REMARK                            x       y       z     vdW  Elec       q    Type
REMARK                         _______ _______ _______ _____ _____    ______ ____
ROOT
ATOM      1  C   UNL     1      -8.033  18.902  66.734  0.00  0.00    +0.178 C 
ATOM      2  C   UNL     1      -7.694  17.687  67.399  0.00  0.00    +0.031 C 
ATOM      3  C   UNL     1      -6.164  17.990  67.891  0.00  0.00    +0.006 C 
ATOM      4  C   UNL     1      -6.349  16.797  69.090  0.00  0.00    +0.004 C 
ATOM      5  C   UNL     1      -5.658  15.642  68.069  0.00  0.00    +0.038 C 
ATOM      6  C   UNL     1      -7.148  15.152  67.314  0.00  0.00    +0.153 C 
ATOM      7  O   UNL     1      -8.022  15.399  68.555  0.00  0.00    -0.223 OA
ATOM      8  C   UNL     1      -5.645  14.452  69.137  0.00  0.00    +0.036 C 
ATOM      9  C   UNL     1      -5.720  14.949  70.514  0.00  0.00    -0.038 C 
ATOM     10  C   UNL     1      -5.768  13.917  71.368  0.00  0.00    +0.034 C 
ATOM     11  C   UNL     1      -5.160  12.618  71.031  0.00  0.00    +0.195 C 
ATOM     12  C   UNL     1      -4.232  12.729  69.894  0.00  0.00    +0.038 C 
ATOM     13  O   UNL     1      -5.243  11.645  71.793  0.00  0.00    -0.287 OA
ATOM     14  C   UNL     1      -5.023  16.205  70.950  0.00  0.00    +0.022 C 
ATOM     15  C   UNL     1      -6.571  13.368  68.799  0.00  0.00    +0.009 C 
ATOM     16  C   UNL     1      -4.297  13.785  69.072  0.00  0.00    -0.020 C 
ATOM     17  C   UNL     1      -4.909  17.129  69.742  0.00  0.00    +0.004 C 
ATOM     18  C   UNL     1      -6.777  19.175  68.831  0.00  0.00    +0.046 C 
ATOM     19  C   UNL     1      -8.583  17.709  68.589  0.00  0.00    +0.003 C 
ATOM     20  C   UNL     1      -7.447  16.603  66.575  0.00  0.00    +0.035 C 
ATOM     21  C   UNL     1      -7.237  20.128  67.531  0.00  0.00    +0.194 C 
ATOM     22  O   UNL     1      -5.923  19.865  66.715  0.00  0.00    -0.465 OA
ATOM     23  C   UNL     1      -6.447  19.800  65.417  0.00  0.00    +0.196 C 
ATOM     24  C   UNL     1      -5.642  19.929  64.160  0.00  0.00    +0.094 C 
ATOM     25  N   UNL     1      -7.564  19.166  65.422  0.00  0.00    -0.235 NA
ENDROOT
BRANCH   1  26
ATOM     26  C   UNL     1      -9.461  19.324  66.901  0.00  0.00    +0.218 C 
ATOM     27  O   UNL     1      -9.797  20.471  67.159  0.00  0.00    -0.290 OA
BRANCH  26  28
ATOM     28  C   UNL     1     -10.561  18.328  66.763  0.00  0.00    +0.274 C 
BRANCH  28  29
ATOM     29  O   UNL     1     -10.611  18.018  65.369  0.00  0.00    -0.440 OA
BRANCH  29  31
ATOM     30  C   UNL     1     -10.753  15.738  65.725  0.00  0.00    +0.121 C 
ATOM     31  C   UNL     1     -10.834  16.696  64.963  0.00  0.00    +0.318 C 
ATOM     32  O   UNL     1     -11.590  16.596  63.952  0.00  0.00    -0.250 OA
ENDBRANCH  29  31
ENDBRANCH  28  29
ENDBRANCH  26  28
ENDBRANCH   1  26
TORSDOF 4
ENDMDL
