MODEL 1
REMARK VINA RESULT:      -5.4      0.000      0.000
REMARK  Name = 
REMARK  3 active torsions:
REMARK  status: ('A' for Active; 'I' for Inactive)
REMARK    1  A    between atoms: C_2  and  C_4
REMARK    2  A    between atoms: C_2  and  C_12
REMARK    3  A    between atoms: C_4  and  C_5
REMARK                            x       y       z     vdW  Elec       q    Type
REMARK                         _______ _______ _______ _____ _____    ______ ____
ROOT
ATOM      1  C   UNL     1     -12.738  13.685  65.767  0.00  0.00    +0.055 C 
ENDROOT
BRANCH   1   2
ATOM      2  C   UNL     1     -11.887  13.237  66.913  0.00  0.00    -0.020 A 
ATOM      3  C   UNL     1     -11.572  11.889  67.045  0.00  0.00    -0.001 A 
ATOM      4  C   UNL     1     -11.548  11.299  68.303  0.00  0.00    +0.042 A 
ATOM      5  C   UNL     1     -11.682  12.068  69.445  0.00  0.00    +0.196 A 
ATOM      6  O   UNL     1     -12.205  11.560  70.635  0.00  0.00    -0.287 OA
ATOM      7  C   UNL     1     -11.607  13.447  69.293  0.00  0.00    +0.042 A 
ATOM      8  C   UNL     1     -11.837  14.030  68.052  0.00  0.00    -0.001 A 
ENDBRANCH   1   2
BRANCH   1  10
ATOM      9  C   UNL     1     -10.526  14.383  64.958  0.00  0.00    +0.031 C 
ATOM     10  C   UNL     1     -11.908  14.016  64.554  0.00  0.00    +0.174 C 
ATOM     11  N   UNL     1     -12.503  15.148  63.849  0.00  0.00    -0.123 NA
BRANCH  10  12
ATOM     12  C   UNL     1     -11.911  12.809  63.673  0.00  0.00    +0.380 C 
ATOM     13  O   UNL     1     -13.072  12.093  63.482  0.00  0.00    -0.244 OA
ATOM     14  O   UNL     1     -10.780  12.338  63.375  0.00  0.00    -0.244 OA
ENDBRANCH  10  12
ENDBRANCH   1  10
TORSDOF 3
ENDMDL
MODEL 2
REMARK VINA RESULT:      -5.2      1.909      2.180
REMARK  Name = 
REMARK  3 active torsions:
REMARK  status: ('A' for Active; 'I' for Inactive)
REMARK    1  A    between atoms: C_2  and  C_4
REMARK    2  A    between atoms: C_2  and  C_12
REMARK    3  A    between atoms: C_4  and  C_5
REMARK                            x       y       z     vdW  Elec       q    Type
REMARK                         _______ _______ _______ _____ _____    ______ ____
ROOT
ATOM      1  C   UNL     1     -12.188  14.079  66.339  0.00  0.00    +0.055 C 
ENDROOT
BRANCH   1   2
ATOM      2  C   UNL     1     -11.647  13.674  67.674  0.00  0.00    -0.020 A 
ATOM      3  C   UNL     1     -11.411  12.330  67.937  0.00  0.00    -0.001 A 
ATOM      4  C   UNL     1     -11.703  11.803  69.188  0.00  0.00    +0.042 A 
ATOM      5  C   UNL     1     -12.084  12.629  70.231  0.00  0.00    +0.196 A 
ATOM      6  O   UNL     1     -12.890  12.189  71.281  0.00  0.00    -0.287 OA
ATOM      7  C   UNL     1     -11.937  13.998  70.040  0.00  0.00    +0.042 A 
ATOM      8  C   UNL     1     -11.848  14.521  68.755  0.00  0.00    -0.001 A 
ENDBRANCH   1   2
BRANCH   1  10
ATOM      9  C   UNL     1     -10.495  13.312  64.732  0.00  0.00    +0.031 C 
ATOM     10  C   UNL     1     -11.089  14.500  65.398  0.00  0.00    +0.174 C 
ATOM     11  N   UNL     1     -10.040  15.186  66.148  0.00  0.00    -0.123 NA
BRANCH  10  12
ATOM     12  C   UNL     1     -11.694  15.433  64.400  0.00  0.00    +0.380 C 
ATOM     13  O   UNL     1     -11.267  16.741  64.325  0.00  0.00    -0.244 OA
ATOM     14  O   UNL     1     -12.773  15.052  63.868  0.00  0.00    -0.244 OA
ENDBRANCH  10  12
ENDBRANCH   1  10
TORSDOF 3
ENDMDL
MODEL 3
REMARK VINA RESULT:      -5.2      2.467      3.253
REMARK  Name = 
REMARK  3 active torsions:
REMARK  status: ('A' for Active; 'I' for Inactive)
REMARK    1  A    between atoms: C_2  and  C_4
REMARK    2  A    between atoms: C_2  and  C_12
REMARK    3  A    between atoms: C_4  and  C_5
REMARK                            x       y       z     vdW  Elec       q    Type
REMARK                         _______ _______ _______ _____ _____    ______ ____
ROOT
ATOM      1  C   UNL     1     -10.412  14.450  66.850  0.00  0.00    +0.055 C 
ENDROOT
BRANCH   1   2
ATOM      2  C   UNL     1     -11.401  14.613  67.961  0.00  0.00    -0.020 A 
ATOM      3  C   UNL     1     -11.612  15.872  68.511  0.00  0.00    -0.001 A 
ATOM      4  C   UNL     1     -11.795  16.012  69.880  0.00  0.00    +0.042 A 
ATOM      5  C   UNL     1     -11.925  14.899  70.692  0.00  0.00    +0.196 A 
ATOM      6  O   UNL     1     -11.567  14.908  72.041  0.00  0.00    -0.287 OA
ATOM      7  C   UNL     1     -12.096  13.672  70.063  0.00  0.00    +0.042 A 
ATOM      8  C   UNL     1     -11.713  13.504  68.737  0.00  0.00    -0.001 A 
ENDBRANCH   1   2
BRANCH   1  10
ATOM      9  C   UNL     1     -12.510  14.187  65.598  0.00  0.00    +0.031 C 
ATOM     10  C   UNL     1     -11.072  14.550  65.499  0.00  0.00    +0.174 C 
ATOM     11  N   UNL     1     -10.423  13.631  64.568  0.00  0.00    -0.123 NA
BRANCH  10  12
ATOM     12  C   UNL     1     -10.901  15.958  65.026  0.00  0.00    +0.380 C 
ATOM     13  O   UNL     1     -11.643  16.428  63.965  0.00  0.00    -0.244 OA
ATOM     14  O   UNL     1      -9.874  16.561  65.442  0.00  0.00    -0.244 OA
ENDBRANCH  10  12
ENDBRANCH   1  10
TORSDOF 3
ENDMDL
MODEL 4
REMARK VINA RESULT:      -5.2      3.181      4.477
REMARK  Name = 
REMARK  3 active torsions:
REMARK  status: ('A' for Active; 'I' for Inactive)
REMARK    1  A    between atoms: C_2  and  C_4
REMARK    2  A    between atoms: C_2  and  C_12
REMARK    3  A    between atoms: C_4  and  C_5
REMARK                            x       y       z     vdW  Elec       q    Type
REMARK                         _______ _______ _______ _____ _____    ______ ____
ROOT
ATOM      1  C   UNL     1     -10.162  13.688  65.042  0.00  0.00    +0.055 C 
ENDROOT
BRANCH   1   2
ATOM      2  C   UNL     1     -10.431  12.278  64.624  0.00  0.00    -0.020 A 
ATOM      3  C   UNL     1     -10.507  11.280  65.589  0.00  0.00    -0.001 A 
ATOM      4  C   UNL     1      -9.963  10.027  65.340  0.00  0.00    +0.042 A 
ATOM      5  C   UNL     1      -9.478   9.705  64.084  0.00  0.00    +0.196 A 
ATOM      6  O   UNL     1      -8.471   8.759  63.889  0.00  0.00    -0.287 OA
ATOM      7  C   UNL     1      -9.768  10.584  63.049  0.00  0.00    +0.042 A 
ATOM      8  C   UNL     1     -10.119  11.901  63.324  0.00  0.00    -0.001 A 
ENDBRANCH   1   2
BRANCH   1  10
ATOM      9  C   UNL     1     -12.027  14.327  66.509  0.00  0.00    +0.031 C 
ATOM     10  C   UNL     1     -11.435  14.487  65.156  0.00  0.00    +0.174 C 
ATOM     11  N   UNL     1     -12.400  14.013  64.167  0.00  0.00    -0.123 NA
BRANCH  10  12
ATOM     12  C   UNL     1     -11.087  15.915  64.884  0.00  0.00    +0.380 C 
ATOM     13  O   UNL     1     -11.713  16.600  63.866  0.00  0.00    -0.244 OA
ATOM     14  O   UNL     1     -10.025  16.338  65.418  0.00  0.00    -0.244 OA
ENDBRANCH  10  12
ENDBRANCH   1  10
TORSDOF 3
ENDMDL
MODEL 5
REMARK VINA RESULT:      -5.2      3.775      6.832
REMARK  Name = 
REMARK  3 active torsions:
REMARK  status: ('A' for Active; 'I' for Inactive)
REMARK    1  A    between atoms: C_2  and  C_4
REMARK    2  A    between atoms: C_2  and  C_12
REMARK    3  A    between atoms: C_4  and  C_5
REMARK                            x       y       z     vdW  Elec       q    Type
REMARK                         _______ _______ _______ _____ _____    ______ ____
ROOT
ATOM      1  C   UNL     1     -11.808  14.766  71.396  0.00  0.00    +0.055 C 
ENDROOT
BRANCH   1   2
ATOM      2  C   UNL     1     -11.980  14.710  69.911  0.00  0.00    -0.020 A 
ATOM      3  C   UNL     1     -11.990  13.477  69.269  0.00  0.00    -0.001 A 
ATOM      4  C   UNL     1     -11.361  13.326  68.040  0.00  0.00    +0.042 A 
ATOM      5  C   UNL     1     -10.853  14.423  67.367  0.00  0.00    +0.196 A 
ATOM      6  O   UNL     1      -9.784  14.329  66.476  0.00  0.00    -0.287 OA
ATOM      7  C   UNL     1     -11.200  15.679  67.851  0.00  0.00    +0.042 A 
ATOM      8  C   UNL     1     -11.640  15.829  69.162  0.00  0.00    -0.001 A 
ENDBRANCH   1   2
BRANCH   1  10
ATOM      9  C   UNL     1     -13.606  13.358  72.304  0.00  0.00    +0.031 C 
ATOM     10  C   UNL     1     -13.135  14.754  72.110  0.00  0.00    +0.174 C 
ATOM     11  N   UNL     1     -14.125  15.473  71.313  0.00  0.00    -0.123 NA
BRANCH  10  12
ATOM     12  C   UNL     1     -12.937  15.445  73.420  0.00  0.00    +0.380 C 
ATOM     13  O   UNL     1     -12.245  14.823  74.436  0.00  0.00    -0.244 OA
ATOM     14  O   UNL     1     -13.665  16.454  73.630  0.00  0.00    -0.244 OA
ENDBRANCH  10  12
ENDBRANCH   1  10
TORSDOF 3
ENDMDL
MODEL 6
REMARK VINA RESULT:      -5.1      3.187      4.598
REMARK  Name = 
REMARK  3 active torsions:
REMARK  status: ('A' for Active; 'I' for Inactive)
REMARK    1  A    between atoms: C_2  and  C_4
REMARK    2  A    between atoms: C_2  and  C_12
REMARK    3  A    between atoms: C_4  and  C_5
REMARK                            x       y       z     vdW  Elec       q    Type
REMARK                         _______ _______ _______ _____ _____    ______ ____
ROOT
ATOM      1  C   UNL     1     -11.825  13.104  69.980  0.00  0.00    +0.055 C 
ENDROOT
BRANCH   1   2
ATOM      2  C   UNL     1     -12.376  14.362  70.572  0.00  0.00    -0.020 A 
ATOM      3  C   UNL     1     -11.504  15.367  70.975  0.00  0.00    -0.001 A 
ATOM      4  C   UNL     1     -11.755  16.081  72.140  0.00  0.00    +0.042 A 
ATOM      5  C   UNL     1     -12.943  15.912  72.829  0.00  0.00    +0.196 A 
ATOM      6  O   UNL     1     -13.050  16.128  74.204  0.00  0.00    -0.287 OA
ATOM      7  C   UNL     1     -13.947  15.192  72.194  0.00  0.00    +0.042 A 
ATOM      8  C   UNL     1     -13.637  14.326  71.152  0.00  0.00    -0.001 A 
ENDBRANCH   1   2
BRANCH   1  10
ATOM      9  C   UNL     1      -9.988  13.571  68.417  0.00  0.00    +0.031 C 
ATOM     10  C   UNL     1     -11.442  13.290  68.535  0.00  0.00    +0.174 C 
ATOM     11  N   UNL     1     -12.180  14.419  67.975  0.00  0.00    -0.123 NA
BRANCH  10  12
ATOM     12  C   UNL     1     -11.810  12.034  67.814  0.00  0.00    +0.380 C 
ATOM     13  O   UNL     1     -12.039  12.055  66.456  0.00  0.00    -0.244 OA
ATOM     14  O   UNL     1     -12.176  11.067  68.537  0.00  0.00    -0.244 OA
ENDBRANCH  10  12
ENDBRANCH   1  10
TORSDOF 3
ENDMDL
MODEL 7
REMARK VINA RESULT:      -5.0      9.247     10.836
REMARK  Name = 
REMARK  3 active torsions:
REMARK  status: ('A' for Active; 'I' for Inactive)
REMARK    1  A    between atoms: C_2  and  C_4
REMARK    2  A    between atoms: C_2  and  C_12
REMARK    3  A    between atoms: C_4  and  C_5
REMARK                            x       y       z     vdW  Elec       q    Type
REMARK                         _______ _______ _______ _____ _____    ______ ____
ROOT
ATOM      1  C   UNL     1      -6.109  20.187  70.485  0.00  0.00    +0.055 C 
ENDROOT
BRANCH   1   2
ATOM      2  C   UNL     1      -6.328  19.776  69.063  0.00  0.00    -0.020 A 
ATOM      3  C   UNL     1      -6.233  20.728  68.054  0.00  0.00    -0.001 A 
ATOM      4  C   UNL     1      -7.120  20.700  66.985  0.00  0.00    +0.042 A 
ATOM      5  C   UNL     1      -8.003  19.646  66.827  0.00  0.00    +0.196 A 
ATOM      6  O   UNL     1      -9.227  19.784  66.171  0.00  0.00    -0.287 OA
ATOM      7  C   UNL     1      -7.808  18.530  67.632  0.00  0.00    +0.042 A 
ATOM      8  C   UNL     1      -7.078  18.635  68.810  0.00  0.00    -0.001 A 
ENDBRANCH   1   2
BRANCH   1  10
ATOM      9  C   UNL     1      -3.932  19.191  69.930  0.00  0.00    +0.031 C 
ATOM     10  C   UNL     1      -4.827  19.617  71.036  0.00  0.00    +0.174 C 
ATOM     11  N   UNL     1      -5.127  18.454  71.867  0.00  0.00    -0.123 NA
BRANCH  10  12
ATOM     12  C   UNL     1      -4.191  20.685  71.866  0.00  0.00    +0.380 C 
ATOM     13  O   UNL     1      -4.381  22.013  71.553  0.00  0.00    -0.244 OA
ATOM     14  O   UNL     1      -3.272  20.308  72.645  0.00  0.00    -0.244 OA
ENDBRANCH  10  12
ENDBRANCH   1  10
TORSDOF 3
ENDMDL
MODEL 8
REMARK VINA RESULT:      -5.0      2.032      2.655
REMARK  Name = 
REMARK  3 active torsions:
REMARK  status: ('A' for Active; 'I' for Inactive)
REMARK    1  A    between atoms: C_2  and  C_4
REMARK    2  A    between atoms: C_2  and  C_12
REMARK    3  A    between atoms: C_4  and  C_5
REMARK                            x       y       z     vdW  Elec       q    Type
REMARK                         _______ _______ _______ _____ _____    ______ ____
ROOT
ATOM      1  C   UNL     1     -10.566  14.049  66.634  0.00  0.00    +0.055 C 
ENDROOT
BRANCH   1   2
ATOM      2  C   UNL     1     -11.407  13.110  67.441  0.00  0.00    -0.020 A 
ATOM      3  C   UNL     1     -11.878  13.511  68.685  0.00  0.00    -0.001 A 
ATOM      4  C   UNL     1     -11.912  12.610  69.741  0.00  0.00    +0.042 A 
ATOM      5  C   UNL     1     -11.625  11.271  69.536  0.00  0.00    +0.196 A 
ATOM      6  O   UNL     1     -11.109  10.452  70.541  0.00  0.00    -0.287 OA
ATOM      7  C   UNL     1     -11.536  10.838  68.219  0.00  0.00    +0.042 A 
ATOM      8  C   UNL     1     -11.300  11.747  67.195  0.00  0.00    -0.001 A 
ENDBRANCH   1   2
BRANCH   1  10
ATOM      9  C   UNL     1     -12.667  14.132  65.363  0.00  0.00    +0.031 C 
ATOM     10  C   UNL     1     -11.199  14.358  65.303  0.00  0.00    +0.174 C 
ATOM     11  N   UNL     1     -10.636  13.483  64.278  0.00  0.00    -0.123 NA
BRANCH  10  12
ATOM     12  C   UNL     1     -10.884  15.784  64.984  0.00  0.00    +0.380 C 
ATOM     13  O   UNL     1     -11.567  16.438  63.983  0.00  0.00    -0.244 OA
ATOM     14  O   UNL     1      -9.805  16.232  65.459  0.00  0.00    -0.244 OA
ENDBRANCH  10  12
ENDBRANCH   1  10
TORSDOF 3
ENDMDL
MODEL 9
REMARK VINA RESULT:      -4.9      1.850      2.276
REMARK  Name = 
REMARK  3 active torsions:
REMARK  status: ('A' for Active; 'I' for Inactive)
REMARK    1  A    between atoms: C_2  and  C_4
REMARK    2  A    between atoms: C_2  and  C_12
REMARK    3  A    between atoms: C_4  and  C_5
REMARK                            x       y       z     vdW  Elec       q    Type
REMARK                         _______ _______ _______ _____ _____    ______ ____
ROOT
ATOM      1  C   UNL     1     -12.288  14.016  66.485  0.00  0.00    +0.055 C 
ENDROOT
BRANCH   1   2
ATOM      2  C   UNL     1     -11.668  14.316  67.813  0.00  0.00    -0.020 A 
ATOM      3  C   UNL     1     -11.884  13.453  68.880  0.00  0.00    -0.001 A 
ATOM      4  C   UNL     1     -12.082  13.961  70.158  0.00  0.00    +0.042 A 
ATOM      5  C   UNL     1     -11.915  15.311  70.415  0.00  0.00    +0.196 A 
ATOM      6  O   UNL     1     -12.589  15.968  71.444  0.00  0.00    -0.287 OA
ATOM      7  C   UNL     1     -11.326  16.077  69.417  0.00  0.00    +0.042 A 
ATOM      8  C   UNL     1     -11.320  15.630  68.100  0.00  0.00    -0.001 A 
ENDBRANCH   1   2
BRANCH   1  10
ATOM      9  C   UNL     1     -10.147  12.892  66.052  0.00  0.00    +0.031 C 
ATOM     10  C   UNL     1     -11.248  13.686  65.447  0.00  0.00    +0.174 C 
ATOM     11  N   UNL     1     -10.688  14.921  64.906  0.00  0.00    -0.123 NA
BRANCH  10  12
ATOM     12  C   UNL     1     -11.934  12.920  64.362  0.00  0.00    +0.380 C 
ATOM     13  O   UNL     1     -13.207  12.431  64.556  0.00  0.00    -0.244 OA
ATOM     14  O   UNL     1     -11.198  12.512  63.422  0.00  0.00    -0.244 OA
ENDBRANCH  10  12
ENDBRANCH   1  10
TORSDOF 3
ENDMDL
