MODEL 1
REMARK VINA RESULT:      -6.6      0.000      0.000
REMARK  Name = 
REMARK  4 active torsions:
REMARK  status: ('A' for Active; 'I' for Inactive)
REMARK    1  A    between atoms: C_2  and  N_3
REMARK    2  A    between atoms: N_3  and  C_7
REMARK    3  A    between atoms: C_11  and  C_12
REMARK    4  A    between atoms: C_17  and  C_18
REMARK                            x       y       z     vdW  Elec       q    Type
REMARK                         _______ _______ _______ _____ _____    ______ ____
ROOT
ATOM      1  C   UNL     1     -11.526  13.765  67.225  0.00  0.00    +0.054 A 
ATOM      2  C   UNL     1     -10.978  15.032  67.063  0.00  0.00    +0.016 A 
ATOM      3  C   UNL     1     -10.849  15.917  68.127  0.00  0.00    +0.019 A 
ATOM      4  C   UNL     1     -11.636  15.632  69.236  0.00  0.00    +0.002 A 
ATOM      5  C   UNL     1     -12.142  14.355  69.446  0.00  0.00    +0.001 A 
ATOM      6  C   UNL     1     -12.061  13.390  68.449  0.00  0.00    +0.015 A 
ENDROOT
BRANCH   3   7
ATOM      7  C   UNL     1      -9.616  16.707  68.233  0.00  0.00    +0.086 A 
ATOM      8  N   UNL     1      -9.514  17.952  67.727  0.00  0.00    -0.211 N 
ATOM      9  C   UNL     1      -8.291  18.437  67.432  0.00  0.00    +0.175 A 
ATOM     10  C   UNL     1      -8.452  19.778  67.107  0.00  0.00    +0.125 A 
ATOM     11  C   UNL     1      -9.824  19.964  67.019  0.00  0.00    +0.134 A 
ATOM     12  N   UNL     1      -7.202  17.637  67.489  0.00  0.00    -0.224 NA
ATOM     13  C   UNL     1      -7.208  16.616  68.380  0.00  0.00    +0.102 A 
ATOM     14  N   UNL     1     -10.396  18.740  67.116  0.00  0.00    -0.161 NA
ATOM     15  C   UNL     1      -8.456  16.152  68.756  0.00  0.00    +0.040 A 
BRANCH  10  16
ATOM     16  C   UNL     1      -7.456  20.813  67.248  0.00  0.00    +0.105 C 
ATOM     17  N   UNL     1      -6.522  21.511  67.252  0.00  0.00    -0.191 NA
ENDBRANCH  10  16
ENDBRANCH   3   7
BRANCH   1  18
ATOM     18  N   UNL     1     -11.574  12.843  66.138  0.00  0.00    -0.259 N 
ATOM     19  C   UNL     1     -12.456  13.060  65.055  0.00  0.00    +0.230 C 
ATOM     20  O   UNL     1     -13.171  14.085  65.008  0.00  0.00    -0.275 OA
ATOM     21  C   UNL     1     -12.438  12.183  63.863  0.00  0.00    +0.095 C 
BRANCH  18  23
ATOM     22  C   UNL     1      -9.321  11.938  66.163  0.00  0.00    +0.024 C 
ATOM     23  C   UNL     1     -10.808  11.619  66.238  0.00  0.00    +0.098 C 
ENDBRANCH  18  23
ENDBRANCH   1  18
TORSDOF 4
ENDMDL
MODEL 2
REMARK VINA RESULT:      -6.4      2.621      4.658
REMARK  Name = 
REMARK  4 active torsions:
REMARK  status: ('A' for Active; 'I' for Inactive)
REMARK    1  A    between atoms: C_2  and  N_3
REMARK    2  A    between atoms: N_3  and  C_7
REMARK    3  A    between atoms: C_11  and  C_12
REMARK    4  A    between atoms: C_17  and  C_18
REMARK                            x       y       z     vdW  Elec       q    Type
REMARK                         _______ _______ _______ _____ _____    ______ ____
ROOT
ATOM      1  C   UNL     1     -10.581  12.060  65.360  0.00  0.00    +0.054 A 
ATOM      2  C   UNL     1      -9.940  13.146  65.944  0.00  0.00    +0.016 A 
ATOM      3  C   UNL     1     -10.448  14.437  65.847  0.00  0.00    +0.019 A 
ATOM      4  C   UNL     1     -11.377  14.635  64.832  0.00  0.00    +0.002 A 
ATOM      5  C   UNL     1     -12.072  13.567  64.279  0.00  0.00    +0.001 A 
ATOM      6  C   UNL     1     -11.702  12.258  64.565  0.00  0.00    +0.015 A 
ENDROOT
BRANCH   3   7
ATOM      7  C   UNL     1     -10.400  15.297  67.035  0.00  0.00    +0.086 A 
ATOM      8  N   UNL     1     -11.133  15.042  68.137  0.00  0.00    -0.211 N 
ATOM      9  C   UNL     1     -11.417  16.055  68.980  0.00  0.00    +0.175 A 
ATOM     10  C   UNL     1     -12.014  15.496  70.103  0.00  0.00    +0.125 A 
ATOM     11  C   UNL     1     -12.249  14.173  69.764  0.00  0.00    +0.134 A 
ATOM     12  N   UNL     1     -11.114  17.331  68.648  0.00  0.00    -0.224 NA
ATOM     13  C   UNL     1     -10.041  17.543  67.847  0.00  0.00    +0.102 A 
ATOM     14  N   UNL     1     -11.958  14.044  68.447  0.00  0.00    -0.161 NA
ATOM     15  C   UNL     1      -9.684  16.486  67.027  0.00  0.00    +0.040 A 
BRANCH  10  16
ATOM     16  C   UNL     1     -12.000  16.048  71.436  0.00  0.00    +0.105 C 
ATOM     17  N   UNL     1     -11.931  16.291  72.575  0.00  0.00    -0.191 NA
ENDBRANCH  10  16
ENDBRANCH   3   7
BRANCH   1  18
ATOM     18  N   UNL     1     -10.088  10.734  65.541  0.00  0.00    -0.259 N 
ATOM     19  C   UNL     1     -10.566   9.932  66.603  0.00  0.00    +0.230 C 
ATOM     20  O   UNL     1     -11.461  10.352  67.369  0.00  0.00    -0.275 OA
ATOM     21  C   UNL     1     -10.157   8.517  66.739  0.00  0.00    +0.095 C 
BRANCH  18  23
ATOM     22  C   UNL     1      -9.504  10.019  63.297  0.00  0.00    +0.024 C 
ATOM     23  C   UNL     1      -8.995  10.285  64.706  0.00  0.00    +0.098 C 
ENDBRANCH  18  23
ENDBRANCH   1  18
TORSDOF 4
ENDMDL
MODEL 3
REMARK VINA RESULT:      -6.2      2.916      7.151
REMARK  Name = 
REMARK  4 active torsions:
REMARK  status: ('A' for Active; 'I' for Inactive)
REMARK    1  A    between atoms: C_2  and  N_3
REMARK    2  A    between atoms: N_3  and  C_7
REMARK    3  A    between atoms: C_11  and  C_12
REMARK    4  A    between atoms: C_17  and  C_18
REMARK                            x       y       z     vdW  Elec       q    Type
REMARK                         _______ _______ _______ _____ _____    ______ ____
ROOT
ATOM      1  C   UNL     1     -10.375  15.556  66.457  0.00  0.00    +0.054 A 
ATOM      2  C   UNL     1     -10.893  14.619  67.343  0.00  0.00    +0.016 A 
ATOM      3  C   UNL     1     -11.776  13.628  66.931  0.00  0.00    +0.019 A 
ATOM      4  C   UNL     1     -12.405  13.862  65.713  0.00  0.00    +0.002 A 
ATOM      5  C   UNL     1     -11.868  14.749  64.789  0.00  0.00    +0.001 A 
ATOM      6  C   UNL     1     -10.818  15.588  65.141  0.00  0.00    +0.015 A 
ENDROOT
BRANCH   3   7
ATOM      7  C   UNL     1     -11.606  12.274  67.470  0.00  0.00    +0.086 A 
ATOM      8  N   UNL     1     -11.797  11.989  68.774  0.00  0.00    -0.211 N 
ATOM      9  C   UNL     1     -11.200  10.899  69.297  0.00  0.00    +0.175 A 
ATOM     10  C   UNL     1     -11.700  10.739  70.583  0.00  0.00    +0.125 A 
ATOM     11  C   UNL     1     -12.425  11.894  70.834  0.00  0.00    +0.134 A 
ATOM     12  N   UNL     1     -10.298  10.196  68.574  0.00  0.00    -0.224 NA
ATOM     13  C   UNL     1     -10.441  10.172  67.227  0.00  0.00    +0.102 A 
ATOM     14  N   UNL     1     -12.193  12.739  69.800  0.00  0.00    -0.161 NA
ATOM     15  C   UNL     1     -11.120  11.245  66.674  0.00  0.00    +0.040 A 
BRANCH  10  16
ATOM     16  C   UNL     1     -11.794   9.496  71.309  0.00  0.00    +0.105 C 
ATOM     17  N   UNL     1     -11.749   8.593  72.047  0.00  0.00    -0.191 NA
ENDBRANCH  10  16
ENDBRANCH   3   7
BRANCH   1  18
ATOM     18  N   UNL     1      -9.408  16.513  66.884  0.00  0.00    -0.259 N 
ATOM     19  C   UNL     1      -9.806  17.649  67.627  0.00  0.00    +0.230 C 
ATOM     20  O   UNL     1     -11.000  17.807  67.963  0.00  0.00    -0.275 OA
ATOM     21  C   UNL     1      -8.808  18.590  68.181  0.00  0.00    +0.095 C 
BRANCH  18  23
ATOM     22  C   UNL     1      -7.333  15.307  67.250  0.00  0.00    +0.024 C 
ATOM     23  C   UNL     1      -8.044  16.369  66.422  0.00  0.00    +0.098 C 
ENDBRANCH  18  23
ENDBRANCH   1  18
TORSDOF 4
ENDMDL
MODEL 4
REMARK VINA RESULT:      -6.2      1.316      2.224
REMARK  Name = 
REMARK  4 active torsions:
REMARK  status: ('A' for Active; 'I' for Inactive)
REMARK    1  A    between atoms: C_2  and  N_3
REMARK    2  A    between atoms: N_3  and  C_7
REMARK    3  A    between atoms: C_11  and  C_12
REMARK    4  A    between atoms: C_17  and  C_18
REMARK                            x       y       z     vdW  Elec       q    Type
REMARK                         _______ _______ _______ _____ _____    ______ ____
ROOT
ATOM      1  C   UNL     1     -11.573  13.816  67.327  0.00  0.00    +0.054 A 
ATOM      2  C   UNL     1     -11.330  15.157  67.052  0.00  0.00    +0.016 A 
ATOM      3  C   UNL     1     -11.227  16.106  68.063  0.00  0.00    +0.019 A 
ATOM      4  C   UNL     1     -11.761  15.729  69.289  0.00  0.00    +0.002 A 
ATOM      5  C   UNL     1     -11.953  14.390  69.605  0.00  0.00    +0.001 A 
ATOM      6  C   UNL     1     -11.828  13.408  68.630  0.00  0.00    +0.015 A 
ENDROOT
BRANCH   3   7
ATOM      7  C   UNL     1     -10.183  17.132  67.952  0.00  0.00    +0.086 A 
ATOM      8  N   UNL     1      -8.925  16.928  68.393  0.00  0.00    -0.211 N 
ATOM      9  C   UNL     1      -8.161  17.996  68.698  0.00  0.00    +0.175 A 
ATOM     10  C   UNL     1      -6.879  17.522  68.946  0.00  0.00    +0.125 A 
ATOM     11  C   UNL     1      -7.006  16.142  68.982  0.00  0.00    +0.134 A 
ATOM     12  N   UNL     1      -8.694  19.240  68.718  0.00  0.00    -0.224 NA
ATOM     13  C   UNL     1      -9.729  19.502  67.883  0.00  0.00    +0.102 A 
ATOM     14  N   UNL     1      -8.332  15.866  68.933  0.00  0.00    -0.161 NA
ATOM     15  C   UNL     1     -10.482  18.408  67.495  0.00  0.00    +0.040 A 
BRANCH  10  16
ATOM     16  C   UNL     1      -5.652  18.263  68.779  0.00  0.00    +0.105 C 
ATOM     17  N   UNL     1      -4.765  19.020  68.754  0.00  0.00    -0.191 NA
ENDBRANCH  10  16
ENDBRANCH   3   7
BRANCH   1  18
ATOM     18  N   UNL     1     -11.594  12.845  66.282  0.00  0.00    -0.259 N 
ATOM     19  C   UNL     1     -12.497  12.977  65.202  0.00  0.00    +0.230 C 
ATOM     20  O   UNL     1     -13.254  13.969  65.119  0.00  0.00    -0.275 OA
ATOM     21  C   UNL     1     -12.454  12.050  64.050  0.00  0.00    +0.095 C 
BRANCH  18  23
ATOM     22  C   UNL     1      -9.308  12.031  66.279  0.00  0.00    +0.024 C 
ATOM     23  C   UNL     1     -10.777  11.660  66.426  0.00  0.00    +0.098 C 
ENDBRANCH  18  23
ENDBRANCH   1  18
TORSDOF 4
ENDMDL
MODEL 5
REMARK VINA RESULT:      -6.2      1.731      2.310
REMARK  Name = 
REMARK  4 active torsions:
REMARK  status: ('A' for Active; 'I' for Inactive)
REMARK    1  A    between atoms: C_2  and  N_3
REMARK    2  A    between atoms: N_3  and  C_7
REMARK    3  A    between atoms: C_11  and  C_12
REMARK    4  A    between atoms: C_17  and  C_18
REMARK                            x       y       z     vdW  Elec       q    Type
REMARK                         _______ _______ _______ _____ _____    ______ ____
ROOT
ATOM      1  C   UNL     1     -10.655  13.103  65.729  0.00  0.00    +0.054 A 
ATOM      2  C   UNL     1     -10.062  14.343  65.527  0.00  0.00    +0.016 A 
ATOM      3  C   UNL     1     -10.233  15.394  66.421  0.00  0.00    +0.019 A 
ATOM      4  C   UNL     1     -11.315  15.269  67.285  0.00  0.00    +0.002 A 
ATOM      5  C   UNL     1     -11.882  14.028  67.547  0.00  0.00    +0.001 A 
ATOM      6  C   UNL     1     -11.531  12.916  66.790  0.00  0.00    +0.015 A 
ENDROOT
BRANCH   3   7
ATOM      7  C   UNL     1      -9.071  16.229  66.748  0.00  0.00    +0.086 A 
ATOM      8  N   UNL     1      -9.071  17.565  66.567  0.00  0.00    -0.211 N 
ATOM      9  C   UNL     1      -7.892  18.204  66.431  0.00  0.00    +0.175 A 
ATOM     10  C   UNL     1      -8.163  19.566  66.443  0.00  0.00    +0.125 A 
ATOM     11  C   UNL     1      -9.545  19.658  66.370  0.00  0.00    +0.134 A 
ATOM     12  N   UNL     1      -6.740  17.504  66.315  0.00  0.00    -0.224 NA
ATOM     13  C   UNL     1      -6.664  16.297  66.927  0.00  0.00    +0.102 A 
ATOM     14  N   UNL     1     -10.013  18.407  66.149  0.00  0.00    -0.161 NA
ATOM     15  C   UNL     1      -7.870  15.656  67.146  0.00  0.00    +0.040 A 
BRANCH  10  16
ATOM     16  C   UNL     1      -7.257  20.610  66.859  0.00  0.00    +0.105 C 
ATOM     17  N   UNL     1      -6.420  21.408  67.008  0.00  0.00    -0.191 NA
ENDBRANCH  10  16
ENDBRANCH   3   7
BRANCH   1  18
ATOM     18  N   UNL     1     -10.400  12.015  64.843  0.00  0.00    -0.259 N 
ATOM     19  C   UNL     1      -9.562  10.948  65.243  0.00  0.00    +0.230 C 
ATOM     20  O   UNL     1      -9.073  10.917  66.394  0.00  0.00    -0.275 OA
ATOM     21  C   UNL     1      -9.380   9.755  64.388  0.00  0.00    +0.095 C 
BRANCH  18  23
ATOM     22  C   UNL     1     -12.421  12.034  63.499  0.00  0.00    +0.024 C 
ATOM     23  C   UNL     1     -10.900  12.098  63.488  0.00  0.00    +0.098 C 
ENDBRANCH  18  23
ENDBRANCH   1  18
TORSDOF 4
ENDMDL
MODEL 6
REMARK VINA RESULT:      -6.1      3.674      5.513
REMARK  Name = 
REMARK  4 active torsions:
REMARK  status: ('A' for Active; 'I' for Inactive)
REMARK    1  A    between atoms: C_2  and  N_3
REMARK    2  A    between atoms: N_3  and  C_7
REMARK    3  A    between atoms: C_11  and  C_12
REMARK    4  A    between atoms: C_17  and  C_18
REMARK                            x       y       z     vdW  Elec       q    Type
REMARK                         _______ _______ _______ _____ _____    ______ ____
ROOT
ATOM      1  C   UNL     1     -11.153  11.737  66.517  0.00  0.00    +0.054 A 
ATOM      2  C   UNL     1     -11.711  12.741  67.301  0.00  0.00    +0.016 A 
ATOM      3  C   UNL     1     -11.880  12.593  68.673  0.00  0.00    +0.019 A 
ATOM      4  C   UNL     1     -11.837  11.284  69.139  0.00  0.00    +0.002 A 
ATOM      5  C   UNL     1     -11.229  10.279  68.396  0.00  0.00    +0.001 A 
ATOM      6  C   UNL     1     -10.847  10.505  67.079  0.00  0.00    +0.015 A 
ENDROOT
BRANCH   3   7
ATOM      7  C   UNL     1     -11.575  13.736  69.541  0.00  0.00    +0.086 A 
ATOM      8  N   UNL     1     -12.215  13.943  70.709  0.00  0.00    -0.211 N 
ATOM      9  C   UNL     1     -12.251  15.190  71.221  0.00  0.00    +0.175 A 
ATOM     10  C   UNL     1     -12.801  15.092  72.493  0.00  0.00    +0.125 A 
ATOM     11  C   UNL     1     -13.268  13.790  72.584  0.00  0.00    +0.134 A 
ATOM     12  N   UNL     1     -11.797  16.242  70.502  0.00  0.00    -0.224 NA
ATOM     13  C   UNL     1     -10.797  16.021  69.613  0.00  0.00    +0.102 A 
ATOM     14  N   UNL     1     -13.143  13.238  71.353  0.00  0.00    -0.161 NA
ATOM     15  C   UNL     1     -10.693  14.728  69.132  0.00  0.00    +0.040 A 
BRANCH  10  16
ATOM     16  C   UNL     1     -12.560  15.993  73.594  0.00  0.00    +0.105 C 
ATOM     17  N   UNL     1     -12.545  16.630  74.571  0.00  0.00    -0.191 NA
ENDBRANCH  10  16
ENDBRANCH   3   7
BRANCH   1  18
ATOM     18  N   UNL     1     -10.914  11.941  65.126  0.00  0.00    -0.259 N 
ATOM     19  C   UNL     1      -9.757  11.405  64.514  0.00  0.00    +0.230 C 
ATOM     20  O   UNL     1      -8.953  10.705  65.168  0.00  0.00    -0.275 OA
ATOM     21  C   UNL     1      -9.549  11.502  63.052  0.00  0.00    +0.095 C 
BRANCH  18  23
ATOM     22  C   UNL     1     -12.812  11.991  63.614  0.00  0.00    +0.024 C 
ATOM     23  C   UNL     1     -11.801  12.819  64.395  0.00  0.00    +0.098 C 
ENDBRANCH  18  23
ENDBRANCH   1  18
TORSDOF 4
ENDMDL
MODEL 7
REMARK VINA RESULT:      -6.1      1.952      3.437
REMARK  Name = 
REMARK  4 active torsions:
REMARK  status: ('A' for Active; 'I' for Inactive)
REMARK    1  A    between atoms: C_2  and  N_3
REMARK    2  A    between atoms: N_3  and  C_7
REMARK    3  A    between atoms: C_11  and  C_12
REMARK    4  A    between atoms: C_17  and  C_18
REMARK                            x       y       z     vdW  Elec       q    Type
REMARK                         _______ _______ _______ _____ _____    ______ ____
ROOT
ATOM      1  C   UNL     1     -11.414  14.581  67.504  0.00  0.00    +0.054 A 
ATOM      2  C   UNL     1     -10.372  15.500  67.453  0.00  0.00    +0.016 A 
ATOM      3  C   UNL     1     -10.019  16.145  66.273  0.00  0.00    +0.019 A 
ATOM      4  C   UNL     1     -10.481  15.545  65.107  0.00  0.00    +0.002 A 
ATOM      5  C   UNL     1     -11.561  14.671  65.131  0.00  0.00    +0.001 A 
ATOM      6  C   UNL     1     -12.066  14.203  66.338  0.00  0.00    +0.015 A 
ENDROOT
BRANCH   3   7
ATOM      7  C   UNL     1      -9.683  17.572  66.331  0.00  0.00    +0.086 A 
ATOM      8  N   UNL     1      -8.463  18.009  66.703  0.00  0.00    -0.211 N 
ATOM      9  C   UNL     1      -8.339  19.263  67.183  0.00  0.00    +0.175 A 
ATOM     10  C   UNL     1      -6.979  19.515  67.316  0.00  0.00    +0.125 A 
ATOM     11  C   UNL     1      -6.363  18.291  67.102  0.00  0.00    +0.134 A 
ATOM     12  N   UNL     1      -9.435  20.013  67.440  0.00  0.00    -0.224 NA
ATOM     13  C   UNL     1     -10.542  19.800  66.687  0.00  0.00    +0.102 A 
ATOM     14  N   UNL     1      -7.346  17.361  67.029  0.00  0.00    -0.161 NA
ATOM     15  C   UNL     1     -10.652  18.543  66.120  0.00  0.00    +0.040 A 
BRANCH  10  16
ATOM     16  C   UNL     1      -6.346  20.811  67.264  0.00  0.00    +0.105 C 
ATOM     17  N   UNL     1      -5.666  21.750  67.131  0.00  0.00    -0.191 NA
ENDBRANCH  10  16
ENDBRANCH   3   7
BRANCH   1  18
ATOM     18  N   UNL     1     -11.812  13.993  68.741  0.00  0.00    -0.259 N 
ATOM     19  C   UNL     1     -12.160  14.809  69.841  0.00  0.00    +0.230 C 
ATOM     20  O   UNL     1     -12.172  16.055  69.735  0.00  0.00    -0.275 OA
ATOM     21  C   UNL     1     -12.689  14.223  71.093  0.00  0.00    +0.095 C 
BRANCH  18  23
ATOM     22  C   UNL     1     -10.283  12.112  68.627  0.00  0.00    +0.024 C 
ATOM     23  C   UNL     1     -11.716  12.556  68.883  0.00  0.00    +0.098 C 
ENDBRANCH  18  23
ENDBRANCH   1  18
TORSDOF 4
ENDMDL
MODEL 8
REMARK VINA RESULT:      -6.1      3.874      5.872
REMARK  Name = 
REMARK  4 active torsions:
REMARK  status: ('A' for Active; 'I' for Inactive)
REMARK    1  A    between atoms: C_2  and  N_3
REMARK    2  A    between atoms: N_3  and  C_7
REMARK    3  A    between atoms: C_11  and  C_12
REMARK    4  A    between atoms: C_17  and  C_18
REMARK                            x       y       z     vdW  Elec       q    Type
REMARK                         _______ _______ _______ _____ _____    ______ ____
ROOT
ATOM      1  C   UNL     1     -10.605   9.192  68.923  0.00  0.00    +0.054 A 
ATOM      2  C   UNL     1     -11.138  10.231  68.169  0.00  0.00    +0.016 A 
ATOM      3  C   UNL     1     -11.791  11.307  68.759  0.00  0.00    +0.019 A 
ATOM      4  C   UNL     1     -12.222  11.097  70.064  0.00  0.00    +0.002 A 
ATOM      5  C   UNL     1     -11.657  10.104  70.853  0.00  0.00    +0.001 A 
ATOM      6  C   UNL     1     -10.810   9.153  70.296  0.00  0.00    +0.015 A 
ENDROOT
BRANCH   3   7
ATOM      7  C   UNL     1     -11.535  12.653  68.232  0.00  0.00    +0.086 A 
ATOM      8  N   UNL     1     -11.713  12.962  66.932  0.00  0.00    -0.211 N 
ATOM      9  C   UNL     1     -11.049  14.015  66.416  0.00  0.00    +0.175 A 
ATOM     10  C   UNL     1     -11.543  14.221  65.135  0.00  0.00    +0.125 A 
ATOM     11  C   UNL     1     -12.344  13.119  64.877  0.00  0.00    +0.134 A 
ATOM     12  N   UNL     1     -10.099  14.651  67.141  0.00  0.00    -0.224 NA
ATOM     13  C   UNL     1     -10.234  14.670  68.489  0.00  0.00    +0.102 A 
ATOM     14  N   UNL     1     -12.163  12.250  65.900  0.00  0.00    -0.161 NA
ATOM     15  C   UNL     1     -10.979  13.639  69.035  0.00  0.00    +0.040 A 
BRANCH  10  16
ATOM     16  C   UNL     1     -11.559  15.475  64.421  0.00  0.00    +0.105 C 
ATOM     17  N   UNL     1     -11.611  16.577  64.040  0.00  0.00    -0.191 NA
ENDBRANCH  10  16
ENDBRANCH   3   7
BRANCH   1  18
ATOM     18  N   UNL     1      -9.868   8.140  68.304  0.00  0.00    -0.259 N 
ATOM     19  C   UNL     1      -8.470   8.255  68.125  0.00  0.00    +0.230 C 
ATOM     20  O   UNL     1      -7.852   9.256  68.550  0.00  0.00    -0.275 OA
ATOM     21  C   UNL     1      -7.670   7.129  67.596  0.00  0.00    +0.095 C 
BRANCH  18  23
ATOM     22  C   UNL     1     -11.085   6.115  68.861  0.00  0.00    +0.024 C 
ATOM     23  C   UNL     1     -10.599   7.025  67.742  0.00  0.00    +0.098 C 
ENDBRANCH  18  23
ENDBRANCH   1  18
TORSDOF 4
ENDMDL
MODEL 9
REMARK VINA RESULT:      -6.1      2.512      6.822
REMARK  Name = 
REMARK  4 active torsions:
REMARK  status: ('A' for Active; 'I' for Inactive)
REMARK    1  A    between atoms: C_2  and  N_3
REMARK    2  A    between atoms: N_3  and  C_7
REMARK    3  A    between atoms: C_11  and  C_12
REMARK    4  A    between atoms: C_17  and  C_18
REMARK                            x       y       z     vdW  Elec       q    Type
REMARK                         _______ _______ _______ _____ _____    ______ ____
ROOT
ATOM      1  C   UNL     1      -7.510  19.134  67.378  0.00  0.00    +0.054 A 
ATOM      2  C   UNL     1      -7.974  18.055  68.120  0.00  0.00    +0.016 A 
ATOM      3  C   UNL     1      -9.320  17.904  68.434  0.00  0.00    +0.019 A 
ATOM      4  C   UNL     1     -10.090  19.055  68.318  0.00  0.00    +0.002 A 
ATOM      5  C   UNL     1      -9.670  20.120  67.531  0.00  0.00    +0.001 A 
ATOM      6  C   UNL     1      -8.378  20.157  67.020  0.00  0.00    +0.015 A 
ENDROOT
BRANCH   3   7
ATOM      7  C   UNL     1      -9.911  16.563  68.349  0.00  0.00    +0.086 A 
ATOM      8  N   UNL     1     -10.390  16.060  67.193  0.00  0.00    -0.211 N 
ATOM      9  C   UNL     1     -11.309  15.075  67.243  0.00  0.00    +0.175 A 
ATOM     10  C   UNL     1     -11.492  14.623  65.943  0.00  0.00    +0.125 A 
ATOM     11  C   UNL     1     -10.811  15.532  65.147  0.00  0.00    +0.134 A 
ATOM     12  N   UNL     1     -11.861  14.709  68.423  0.00  0.00    -0.224 NA
ATOM     13  C   UNL     1     -11.113  14.844  69.545  0.00  0.00    +0.102 A 
ATOM     14  N   UNL     1     -10.414  16.545  65.953  0.00  0.00    -0.161 NA
ATOM     15  C   UNL     1     -10.112  15.798  69.490  0.00  0.00    +0.040 A 
BRANCH  10  16
ATOM     16  C   UNL     1     -11.923  13.302  65.555  0.00  0.00    +0.105 C 
ATOM     17  N   UNL     1     -12.469  12.326  65.223  0.00  0.00    -0.191 NA
ENDBRANCH  10  16
ENDBRANCH   3   7
BRANCH   1  18
ATOM     18  N   UNL     1      -6.139  19.227  66.997  0.00  0.00    -0.259 N 
ATOM     19  C   UNL     1      -5.745  18.940  65.670  0.00  0.00    +0.230 C 
ATOM     20  O   UNL     1      -6.594  18.649  64.799  0.00  0.00    -0.275 OA
ATOM     21  C   UNL     1      -4.349  19.144  65.224  0.00  0.00    +0.095 C 
BRANCH  18  23
ATOM     22  C   UNL     1      -5.276  20.920  68.508  0.00  0.00    +0.024 C 
ATOM     23  C   UNL     1      -5.153  19.481  68.025  0.00  0.00    +0.098 C 
ENDBRANCH  18  23
ENDBRANCH   1  18
TORSDOF 4
ENDMDL
