MODEL 1
REMARK VINA RESULT:      -6.7      0.000      0.000
REMARK  Name = 
REMARK  11 active torsions:
REMARK  status: ('A' for Active; 'I' for Inactive)
REMARK    1  A    between atoms: N_2  and  C_3
REMARK    2  A    between atoms: N_2  and  C_17
REMARK    3  A    between atoms: C_3  and  C_4
REMARK    4  A    between atoms: C_4  and  O_5
REMARK    5  A    between atoms: O_5  and  C_6
REMARK    6  A    between atoms: C_9  and  N_10
REMARK    7  A    between atoms: N_10  and  S_11
REMARK    8  A    between atoms: C_17  and  C_18
REMARK    9  A    between atoms: C_18  and  C_19
REMARK   10  A    between atoms: C_22  and  N_23
REMARK   11  A    between atoms: N_23  and  S_24
REMARK                            x       y       z     vdW  Elec       q    Type
REMARK                         _______ _______ _______ _____ _____    ______ ____
ROOT
ATOM      1  C   UNL     1     -10.882  12.112  63.513  0.00  0.00    +0.090 C 
ATOM      2  N   UNL     1     -10.740  13.247  64.417  0.00  0.00    -0.268 NA
ENDROOT
BRANCH   2   3
ATOM      3  C   UNL     1     -10.522  12.700  65.754  0.00  0.00    +0.077 C 
BRANCH   3   4
ATOM      4  C   UNL     1     -11.826  12.526  66.504  0.00  0.00    +0.044 C 
BRANCH   4   5
ATOM      5  C   UNL     1     -11.732  13.190  67.835  0.00  0.00    -0.021 A 
ATOM      6  C   UNL     1     -11.703  12.366  68.941  0.00  0.00    -0.003 A 
ATOM      7  C   UNL     1     -11.899  12.959  70.182  0.00  0.00    +0.018 A 
ATOM      8  C   UNL     1     -12.024  14.326  70.342  0.00  0.00    +0.091 A 
ATOM      9  C   UNL     1     -11.983  15.112  69.214  0.00  0.00    +0.018 A 
ATOM     10  C   UNL     1     -11.618  14.543  68.005  0.00  0.00    -0.003 A 
BRANCH   8  11
ATOM     11  N   UNL     1     -11.779  14.841  71.656  0.00  0.00    -0.101 NA
BRANCH  11  12
ATOM     12  S   UNL     1     -13.077  14.995  72.799  0.00  0.00    +0.075 S 
ATOM     13  O   UNL     1     -14.044  16.051  72.333  0.00  0.00    -0.153 OA
ATOM     14  O   UNL     1     -13.786  13.660  72.817  0.00  0.00    -0.153 OA
ATOM     15  C   UNL     1     -12.490  15.415  74.411  0.00  0.00    +0.202 C 
ENDBRANCH  11  12
ENDBRANCH   8  11
ENDBRANCH   4   5
ENDBRANCH   3   4
ENDBRANCH   2   3
BRANCH   2  16
ATOM     16  C   UNL     1     -12.050  13.890  64.464  0.00  0.00    +0.120 C 
BRANCH  16  17
ATOM     17  C   UNL     1     -11.847  15.397  64.433  0.00  0.00    +0.223 C 
BRANCH  17  18
ATOM     18  O   UNL     1     -10.487  15.736  64.594  0.00  0.00    -0.474 OA
BRANCH  18  19
ATOM     19  C   UNL     1     -10.021  16.525  65.650  0.00  0.00    +0.139 A 
ATOM     20  C   UNL     1      -8.759  16.323  66.197  0.00  0.00    +0.038 A 
ATOM     21  C   UNL     1      -7.952  17.401  66.532  0.00  0.00    +0.021 A 
ATOM     22  C   UNL     1      -8.438  18.699  66.491  0.00  0.00    +0.091 A 
ATOM     23  C   UNL     1      -9.816  18.819  66.367  0.00  0.00    +0.021 A 
ATOM     24  C   UNL     1     -10.597  17.757  65.933  0.00  0.00    +0.038 A 
BRANCH  22  25
ATOM     25  N   UNL     1      -7.633  19.820  66.181  0.00  0.00    -0.101 NA
BRANCH  25  26
ATOM     26  S   UNL     1      -6.375  20.387  67.198  0.00  0.00    +0.075 S 
ATOM     27  O   UNL     1      -6.161  21.862  67.104  0.00  0.00    -0.153 OA
ATOM     28  O   UNL     1      -6.769  20.075  68.620  0.00  0.00    -0.153 OA
ATOM     29  C   UNL     1      -4.835  19.576  66.876  0.00  0.00    +0.202 C 
ENDBRANCH  25  26
ENDBRANCH  22  25
ENDBRANCH  18  19
ENDBRANCH  17  18
ENDBRANCH  16  17
ENDBRANCH   2  16
TORSDOF 11
ENDMDL
MODEL 2
REMARK VINA RESULT:      -6.6      2.500      7.056
REMARK  Name = 
REMARK  11 active torsions:
REMARK  status: ('A' for Active; 'I' for Inactive)
REMARK    1  A    between atoms: N_2  and  C_3
REMARK    2  A    between atoms: N_2  and  C_17
REMARK    3  A    between atoms: C_3  and  C_4
REMARK    4  A    between atoms: C_4  and  O_5
REMARK    5  A    between atoms: O_5  and  C_6
REMARK    6  A    between atoms: C_9  and  N_10
REMARK    7  A    between atoms: N_10  and  S_11
REMARK    8  A    between atoms: C_17  and  C_18
REMARK    9  A    between atoms: C_18  and  C_19
REMARK   10  A    between atoms: C_22  and  N_23
REMARK   11  A    between atoms: N_23  and  S_24
REMARK                            x       y       z     vdW  Elec       q    Type
REMARK                         _______ _______ _______ _____ _____    ______ ____
ROOT
ATOM      1  C   UNL     1      -9.158   9.051  65.782  0.00  0.00    +0.090 C 
ATOM      2  N   UNL     1     -10.336   9.789  66.222  0.00  0.00    -0.268 NA
ENDROOT
BRANCH   2   3
ATOM      3  C   UNL     1      -9.939  11.189  66.345  0.00  0.00    +0.077 C 
BRANCH   3   4
ATOM      4  C   UNL     1     -11.028  12.122  65.857  0.00  0.00    +0.044 C 
BRANCH   4   5
ATOM      5  C   UNL     1     -10.583  13.536  66.009  0.00  0.00    -0.021 A 
ATOM      6  C   UNL     1     -11.327  14.497  65.357  0.00  0.00    -0.003 A 
ATOM      7  C   UNL     1     -10.774  15.767  65.253  0.00  0.00    +0.018 A 
ATOM      8  C   UNL     1      -9.576  16.109  65.850  0.00  0.00    +0.091 A 
ATOM      9  C   UNL     1      -8.902  15.132  66.543  0.00  0.00    +0.018 A 
ATOM     10  C   UNL     1      -9.529  13.922  66.792  0.00  0.00    -0.003 A 
BRANCH   8  11
ATOM     11  N   UNL     1      -9.337  17.507  66.048  0.00  0.00    -0.101 NA
BRANCH  11  12
ATOM     12  S   UNL     1      -9.732  18.265  67.560  0.00  0.00    +0.075 S 
ATOM     13  O   UNL     1     -10.964  17.626  68.144  0.00  0.00    -0.153 OA
ATOM     14  O   UNL     1      -8.564  18.002  68.482  0.00  0.00    -0.153 OA
ATOM     15  C   UNL     1     -10.008  20.000  67.376  0.00  0.00    +0.202 C 
ENDBRANCH  11  12
ENDBRANCH   8  11
ENDBRANCH   4   5
ENDBRANCH   3   4
ENDBRANCH   2   3
BRANCH   2  16
ATOM     16  C   UNL     1     -10.608   9.336  67.583  0.00  0.00    +0.120 C 
BRANCH  16  17
ATOM     17  C   UNL     1      -9.628  10.022  68.522  0.00  0.00    +0.223 C 
BRANCH  17  18
ATOM     18  O   UNL     1     -10.206  10.257  69.787  0.00  0.00    -0.474 OA
BRANCH  18  19
ATOM     19  C   UNL     1     -11.423  10.923  69.955  0.00  0.00    +0.139 A 
ATOM     20  C   UNL     1     -12.382  10.456  70.846  0.00  0.00    +0.038 A 
ATOM     21  C   UNL     1     -13.088  11.337  71.654  0.00  0.00    +0.021 A 
ATOM     22  C   UNL     1     -12.981  12.708  71.478  0.00  0.00    +0.091 A 
ATOM     23  C   UNL     1     -12.362  13.117  70.303  0.00  0.00    +0.021 A 
ATOM     24  C   UNL     1     -11.577  12.246  69.561  0.00  0.00    +0.038 A 
BRANCH  22  25
ATOM     25  N   UNL     1     -13.094  13.638  72.539  0.00  0.00    -0.101 NA
BRANCH  25  26
ATOM     26  S   UNL     1     -13.255  15.328  72.298  0.00  0.00    +0.075 S 
ATOM     27  O   UNL     1     -14.509  15.702  71.578  0.00  0.00    -0.153 OA
ATOM     28  O   UNL     1     -13.301  15.975  73.659  0.00  0.00    -0.153 OA
ATOM     29  C   UNL     1     -11.880  16.014  71.422  0.00  0.00    +0.202 C 
ENDBRANCH  25  26
ENDBRANCH  22  25
ENDBRANCH  18  19
ENDBRANCH  17  18
ENDBRANCH  16  17
ENDBRANCH   2  16
TORSDOF 11
ENDMDL
MODEL 3
REMARK VINA RESULT:      -6.5      2.582      3.479
REMARK  Name = 
REMARK  11 active torsions:
REMARK  status: ('A' for Active; 'I' for Inactive)
REMARK    1  A    between atoms: N_2  and  C_3
REMARK    2  A    between atoms: N_2  and  C_17
REMARK    3  A    between atoms: C_3  and  C_4
REMARK    4  A    between atoms: C_4  and  O_5
REMARK    5  A    between atoms: O_5  and  C_6
REMARK    6  A    between atoms: C_9  and  N_10
REMARK    7  A    between atoms: N_10  and  S_11
REMARK    8  A    between atoms: C_17  and  C_18
REMARK    9  A    between atoms: C_18  and  C_19
REMARK   10  A    between atoms: C_22  and  N_23
REMARK   11  A    between atoms: N_23  and  S_24
REMARK                            x       y       z     vdW  Elec       q    Type
REMARK                         _______ _______ _______ _____ _____    ______ ____
ROOT
ATOM      1  C   UNL     1      -9.679   8.337  66.053  0.00  0.00    +0.090 C 
ATOM      2  N   UNL     1      -9.349   9.744  65.854  0.00  0.00    -0.268 NA
ENDROOT
BRANCH   2   3
ATOM      3  C   UNL     1      -9.607  10.424  67.121  0.00  0.00    +0.077 C 
BRANCH   3   4
ATOM      4  C   UNL     1     -11.092  10.545  67.396  0.00  0.00    +0.044 C 
BRANCH   4   5
ATOM      5  C   UNL     1     -11.330  11.625  68.395  0.00  0.00    -0.021 A 
ATOM      6  C   UNL     1     -11.664  11.227  69.673  0.00  0.00    -0.003 A 
ATOM      7  C   UNL     1     -12.160  12.199  70.533  0.00  0.00    +0.018 A 
ATOM      8  C   UNL     1     -12.237  13.533  70.182  0.00  0.00    +0.091 A 
ATOM      9  C   UNL     1     -11.832  13.890  68.917  0.00  0.00    +0.018 A 
ATOM     10  C   UNL     1     -11.181  12.958  68.126  0.00  0.00    -0.003 A 
BRANCH   8  11
ATOM     11  N   UNL     1     -12.336  14.472  71.259  0.00  0.00    -0.101 NA
BRANCH  11  12
ATOM     12  S   UNL     1     -13.780  14.565  72.219  0.00  0.00    +0.075 S 
ATOM     13  O   UNL     1     -14.106  13.206  72.781  0.00  0.00    -0.153 OA
ATOM     14  O   UNL     1     -13.468  15.502  73.364  0.00  0.00    -0.153 OA
ATOM     15  C   UNL     1     -15.158  15.154  71.284  0.00  0.00    +0.202 C 
ENDBRANCH  11  12
ENDBRANCH   8  11
ENDBRANCH   4   5
ENDBRANCH   3   4
ENDBRANCH   2   3
BRANCH   2  16
ATOM     16  C   UNL     1     -10.344  10.261  64.920  0.00  0.00    +0.120 C 
BRANCH  16  17
ATOM     17  C   UNL     1      -9.618  11.016  63.816  0.00  0.00    +0.223 C 
BRANCH  17  18
ATOM     18  O   UNL     1     -10.271  12.227  63.506  0.00  0.00    -0.474 OA
BRANCH  18  19
ATOM     19  C   UNL     1     -10.677  13.143  64.481  0.00  0.00    +0.139 A 
ATOM     20  C   UNL     1      -9.762  13.708  65.362  0.00  0.00    +0.038 A 
ATOM     21  C   UNL     1      -9.832  15.056  65.689  0.00  0.00    +0.021 A 
ATOM     22  C   UNL     1     -10.905  15.834  65.284  0.00  0.00    +0.091 A 
ATOM     23  C   UNL     1     -12.000  15.136  64.789  0.00  0.00    +0.021 A 
ATOM     24  C   UNL     1     -11.886  13.817  64.372  0.00  0.00    +0.038 A 
BRANCH  22  25
ATOM     25  N   UNL     1     -10.797  17.214  64.990  0.00  0.00    -0.101 NA
BRANCH  25  26
ATOM     26  S   UNL     1     -10.110  18.356  66.068  0.00  0.00    +0.075 S 
ATOM     27  O   UNL     1      -8.624  18.448  65.960  0.00  0.00    -0.153 OA
ATOM     28  O   UNL     1     -10.676  19.708  65.713  0.00  0.00    -0.153 OA
ATOM     29  C   UNL     1     -10.530  18.023  67.755  0.00  0.00    +0.202 C 
ENDBRANCH  25  26
ENDBRANCH  22  25
ENDBRANCH  18  19
ENDBRANCH  17  18
ENDBRANCH  16  17
ENDBRANCH   2  16
TORSDOF 11
ENDMDL
MODEL 4
REMARK VINA RESULT:      -6.5      3.854      7.174
REMARK  Name = 
REMARK  11 active torsions:
REMARK  status: ('A' for Active; 'I' for Inactive)
REMARK    1  A    between atoms: N_2  and  C_3
REMARK    2  A    between atoms: N_2  and  C_17
REMARK    3  A    between atoms: C_3  and  C_4
REMARK    4  A    between atoms: C_4  and  O_5
REMARK    5  A    between atoms: O_5  and  C_6
REMARK    6  A    between atoms: C_9  and  N_10
REMARK    7  A    between atoms: N_10  and  S_11
REMARK    8  A    between atoms: C_17  and  C_18
REMARK    9  A    between atoms: C_18  and  C_19
REMARK   10  A    between atoms: C_22  and  N_23
REMARK   11  A    between atoms: N_23  and  S_24
REMARK                            x       y       z     vdW  Elec       q    Type
REMARK                         _______ _______ _______ _____ _____    ______ ____
ROOT
ATOM      1  C   UNL     1     -12.182   7.252  71.216  0.00  0.00    +0.090 C 
ATOM      2  N   UNL     1     -11.555   8.401  71.859  0.00  0.00    -0.268 NA
ENDROOT
BRANCH   2   3
ATOM      3  C   UNL     1     -11.920   9.578  71.075  0.00  0.00    +0.077 C 
BRANCH   3   4
ATOM      4  C   UNL     1     -12.924  10.445  71.806  0.00  0.00    +0.044 C 
BRANCH   4   5
ATOM      5  C   UNL     1     -12.829  11.848  71.312  0.00  0.00    -0.021 A 
ATOM      6  C   UNL     1     -12.187  12.041  70.106  0.00  0.00    -0.003 A 
ATOM      7  C   UNL     1     -11.843  13.345  69.771  0.00  0.00    +0.018 A 
ATOM      8  C   UNL     1     -12.199  14.431  70.546  0.00  0.00    +0.091 A 
ATOM      9  C   UNL     1     -12.895  14.192  71.708  0.00  0.00    +0.018 A 
ATOM     10  C   UNL     1     -13.385  12.920  71.954  0.00  0.00    -0.003 A 
BRANCH   8  11
ATOM     11  N   UNL     1     -12.184  15.710  69.900  0.00  0.00    -0.101 NA
BRANCH  11  12
ATOM     12  S   UNL     1     -10.789  16.230  69.006  0.00  0.00    +0.075 S 
ATOM     13  O   UNL     1     -10.681  17.732  69.060  0.00  0.00    -0.153 OA
ATOM     14  O   UNL     1      -9.591  15.631  69.706  0.00  0.00    -0.153 OA
ATOM     15  C   UNL     1     -10.856  15.712  67.319  0.00  0.00    +0.202 C 
ENDBRANCH  11  12
ENDBRANCH   8  11
ENDBRANCH   4   5
ENDBRANCH   3   4
ENDBRANCH   2   3
BRANCH   2  16
ATOM     16  C   UNL     1     -10.117   8.232  71.670  0.00  0.00    +0.120 C 
BRANCH  16  17
ATOM     17  C   UNL     1      -9.630   9.307  70.710  0.00  0.00    +0.223 C 
BRANCH  17  18
ATOM     18  O   UNL     1      -9.262   8.757  69.465  0.00  0.00    -0.474 OA
BRANCH  18  19
ATOM     19  C   UNL     1      -9.279   9.491  68.275  0.00  0.00    +0.139 A 
ATOM     20  C   UNL     1      -9.911   9.003  67.137  0.00  0.00    +0.038 A 
ATOM     21  C   UNL     1     -10.673   9.841  66.336  0.00  0.00    +0.021 A 
ATOM     22  C   UNL     1     -10.691  11.211  66.548  0.00  0.00    +0.091 A 
ATOM     23  C   UNL     1      -9.712  11.698  67.405  0.00  0.00    +0.021 A 
ATOM     24  C   UNL     1      -9.029  10.857  68.272  0.00  0.00    +0.038 A 
BRANCH  22  25
ATOM     25  N   UNL     1     -11.818  12.024  66.280  0.00  0.00    -0.101 NA
BRANCH  25  26
ATOM     26  S   UNL     1     -11.998  12.943  64.844  0.00  0.00    +0.075 S 
ATOM     27  O   UNL     1     -12.982  14.057  64.978  0.00  0.00    -0.153 OA
ATOM     28  O   UNL     1     -10.656  13.556  64.530  0.00  0.00    -0.153 OA
ATOM     29  C   UNL     1     -12.469  11.942  63.463  0.00  0.00    +0.202 C 
ENDBRANCH  25  26
ENDBRANCH  22  25
ENDBRANCH  18  19
ENDBRANCH  17  18
ENDBRANCH  16  17
ENDBRANCH   2  16
TORSDOF 11
ENDMDL
MODEL 5
REMARK VINA RESULT:      -6.5      2.997      3.386
REMARK  Name = 
REMARK  11 active torsions:
REMARK  status: ('A' for Active; 'I' for Inactive)
REMARK    1  A    between atoms: N_2  and  C_3
REMARK    2  A    between atoms: N_2  and  C_17
REMARK    3  A    between atoms: C_3  and  C_4
REMARK    4  A    between atoms: C_4  and  O_5
REMARK    5  A    between atoms: O_5  and  C_6
REMARK    6  A    between atoms: C_9  and  N_10
REMARK    7  A    between atoms: N_10  and  S_11
REMARK    8  A    between atoms: C_17  and  C_18
REMARK    9  A    between atoms: C_18  and  C_19
REMARK   10  A    between atoms: C_22  and  N_23
REMARK   11  A    between atoms: N_23  and  S_24
REMARK                            x       y       z     vdW  Elec       q    Type
REMARK                         _______ _______ _______ _____ _____    ______ ____
ROOT
ATOM      1  C   UNL     1     -11.904  12.691  63.634  0.00  0.00    +0.090 C 
ATOM      2  N   UNL     1     -11.066  13.501  64.510  0.00  0.00    -0.268 NA
ENDROOT
BRANCH   2   3
ATOM      3  C   UNL     1     -10.831  12.715  65.719  0.00  0.00    +0.077 C 
BRANCH   3   4
ATOM      4  C   UNL     1     -11.851  13.030  66.794  0.00  0.00    +0.044 C 
BRANCH   4   5
ATOM      5  C   UNL     1     -11.580  12.199  68.001  0.00  0.00    -0.021 A 
ATOM      6  C   UNL     1     -11.017  10.957  67.789  0.00  0.00    -0.003 A 
ATOM      7  C   UNL     1     -11.019  10.068  68.856  0.00  0.00    +0.018 A 
ATOM      8  C   UNL     1     -11.470  10.416  70.114  0.00  0.00    +0.091 A 
ATOM      9  C   UNL     1     -11.964  11.687  70.292  0.00  0.00    +0.018 A 
ATOM     10  C   UNL     1     -11.804  12.622  69.282  0.00  0.00    -0.003 A 
BRANCH   8  11
ATOM     11  N   UNL     1     -11.024   9.597  71.202  0.00  0.00    -0.101 NA
BRANCH  11  12
ATOM     12  S   UNL     1     -12.047   8.350  71.845  0.00  0.00    +0.075 S 
ATOM     13  O   UNL     1     -12.264   7.282  70.805  0.00  0.00    -0.153 OA
ATOM     14  O   UNL     1     -11.297   7.747  73.011  0.00  0.00    -0.153 OA
ATOM     15  C   UNL     1     -13.612   8.982  72.365  0.00  0.00    +0.202 C 
ENDBRANCH  11  12
ENDBRANCH   8  11
ENDBRANCH   4   5
ENDBRANCH   3   4
ENDBRANCH   2   3
BRANCH   2  16
ATOM     16  C   UNL     1     -11.894  14.628  64.927  0.00  0.00    +0.120 C 
BRANCH  16  17
ATOM     17  C   UNL     1     -11.278  15.905  64.376  0.00  0.00    +0.223 C 
BRANCH  17  18
ATOM     18  O   UNL     1     -10.251  16.386  65.216  0.00  0.00    -0.474 OA
BRANCH  18  19
ATOM     19  C   UNL     1     -10.494  17.221  66.311  0.00  0.00    +0.139 A 
ATOM     20  C   UNL     1     -10.319  16.769  67.614  0.00  0.00    +0.038 A 
ATOM     21  C   UNL     1      -9.725  17.580  68.571  0.00  0.00    +0.021 A 
ATOM     22  C   UNL     1      -9.446  18.912  68.306  0.00  0.00    +0.091 A 
ATOM     23  C   UNL     1     -10.034  19.431  67.159  0.00  0.00    +0.021 A 
ATOM     24  C   UNL     1     -10.532  18.602  66.165  0.00  0.00    +0.038 A 
BRANCH  22  25
ATOM     25  N   UNL     1      -8.350  19.603  68.874  0.00  0.00    -0.101 NA
BRANCH  25  26
ATOM     26  S   UNL     1      -6.919  19.977  68.007  0.00  0.00    +0.075 S 
ATOM     27  O   UNL     1      -6.977  21.299  67.317  0.00  0.00    -0.153 OA
ATOM     28  O   UNL     1      -5.789  20.034  69.004  0.00  0.00    -0.153 OA
ATOM     29  C   UNL     1      -6.518  18.737  66.810  0.00  0.00    +0.202 C 
ENDBRANCH  25  26
ENDBRANCH  22  25
ENDBRANCH  18  19
ENDBRANCH  17  18
ENDBRANCH  16  17
ENDBRANCH   2  16
TORSDOF 11
ENDMDL
MODEL 6
REMARK VINA RESULT:      -6.4      4.448      6.805
REMARK  Name = 
REMARK  11 active torsions:
REMARK  status: ('A' for Active; 'I' for Inactive)
REMARK    1  A    between atoms: N_2  and  C_3
REMARK    2  A    between atoms: N_2  and  C_17
REMARK    3  A    between atoms: C_3  and  C_4
REMARK    4  A    between atoms: C_4  and  O_5
REMARK    5  A    between atoms: O_5  and  C_6
REMARK    6  A    between atoms: C_9  and  N_10
REMARK    7  A    between atoms: N_10  and  S_11
REMARK    8  A    between atoms: C_17  and  C_18
REMARK    9  A    between atoms: C_18  and  C_19
REMARK   10  A    between atoms: C_22  and  N_23
REMARK   11  A    between atoms: N_23  and  S_24
REMARK                            x       y       z     vdW  Elec       q    Type
REMARK                         _______ _______ _______ _____ _____    ______ ____
ROOT
ATOM      1  C   UNL     1     -12.475  15.266  73.079  0.00  0.00    +0.090 C 
ATOM      2  N   UNL     1     -13.356  14.637  72.102  0.00  0.00    -0.268 NA
ENDROOT
BRANCH   2   3
ATOM      3  C   UNL     1     -13.153  13.194  72.214  0.00  0.00    +0.077 C 
BRANCH   3   4
ATOM      4  C   UNL     1     -12.640  12.603  70.917  0.00  0.00    +0.044 C 
BRANCH   4   5
ATOM      5  C   UNL     1     -12.471  11.130  71.070  0.00  0.00    -0.021 A 
ATOM      6  C   UNL     1     -13.417  10.470  71.827  0.00  0.00    -0.003 A 
ATOM      7  C   UNL     1     -13.127   9.167  72.212  0.00  0.00    +0.018 A 
ATOM      8  C   UNL     1     -11.992   8.502  71.792  0.00  0.00    +0.091 A 
ATOM      9  C   UNL     1     -11.109   9.182  70.986  0.00  0.00    +0.018 A 
ATOM     10  C   UNL     1     -11.478  10.411  70.464  0.00  0.00    -0.003 A 
BRANCH   8  11
ATOM     11  N   UNL     1     -12.020   7.072  71.880  0.00  0.00    -0.101 NA
BRANCH  11  12
ATOM     12  S   UNL     1     -10.738   6.212  72.675  0.00  0.00    +0.075 S 
ATOM     13  O   UNL     1      -9.583   6.027  71.726  0.00  0.00    -0.153 OA
ATOM     14  O   UNL     1     -10.290   7.087  73.823  0.00  0.00    -0.153 OA
ATOM     15  C   UNL     1     -11.268   4.632  73.260  0.00  0.00    +0.202 C 
ENDBRANCH  11  12
ENDBRANCH   8  11
ENDBRANCH   4   5
ENDBRANCH   3   4
ENDBRANCH   2   3
BRANCH   2  16
ATOM     16  C   UNL     1     -12.831  15.008  70.791  0.00  0.00    +0.120 C 
BRANCH  16  17
ATOM     17  C   UNL     1     -11.653  15.949  70.995  0.00  0.00    +0.223 C 
BRANCH  17  18
ATOM     18  O   UNL     1     -10.490  15.462  70.363  0.00  0.00    -0.474 OA
BRANCH  18  19
ATOM     19  C   UNL     1      -9.936  16.060  69.227  0.00  0.00    +0.139 A 
ATOM     20  C   UNL     1      -8.873  15.473  68.551  0.00  0.00    +0.038 A 
ATOM     21  C   UNL     1      -8.841  15.452  67.163  0.00  0.00    +0.021 A 
ATOM     22  C   UNL     1      -9.772  16.157  66.416  0.00  0.00    +0.091 A 
ATOM     23  C   UNL     1     -10.537  17.076  67.124  0.00  0.00    +0.021 A 
ATOM     24  C   UNL     1     -10.637  17.019  68.507  0.00  0.00    +0.038 A 
BRANCH  22  25
ATOM     25  N   UNL     1     -10.231  15.734  65.147  0.00  0.00    -0.101 NA
BRANCH  25  26
ATOM     26  S   UNL     1     -11.444  14.542  64.933  0.00  0.00    +0.075 S 
ATOM     27  O   UNL     1     -12.564  14.993  64.055  0.00  0.00    -0.153 OA
ATOM     28  O   UNL     1     -10.796  13.353  64.268  0.00  0.00    -0.153 OA
ATOM     29  C   UNL     1     -12.123  13.993  66.472  0.00  0.00    +0.202 C 
ENDBRANCH  25  26
ENDBRANCH  22  25
ENDBRANCH  18  19
ENDBRANCH  17  18
ENDBRANCH  16  17
ENDBRANCH   2  16
TORSDOF 11
ENDMDL
MODEL 7
REMARK VINA RESULT:      -6.4      3.643      6.235
REMARK  Name = 
REMARK  11 active torsions:
REMARK  status: ('A' for Active; 'I' for Inactive)
REMARK    1  A    between atoms: N_2  and  C_3
REMARK    2  A    between atoms: N_2  and  C_17
REMARK    3  A    between atoms: C_3  and  C_4
REMARK    4  A    between atoms: C_4  and  O_5
REMARK    5  A    between atoms: O_5  and  C_6
REMARK    6  A    between atoms: C_9  and  N_10
REMARK    7  A    between atoms: N_10  and  S_11
REMARK    8  A    between atoms: C_17  and  C_18
REMARK    9  A    between atoms: C_18  and  C_19
REMARK   10  A    between atoms: C_22  and  N_23
REMARK   11  A    between atoms: N_23  and  S_24
REMARK                            x       y       z     vdW  Elec       q    Type
REMARK                         _______ _______ _______ _____ _____    ______ ____
ROOT
ATOM      1  C   UNL     1     -12.493  13.700  65.719  0.00  0.00    +0.090 C 
ATOM      2  N   UNL     1     -11.413  12.887  65.174  0.00  0.00    -0.268 NA
ENDROOT
BRANCH   2   3
ATOM      3  C   UNL     1     -10.859  12.115  66.284  0.00  0.00    +0.077 C 
BRANCH   3   4
ATOM      4  C   UNL     1     -11.788  12.117  67.481  0.00  0.00    +0.044 C 
BRANCH   4   5
ATOM      5  C   UNL     1     -11.466  10.962  68.366  0.00  0.00    -0.021 A 
ATOM      6  C   UNL     1     -11.789  11.093  69.701  0.00  0.00    -0.003 A 
ATOM      7  C   UNL     1     -11.249  10.161  70.579  0.00  0.00    +0.018 A 
ATOM      8  C   UNL     1     -10.498   9.084  70.152  0.00  0.00    +0.091 A 
ATOM      9  C   UNL     1     -10.256   8.962  68.804  0.00  0.00    +0.018 A 
ATOM     10  C   UNL     1     -10.932   9.785  67.918  0.00  0.00    -0.003 A 
BRANCH   8  11
ATOM     11  N   UNL     1     -10.378   7.985  71.064  0.00  0.00    -0.101 NA
BRANCH  11  12
ATOM     12  S   UNL     1     -11.571   6.724  71.087  0.00  0.00    +0.075 S 
ATOM     13  O   UNL     1     -12.951   7.328  71.130  0.00  0.00    -0.153 OA
ATOM     14  O   UNL     1     -11.411   5.967  69.789  0.00  0.00    -0.153 OA
ATOM     15  C   UNL     1     -11.365   5.646  72.472  0.00  0.00    +0.202 C 
ENDBRANCH  11  12
ENDBRANCH   8  11
ENDBRANCH   4   5
ENDBRANCH   3   4
ENDBRANCH   2   3
BRANCH   2  16
ATOM     16  C   UNL     1     -10.363  13.823  64.782  0.00  0.00    +0.120 C 
BRANCH  16  17
ATOM     17  C   UNL     1     -10.722  15.199  65.323  0.00  0.00    +0.223 C 
BRANCH  17  18
ATOM     18  O   UNL     1      -9.722  15.689  66.188  0.00  0.00    -0.474 OA
BRANCH  18  19
ATOM     19  C   UNL     1      -9.904  15.813  67.568  0.00  0.00    +0.139 A 
ATOM     20  C   UNL     1     -10.827  16.710  68.094  0.00  0.00    +0.038 A 
ATOM     21  C   UNL     1     -11.634  16.350  69.165  0.00  0.00    +0.021 A 
ATOM     22  C   UNL     1     -11.429  15.159  69.845  0.00  0.00    +0.091 A 
ATOM     23  C   UNL     1     -10.232  14.509  69.571  0.00  0.00    +0.021 A 
ATOM     24  C   UNL     1      -9.489  14.814  68.439  0.00  0.00    +0.038 A 
BRANCH  22  25
ATOM     25  N   UNL     1     -12.473  14.420  70.450  0.00  0.00    -0.101 NA
BRANCH  25  26
ATOM     26  S   UNL     1     -13.310  14.944  71.851  0.00  0.00    +0.075 S 
ATOM     27  O   UNL     1     -14.589  15.651  71.542  0.00  0.00    -0.153 OA
ATOM     28  O   UNL     1     -13.653  13.717  72.657  0.00  0.00    -0.153 OA
ATOM     29  C   UNL     1     -12.319  15.999  72.869  0.00  0.00    +0.202 C 
ENDBRANCH  25  26
ENDBRANCH  22  25
ENDBRANCH  18  19
ENDBRANCH  17  18
ENDBRANCH  16  17
ENDBRANCH   2  16
TORSDOF 11
ENDMDL
MODEL 8
REMARK VINA RESULT:      -6.3      2.584      3.599
REMARK  Name = 
REMARK  11 active torsions:
REMARK  status: ('A' for Active; 'I' for Inactive)
REMARK    1  A    between atoms: N_2  and  C_3
REMARK    2  A    between atoms: N_2  and  C_17
REMARK    3  A    between atoms: C_3  and  C_4
REMARK    4  A    between atoms: C_4  and  O_5
REMARK    5  A    between atoms: O_5  and  C_6
REMARK    6  A    between atoms: C_9  and  N_10
REMARK    7  A    between atoms: N_10  and  S_11
REMARK    8  A    between atoms: C_17  and  C_18
REMARK    9  A    between atoms: C_18  and  C_19
REMARK   10  A    between atoms: C_22  and  N_23
REMARK   11  A    between atoms: N_23  and  S_24
REMARK                            x       y       z     vdW  Elec       q    Type
REMARK                         _______ _______ _______ _____ _____    ______ ____
ROOT
ATOM      1  C   UNL     1      -7.910   9.810  67.941  0.00  0.00    +0.090 C 
ATOM      2  N   UNL     1      -9.167  10.536  68.082  0.00  0.00    -0.268 NA
ENDROOT
BRANCH   2   3
ATOM      3  C   UNL     1      -9.752  10.129  69.357  0.00  0.00    +0.077 C 
BRANCH   3   4
ATOM      4  C   UNL     1     -11.236   9.855  69.226  0.00  0.00    +0.044 C 
BRANCH   4   5
ATOM      5  C   UNL     1     -12.005  10.890  69.972  0.00  0.00    -0.021 A 
ATOM      6  C   UNL     1     -11.839  12.200  69.570  0.00  0.00    -0.003 A 
ATOM      7  C   UNL     1     -12.316  13.191  70.419  0.00  0.00    +0.018 A 
ATOM      8  C   UNL     1     -13.017  12.906  71.575  0.00  0.00    +0.091 A 
ATOM      9  C   UNL     1     -13.212  11.585  71.900  0.00  0.00    +0.018 A 
ATOM     10  C   UNL     1     -12.891  10.605  70.975  0.00  0.00    -0.003 A 
BRANCH   8  11
ATOM     11  N   UNL     1     -13.818  13.965  72.113  0.00  0.00    -0.101 NA
BRANCH  11  12
ATOM     12  S   UNL     1     -13.074  15.326  72.893  0.00  0.00    +0.075 S 
ATOM     13  O   UNL     1     -14.130  16.323  73.294  0.00  0.00    -0.153 OA
ATOM     14  O   UNL     1     -12.413  14.789  74.142  0.00  0.00    -0.153 OA
ATOM     15  C   UNL     1     -11.891  16.120  71.849  0.00  0.00    +0.202 C 
ENDBRANCH  11  12
ENDBRANCH   8  11
ENDBRANCH   4   5
ENDBRANCH   3   4
ENDBRANCH   2   3
BRANCH   2  16
ATOM     16  C   UNL     1     -10.055  10.004  67.053  0.00  0.00    +0.120 C 
BRANCH  16  17
ATOM     17  C   UNL     1     -10.143  11.019  65.923  0.00  0.00    +0.223 C 
BRANCH  17  18
ATOM     18  O   UNL     1      -9.548  12.246  66.286  0.00  0.00    -0.474 OA
BRANCH  18  19
ATOM     19  C   UNL     1     -10.256  13.450  66.327  0.00  0.00    +0.139 A 
ATOM     20  C   UNL     1     -10.266  14.241  67.471  0.00  0.00    +0.038 A 
ATOM     21  C   UNL     1     -10.155  15.621  67.379  0.00  0.00    +0.021 A 
ATOM     22  C   UNL     1     -10.203  16.262  66.151  0.00  0.00    +0.091 A 
ATOM     23  C   UNL     1     -10.633  15.482  65.084  0.00  0.00    +0.021 A 
ATOM     24  C   UNL     1     -10.641  14.096  65.160  0.00  0.00    +0.038 A 
BRANCH  22  25
ATOM     25  N   UNL     1      -9.502  17.459  65.871  0.00  0.00    -0.101 NA
BRANCH  25  26
ATOM     26  S   UNL     1      -9.636  18.875  66.827  0.00  0.00    +0.075 S 
ATOM     27  O   UNL     1      -9.578  20.133  66.026  0.00  0.00    -0.153 OA
ATOM     28  O   UNL     1     -10.980  18.832  67.511  0.00  0.00    -0.153 OA
ATOM     29  C   UNL     1      -8.394  18.954  68.085  0.00  0.00    +0.202 C 
ENDBRANCH  25  26
ENDBRANCH  22  25
ENDBRANCH  18  19
ENDBRANCH  17  18
ENDBRANCH  16  17
ENDBRANCH   2  16
TORSDOF 11
ENDMDL
MODEL 9
REMARK VINA RESULT:      -6.1      2.986      7.941
REMARK  Name = 
REMARK  11 active torsions:
REMARK  status: ('A' for Active; 'I' for Inactive)
REMARK    1  A    between atoms: N_2  and  C_3
REMARK    2  A    between atoms: N_2  and  C_17
REMARK    3  A    between atoms: C_3  and  C_4
REMARK    4  A    between atoms: C_4  and  O_5
REMARK    5  A    between atoms: O_5  and  C_6
REMARK    6  A    between atoms: C_9  and  N_10
REMARK    7  A    between atoms: N_10  and  S_11
REMARK    8  A    between atoms: C_17  and  C_18
REMARK    9  A    between atoms: C_18  and  C_19
REMARK   10  A    between atoms: C_22  and  N_23
REMARK   11  A    between atoms: N_23  and  S_24
REMARK                            x       y       z     vdW  Elec       q    Type
REMARK                         _______ _______ _______ _____ _____    ______ ____
ROOT
ATOM      1  C   UNL     1      -5.684  12.882  67.609  0.00  0.00    +0.090 C 
ATOM      2  N   UNL     1      -6.742  13.848  67.340  0.00  0.00    -0.268 NA
ENDROOT
BRANCH   2   3
ATOM      3  C   UNL     1      -6.451  15.033  68.144  0.00  0.00    +0.077 C 
BRANCH   3   4
ATOM      4  C   UNL     1      -6.159  16.238  67.274  0.00  0.00    +0.044 C 
BRANCH   4   5
ATOM      5  C   UNL     1      -5.927  17.432  68.134  0.00  0.00    -0.021 A 
ATOM      6  C   UNL     1      -7.045  18.063  68.639  0.00  0.00    -0.003 A 
ATOM      7  C   UNL     1      -6.867  19.323  69.198  0.00  0.00    +0.018 A 
ATOM      8  C   UNL     1      -5.622  19.903  69.344  0.00  0.00    +0.091 A 
ATOM      9  C   UNL     1      -4.530  19.206  68.882  0.00  0.00    +0.018 A 
ATOM     10  C   UNL     1      -4.686  17.889  68.485  0.00  0.00    -0.003 A 
BRANCH   8  11
ATOM     11  N   UNL     1      -5.519  20.962  70.303  0.00  0.00    -0.101 NA
BRANCH  11  12
ATOM     12  S   UNL     1      -4.159  21.049  71.379  0.00  0.00    +0.075 S 
ATOM     13  O   UNL     1      -4.323  22.218  72.314  0.00  0.00    -0.153 OA
ATOM     14  O   UNL     1      -4.178  19.772  72.189  0.00  0.00    -0.153 OA
ATOM     15  C   UNL     1      -2.634  21.213  70.503  0.00  0.00    +0.202 C 
ENDBRANCH  11  12
ENDBRANCH   8  11
ENDBRANCH   4   5
ENDBRANCH   3   4
ENDBRANCH   2   3
BRANCH   2  16
ATOM     16  C   UNL     1      -7.960  13.277  67.907  0.00  0.00    +0.120 C 
BRANCH  16  17
ATOM     17  C   UNL     1      -9.073  13.402  66.877  0.00  0.00    +0.223 C 
BRANCH  17  18
ATOM     18  O   UNL     1      -9.557  14.725  66.801  0.00  0.00    -0.474 OA
BRANCH  18  19
ATOM     19  C   UNL     1     -10.566  15.214  67.635  0.00  0.00    +0.139 A 
ATOM     20  C   UNL     1     -11.622  14.404  68.038  0.00  0.00    +0.038 A 
ATOM     21  C   UNL     1     -12.089  14.446  69.344  0.00  0.00    +0.021 A 
ATOM     22  C   UNL     1     -11.634  15.405  70.235  0.00  0.00    +0.091 A 
ATOM     23  C   UNL     1     -10.919  16.455  69.673  0.00  0.00    +0.021 A 
ATOM     24  C   UNL     1     -10.373  16.357  68.400  0.00  0.00    +0.038 A 
BRANCH  22  25
ATOM     25  N   UNL     1     -11.517  15.180  71.627  0.00  0.00    -0.101 NA
BRANCH  25  26
ATOM     26  S   UNL     1     -12.861  14.891  72.651  0.00  0.00    +0.075 S 
ATOM     27  O   UNL     1     -12.519  14.954  74.103  0.00  0.00    -0.153 OA
ATOM     28  O   UNL     1     -13.879  15.970  72.376  0.00  0.00    -0.153 OA
ATOM     29  C   UNL     1     -13.629  13.330  72.324  0.00  0.00    +0.202 C 
ENDBRANCH  25  26
ENDBRANCH  22  25
ENDBRANCH  18  19
ENDBRANCH  17  18
ENDBRANCH  16  17
ENDBRANCH   2  16
TORSDOF 11
ENDMDL
