MODEL 1
REMARK VINA RESULT:      -7.1      0.000      0.000
REMARK  Name = 
REMARK  3 active torsions:
REMARK  status: ('A' for Active; 'I' for Inactive)
REMARK    1  A    between atoms: O_2  and  C_3
REMARK    2  A    between atoms: C_12  and  C_14
REMARK    3  A    between atoms: C_26  and  O_27
REMARK                            x       y       z     vdW  Elec       q    Type
REMARK                         _______ _______ _______ _____ _____    ______ ____
ROOT
ATOM      1  C   UNL     1     -12.929   9.171  71.726  0.00  0.00    +0.174 A 
ATOM      2  C   UNL     1     -11.887   8.299  71.583  0.00  0.00    +0.173 A 
ATOM      3  C   UNL     1     -10.806   8.737  70.828  0.00  0.00    +0.044 A 
ATOM      4  C   UNL     1     -10.906   9.823  69.973  0.00  0.00    +0.056 A 
ATOM      5  C   UNL     1     -12.035  10.619  70.003  0.00  0.00    +0.090 A 
ATOM      6  N   UNL     1     -11.908  11.845  69.470  0.00  0.00    -0.213 NA
ATOM      7  C   UNL     1     -10.698  12.349  69.125  0.00  0.00    +0.221 A 
ATOM      8  N   UNL     1      -9.724  11.477  68.801  0.00  0.00    -0.195 NA
ATOM      9  N   UNL     1     -10.740  13.620  68.462  0.00  0.00    -0.275 N 
ATOM     10  C   UNL     1     -11.242  14.690  69.316  0.00  0.00    +0.115 C 
ATOM     11  C   UNL     1     -11.312  16.016  68.633  0.00  0.00    +0.115 C 
ATOM     12  N   UNL     1     -11.051  15.896  67.213  0.00  0.00    -0.274 N 
ATOM     13  C   UNL     1      -9.855  16.253  66.596  0.00  0.00    +0.253 C 
ATOM     14  O   UNL     1      -9.631  15.950  65.392  0.00  0.00    -0.272 OA
ATOM     15  C   UNL     1     -11.799  14.802  66.592  0.00  0.00    +0.115 C 
ATOM     16  C   UNL     1     -11.055  13.549  67.038  0.00  0.00    +0.115 C 
ATOM     17  C   UNL     1      -9.824  10.187  69.197  0.00  0.00    +0.174 A 
ATOM     18  N   UNL     1      -8.898   9.188  68.772  0.00  0.00    -0.107 NA
ATOM     19  C   UNL     1     -13.043  10.252  70.861  0.00  0.00    +0.059 A 
ENDROOT
BRANCH  13  20
ATOM     20  C   UNL     1      -9.420  17.844  66.711  0.00  0.00    +0.191 C 
ATOM     21  O   UNL     1      -8.217  17.651  65.750  0.00  0.00    -0.347 OA
ATOM     22  C   UNL     1      -7.505  18.775  66.169  0.00  0.00    +0.143 C 
ATOM     23  C   UNL     1      -7.445  18.678  67.685  0.00  0.00    +0.035 C 
ATOM     24  C   UNL     1      -8.430  17.576  68.052  0.00  0.00    +0.042 C 
ENDBRANCH  13  20
BRANCH   1  26
ATOM     25  C   UNL     1     -15.042   8.066  71.855  0.00  0.00    +0.253 C 
ATOM     26  O   UNL     1     -14.007   8.788  72.494  0.00  0.00    -0.468 OA
ENDBRANCH   1  26
BRANCH   2  27
ATOM     27  O   UNL     1     -11.907   6.973  71.945  0.00  0.00    -0.468 OA
ATOM     28  C   UNL     1     -10.974   6.004  71.544  0.00  0.00    +0.253 C 
ENDBRANCH   2  27
TORSDOF 3
ENDMDL
MODEL 2
REMARK VINA RESULT:      -6.8      3.236      3.893
REMARK  Name = 
REMARK  3 active torsions:
REMARK  status: ('A' for Active; 'I' for Inactive)
REMARK    1  A    between atoms: O_2  and  C_3
REMARK    2  A    between atoms: C_12  and  C_14
REMARK    3  A    between atoms: C_26  and  O_27
REMARK                            x       y       z     vdW  Elec       q    Type
REMARK                         _______ _______ _______ _____ _____    ______ ____
ROOT
ATOM      1  C   UNL     1     -10.223   6.836  67.453  0.00  0.00    +0.174 A 
ATOM      2  C   UNL     1      -9.248   6.481  66.564  0.00  0.00    +0.173 A 
ATOM      3  C   UNL     1      -8.639   7.511  65.859  0.00  0.00    +0.044 A 
ATOM      4  C   UNL     1      -9.208   8.773  65.777  0.00  0.00    +0.056 A 
ATOM      5  C   UNL     1     -10.300   9.087  66.564  0.00  0.00    +0.090 A 
ATOM      6  N   UNL     1     -10.543  10.396  66.740  0.00  0.00    -0.213 NA
ATOM      7  C   UNL     1      -9.653  11.343  66.357  0.00  0.00    +0.221 A 
ATOM      8  N   UNL     1      -8.817  11.046  65.344  0.00  0.00    -0.195 NA
ATOM      9  N   UNL     1     -10.109  12.696  66.506  0.00  0.00    -0.275 N 
ATOM     10  C   UNL     1     -10.320  13.074  67.898  0.00  0.00    +0.115 C 
ATOM     11  C   UNL     1     -10.814  14.472  68.069  0.00  0.00    +0.115 C 
ATOM     12  N   UNL     1     -11.163  15.071  66.797  0.00  0.00    -0.274 N 
ATOM     13  C   UNL     1     -10.384  16.008  66.124  0.00  0.00    +0.253 C 
ATOM     14  O   UNL     1     -10.655  16.347  64.939  0.00  0.00    -0.272 OA
ATOM     15  C   UNL     1     -11.978  14.187  65.962  0.00  0.00    +0.115 C 
ATOM     16  C   UNL     1     -10.984  13.160  65.433  0.00  0.00    +0.115 C 
ATOM     17  C   UNL     1      -8.599   9.751  65.017  0.00  0.00    +0.174 A 
ATOM     18  N   UNL     1      -7.835   9.376  63.872  0.00  0.00    -0.107 NA
ATOM     19  C   UNL     1     -10.807   8.094  67.365  0.00  0.00    +0.059 A 
ENDROOT
BRANCH  13  20
ATOM     20  C   UNL     1     -10.118  17.437  66.912  0.00  0.00    +0.191 C 
ATOM     21  O   UNL     1     -10.566  18.272  65.683  0.00  0.00    -0.347 OA
ATOM     22  C   UNL     1      -9.914  19.449  66.053  0.00  0.00    +0.143 C 
ATOM     23  C   UNL     1      -8.483  19.042  66.367  0.00  0.00    +0.035 C 
ATOM     24  C   UNL     1      -8.506  17.520  66.419  0.00  0.00    +0.042 C 
ENDBRANCH  13  20
BRANCH   1  26
ATOM     25  C   UNL     1     -11.243   6.175  69.508  0.00  0.00    +0.253 C 
ATOM     26  O   UNL     1     -10.828   5.846  68.196  0.00  0.00    -0.468 OA
ENDBRANCH   1  26
BRANCH   2  27
ATOM     27  O   UNL     1      -8.969   5.194  66.166  0.00  0.00    -0.468 OA
ATOM     28  C   UNL     1      -9.721   4.444  65.249  0.00  0.00    +0.253 C 
ENDBRANCH   2  27
TORSDOF 3
ENDMDL
MODEL 3
REMARK VINA RESULT:      -6.8      1.925      2.890
REMARK  Name = 
REMARK  3 active torsions:
REMARK  status: ('A' for Active; 'I' for Inactive)
REMARK    1  A    between atoms: O_2  and  C_3
REMARK    2  A    between atoms: C_12  and  C_14
REMARK    3  A    between atoms: C_26  and  O_27
REMARK                            x       y       z     vdW  Elec       q    Type
REMARK                         _______ _______ _______ _____ _____    ______ ____
ROOT
ATOM      1  C   UNL     1     -11.842  10.833  69.788  0.00  0.00    +0.174 A 
ATOM      2  C   UNL     1     -10.820   9.976  69.493  0.00  0.00    +0.173 A 
ATOM      3  C   UNL     1      -9.674  10.536  68.943  0.00  0.00    +0.044 A 
ATOM      4  C   UNL     1      -9.679  11.806  68.388  0.00  0.00    +0.056 A 
ATOM      5  C   UNL     1     -10.782  12.623  68.549  0.00  0.00    +0.090 A 
ATOM      6  N   UNL     1     -10.579  13.936  68.353  0.00  0.00    -0.213 NA
ATOM      7  C   UNL     1      -9.331  14.451  68.223  0.00  0.00    +0.221 A 
ATOM      8  N   UNL     1      -8.365  13.642  67.749  0.00  0.00    -0.195 NA
ATOM      9  N   UNL     1      -9.286  15.849  67.904  0.00  0.00    -0.275 N 
ATOM     10  C   UNL     1      -9.815  16.693  68.969  0.00  0.00    +0.115 C 
ATOM     11  C   UNL     1      -9.794  18.149  68.642  0.00  0.00    +0.115 C 
ATOM     12  N   UNL     1      -9.435  18.378  67.258  0.00  0.00    -0.274 N 
ATOM     13  C   UNL     1      -8.188  18.819  66.827  0.00  0.00    +0.253 C 
ATOM     14  O   UNL     1      -7.887  18.819  65.601  0.00  0.00    -0.272 OA
ATOM     15  C   UNL     1     -10.171  17.513  66.334  0.00  0.00    +0.115 C 
ATOM     16  C   UNL     1      -9.500  16.153  66.492  0.00  0.00    +0.115 C 
ATOM     17  C   UNL     1      -8.533  12.301  67.798  0.00  0.00    +0.174 A 
ATOM     18  N   UNL     1      -7.610  11.397  67.190  0.00  0.00    -0.107 NA
ATOM     19  C   UNL     1     -11.860  12.101  69.222  0.00  0.00    +0.059 A 
ENDROOT
BRANCH  13  20
ATOM     20  C   UNL     1      -7.713  20.308  67.369  0.00  0.00    +0.191 C 
ATOM     21  O   UNL     1      -6.614  20.425  66.279  0.00  0.00    -0.347 OA
ATOM     22  C   UNL     1      -5.842  21.380  66.943  0.00  0.00    +0.143 C 
ATOM     23  C   UNL     1      -5.636  20.833  68.347  0.00  0.00    +0.035 C 
ATOM     24  C   UNL     1      -6.601  19.661  68.462  0.00  0.00    +0.042 C 
ENDBRANCH  13  20
BRANCH   1  26
ATOM     25  C   UNL     1     -13.181  10.560  71.747  0.00  0.00    +0.253 C 
ATOM     26  O   UNL     1     -12.984  10.322  70.366  0.00  0.00    -0.468 OA
ENDBRANCH   1  26
BRANCH   2  27
ATOM     27  O   UNL     1     -10.907   8.604  69.505  0.00  0.00    -0.468 OA
ATOM     28  C   UNL     1     -10.555   7.774  70.580  0.00  0.00    +0.253 C 
ENDBRANCH   2  27
TORSDOF 3
ENDMDL
MODEL 4
REMARK VINA RESULT:      -6.7      2.627      9.403
REMARK  Name = 
REMARK  3 active torsions:
REMARK  status: ('A' for Active; 'I' for Inactive)
REMARK    1  A    between atoms: O_2  and  C_3
REMARK    2  A    between atoms: C_12  and  C_14
REMARK    3  A    between atoms: C_26  and  O_27
REMARK                            x       y       z     vdW  Elec       q    Type
REMARK                         _______ _______ _______ _____ _____    ______ ____
ROOT
ATOM      1  C   UNL     1     -11.782  14.303  68.020  0.00  0.00    +0.174 A 
ATOM      2  C   UNL     1     -11.668  13.957  66.702  0.00  0.00    +0.173 A 
ATOM      3  C   UNL     1     -11.444  12.614  66.427  0.00  0.00    +0.044 A 
ATOM      4  C   UNL     1     -11.003  11.734  67.402  0.00  0.00    +0.056 A 
ATOM      5  C   UNL     1     -10.967  12.136  68.724  0.00  0.00    +0.090 A 
ATOM      6  N   UNL     1     -10.927  11.153  69.639  0.00  0.00    -0.213 NA
ATOM      7  C   UNL     1     -11.131   9.856  69.300  0.00  0.00    +0.221 A 
ATOM      8  N   UNL     1     -10.833   9.482  68.041  0.00  0.00    -0.195 NA
ATOM      9  N   UNL     1     -10.940   8.916  70.367  0.00  0.00    -0.275 N 
ATOM     10  C   UNL     1     -11.915   9.069  71.440  0.00  0.00    +0.115 C 
ATOM     11  C   UNL     1     -11.717   8.112  72.568  0.00  0.00    +0.115 C 
ATOM     12  N   UNL     1     -10.476   7.378  72.429  0.00  0.00    -0.274 N 
ATOM     13  C   UNL     1     -10.383   6.054  72.007  0.00  0.00    +0.253 C 
ATOM     14  O   UNL     1      -9.265   5.538  71.732  0.00  0.00    -0.272 OA
ATOM     15  C   UNL     1      -9.343   8.243  72.101  0.00  0.00    +0.115 C 
ATOM     16  C   UNL     1      -9.546   8.572  70.627  0.00  0.00    +0.115 C 
ATOM     17  C   UNL     1     -10.737  10.421  67.071  0.00  0.00    +0.174 A 
ATOM     18  N   UNL     1     -10.292  10.106  65.752  0.00  0.00    -0.107 NA
ATOM     19  C   UNL     1     -11.328  13.431  69.000  0.00  0.00    +0.059 A 
ENDROOT
BRANCH  13  20
ATOM     20  C   UNL     1     -11.135   4.930  72.959  0.00  0.00    +0.191 C 
ATOM     21  O   UNL     1     -10.186   5.214  74.154  0.00  0.00    -0.347 OA
ATOM     22  C   UNL     1     -10.398   4.000  74.808  0.00  0.00    +0.143 C 
ATOM     23  C   UNL     1     -10.188   2.925  73.753  0.00  0.00    +0.035 C 
ATOM     24  C   UNL     1     -10.139   3.674  72.428  0.00  0.00    +0.042 C 
ENDBRANCH  13  20
BRANCH   1  26
ATOM     25  C   UNL     1     -11.053  16.319  69.071  0.00  0.00    +0.253 C 
ATOM     26  O   UNL     1     -12.037  15.621  68.333  0.00  0.00    -0.468 OA
ENDBRANCH   1  26
BRANCH   2  27
ATOM     27  O   UNL     1     -11.551  14.843  65.657  0.00  0.00    -0.468 OA
ATOM     28  C   UNL     1     -10.385  15.538  65.304  0.00  0.00    +0.253 C 
ENDBRANCH   2  27
TORSDOF 3
ENDMDL
MODEL 5
REMARK VINA RESULT:      -6.5      2.146      2.754
REMARK  Name = 
REMARK  3 active torsions:
REMARK  status: ('A' for Active; 'I' for Inactive)
REMARK    1  A    between atoms: O_2  and  C_3
REMARK    2  A    between atoms: C_12  and  C_14
REMARK    3  A    between atoms: C_26  and  O_27
REMARK                            x       y       z     vdW  Elec       q    Type
REMARK                         _______ _______ _______ _____ _____    ______ ____
ROOT
ATOM      1  C   UNL     1     -10.720   8.707  69.539  0.00  0.00    +0.174 A 
ATOM      2  C   UNL     1     -10.563   8.035  68.359  0.00  0.00    +0.173 A 
ATOM      3  C   UNL     1     -10.191   8.791  67.254  0.00  0.00    +0.044 A 
ATOM      4  C   UNL     1     -10.318  10.172  67.240  0.00  0.00    +0.056 A 
ATOM      5  C   UNL     1     -10.636  10.844  68.405  0.00  0.00    +0.090 A 
ATOM      6  N   UNL     1     -10.352  12.157  68.425  0.00  0.00    -0.213 NA
ATOM      7  C   UNL     1      -9.605  12.738  67.455  0.00  0.00    +0.221 A 
ATOM      8  N   UNL     1      -9.608  12.169  66.234  0.00  0.00    -0.195 NA
ATOM      9  N   UNL     1      -9.489  14.165  67.555  0.00  0.00    -0.275 N 
ATOM     10  C   UNL     1      -8.764  14.593  68.745  0.00  0.00    +0.115 C 
ATOM     11  C   UNL     1      -8.653  16.076  68.875  0.00  0.00    +0.115 C 
ATOM     12  N   UNL     1      -9.466  16.758  67.889  0.00  0.00    -0.274 N 
ATOM     13  C   UNL     1      -8.970  17.367  66.739  0.00  0.00    +0.253 C 
ATOM     14  O   UNL     1      -9.749  17.778  65.835  0.00  0.00    -0.272 OA
ATOM     15  C   UNL     1     -10.820  16.210  67.798  0.00  0.00    +0.115 C 
ATOM     16  C   UNL     1     -10.637  14.902  67.037  0.00  0.00    +0.115 C 
ATOM     17  C   UNL     1      -9.992  10.879  66.101  0.00  0.00    +0.174 A 
ATOM     18  N   UNL     1     -10.148  10.261  64.823  0.00  0.00    -0.107 NA
ATOM     19  C   UNL     1     -10.864  10.088  69.528  0.00  0.00    +0.059 A 
ENDROOT
BRANCH  13  20
ATOM     20  C   UNL     1      -7.913  18.617  66.975  0.00  0.00    +0.191 C 
ATOM     21  O   UNL     1      -8.335  19.307  65.650  0.00  0.00    -0.347 OA
ATOM     22  C   UNL     1      -7.180  20.075  65.503  0.00  0.00    +0.143 C 
ATOM     23  C   UNL     1      -6.021  19.103  65.659  0.00  0.00    +0.035 C 
ATOM     24  C   UNL     1      -6.648  17.821  66.191  0.00  0.00    +0.042 C 
ENDBRANCH  13  20
BRANCH   1  26
ATOM     25  C   UNL     1     -11.650   8.693  71.738  0.00  0.00    +0.253 C 
ATOM     26  O   UNL     1     -11.057   7.987  70.665  0.00  0.00    -0.468 OA
ENDBRANCH   1  26
BRANCH   2  27
ATOM     27  O   UNL     1     -10.937   6.731  68.132  0.00  0.00    -0.468 OA
ATOM     28  C   UNL     1     -10.938   6.089  66.885  0.00  0.00    +0.253 C 
ENDBRANCH   2  27
TORSDOF 3
ENDMDL
MODEL 6
REMARK VINA RESULT:      -6.5      2.738      9.070
REMARK  Name = 
REMARK  3 active torsions:
REMARK  status: ('A' for Active; 'I' for Inactive)
REMARK    1  A    between atoms: O_2  and  C_3
REMARK    2  A    between atoms: C_12  and  C_14
REMARK    3  A    between atoms: C_26  and  O_27
REMARK                            x       y       z     vdW  Elec       q    Type
REMARK                         _______ _______ _______ _____ _____    ______ ____
ROOT
ATOM      1  C   UNL     1     -11.050  12.552  65.016  0.00  0.00    +0.174 A 
ATOM      2  C   UNL     1     -11.454  13.734  65.570  0.00  0.00    +0.173 A 
ATOM      3  C   UNL     1     -11.539  13.779  66.955  0.00  0.00    +0.044 A 
ATOM      4  C   UNL     1     -11.569  12.624  67.721  0.00  0.00    +0.056 A 
ATOM      5  C   UNL     1     -11.316  11.401  67.129  0.00  0.00    +0.090 A 
ATOM      6  N   UNL     1     -10.966  10.405  67.959  0.00  0.00    -0.213 NA
ATOM      7  C   UNL     1     -10.666  10.636  69.261  0.00  0.00    +0.221 A 
ATOM      8  N   UNL     1     -11.225  11.708  69.854  0.00  0.00    -0.195 NA
ATOM      9  N   UNL     1     -10.426   9.457  70.043  0.00  0.00    -0.275 N 
ATOM     10  C   UNL     1      -9.237   8.727  69.620  0.00  0.00    +0.115 C 
ATOM     11  C   UNL     1      -8.985   7.486  70.411  0.00  0.00    +0.115 C 
ATOM     12  N   UNL     1     -10.094   7.184  71.292  0.00  0.00    -0.274 N 
ATOM     13  C   UNL     1     -10.096   7.407  72.666  0.00  0.00    +0.253 C 
ATOM     14  O   UNL     1     -11.156   7.295  73.341  0.00  0.00    -0.272 OA
ATOM     15  C   UNL     1     -11.391   7.277  70.620  0.00  0.00    +0.115 C 
ATOM     16  C   UNL     1     -11.635   8.777  70.499  0.00  0.00    +0.115 C 
ATOM     17  C   UNL     1     -11.713  12.713  69.091  0.00  0.00    +0.174 A 
ATOM     18  N   UNL     1     -12.437  13.808  69.650  0.00  0.00    -0.107 NA
ATOM     19  C   UNL     1     -11.094  11.389  65.774  0.00  0.00    +0.059 A 
ENDROOT
BRANCH  13  20
ATOM     20  C   UNL     1      -8.960   6.582  73.541  0.00  0.00    +0.191 C 
ATOM     21  O   UNL     1      -9.918   6.417  74.750  0.00  0.00    -0.347 OA
ATOM     22  C   UNL     1      -8.924   6.193  75.703  0.00  0.00    +0.143 C 
ATOM     23  C   UNL     1      -7.923   7.323  75.521  0.00  0.00    +0.035 C 
ATOM     24  C   UNL     1      -8.312   7.990  74.209  0.00  0.00    +0.042 C 
ENDBRANCH  13  20
BRANCH   1  26
ATOM     25  C   UNL     1     -10.094  11.456  63.122  0.00  0.00    +0.253 C 
ATOM     26  O   UNL     1     -10.922  12.477  63.646  0.00  0.00    -0.468 OA
ENDBRANCH   1  26
BRANCH   2  27
ATOM     27  O   UNL     1     -11.973  14.800  64.872  0.00  0.00    -0.468 OA
ATOM     28  C   UNL     1     -11.311  16.012  64.625  0.00  0.00    +0.253 C 
ENDBRANCH   2  27
TORSDOF 3
ENDMDL
MODEL 7
REMARK VINA RESULT:      -6.5      3.693      5.366
REMARK  Name = 
REMARK  3 active torsions:
REMARK  status: ('A' for Active; 'I' for Inactive)
REMARK    1  A    between atoms: O_2  and  C_3
REMARK    2  A    between atoms: C_12  and  C_14
REMARK    3  A    between atoms: C_26  and  O_27
REMARK                            x       y       z     vdW  Elec       q    Type
REMARK                         _______ _______ _______ _____ _____    ______ ____
ROOT
ATOM      1  C   UNL     1      -8.952   6.934  74.320  0.00  0.00    +0.174 A 
ATOM      2  C   UNL     1      -9.972   6.025  74.301  0.00  0.00    +0.173 A 
ATOM      3  C   UNL     1     -10.879   6.124  73.255  0.00  0.00    +0.044 A 
ATOM      4  C   UNL     1     -10.976   7.270  72.481  0.00  0.00    +0.056 A 
ATOM      5  C   UNL     1     -10.030   8.269  72.612  0.00  0.00    +0.090 A 
ATOM      6  N   UNL     1      -9.941   9.136  71.589  0.00  0.00    -0.213 NA
ATOM      7  C   UNL     1     -10.581   8.917  70.414  0.00  0.00    +0.221 A 
ATOM      8  N   UNL     1     -11.700   8.169  70.438  0.00  0.00    -0.195 NA
ATOM      9  N   UNL     1     -10.483   9.989  69.465  0.00  0.00    -0.275 N 
ATOM     10  C   UNL     1      -9.120  10.207  68.993  0.00  0.00    +0.115 C 
ATOM     11  C   UNL     1      -8.999  11.333  68.020  0.00  0.00    +0.115 C 
ATOM     12  N   UNL     1     -10.234  12.083  67.919  0.00  0.00    -0.274 N 
ATOM     13  C   UNL     1     -11.133  11.986  66.861  0.00  0.00    +0.253 C 
ATOM     14  O   UNL     1     -12.272  12.525  66.926  0.00  0.00    -0.272 OA
ATOM     15  C   UNL     1     -10.805  12.408  69.227  0.00  0.00    +0.115 C 
ATOM     16  C   UNL     1     -11.409  11.093  69.702  0.00  0.00    +0.115 C 
ATOM     17  C   UNL     1     -11.932   7.349  71.489  0.00  0.00    +0.174 A 
ATOM     18  N   UNL     1     -13.159   6.636  71.639  0.00  0.00    -0.107 NA
ATOM     19  C   UNL     1      -9.052   8.092  73.559  0.00  0.00    +0.059 A 
ENDROOT
BRANCH  13  20
ATOM     20  C   UNL     1     -10.557  12.414  65.371  0.00  0.00    +0.191 C 
ATOM     21  O   UNL     1     -11.987  12.545  64.785  0.00  0.00    -0.347 OA
ATOM     22  C   UNL     1     -11.617  12.406  63.447  0.00  0.00    +0.143 C 
ATOM     23  C   UNL     1     -10.753  11.156  63.391  0.00  0.00    +0.035 C 
ATOM     24  C   UNL     1     -10.455  10.814  64.844  0.00  0.00    +0.042 C 
ENDBRANCH  13  20
BRANCH   1  26
ATOM     25  C   UNL     1      -7.161   7.962  75.519  0.00  0.00    +0.253 C 
ATOM     26  O   UNL     1      -8.012   6.849  75.323  0.00  0.00    -0.468 OA
ENDBRANCH   1  26
BRANCH   2  27
ATOM     27  O   UNL     1     -10.286   5.165  75.328  0.00  0.00    -0.468 OA
ATOM     28  C   UNL     1     -10.152   3.768  75.290  0.00  0.00    +0.253 C 
ENDBRANCH   2  27
TORSDOF 3
ENDMDL
MODEL 8
REMARK VINA RESULT:      -6.5      3.880      8.201
REMARK  Name = 
REMARK  3 active torsions:
REMARK  status: ('A' for Active; 'I' for Inactive)
REMARK    1  A    between atoms: O_2  and  C_3
REMARK    2  A    between atoms: C_12  and  C_14
REMARK    3  A    between atoms: C_26  and  O_27
REMARK                            x       y       z     vdW  Elec       q    Type
REMARK                         _______ _______ _______ _____ _____    ______ ____
ROOT
ATOM      1  C   UNL     1     -11.846  15.189  69.415  0.00  0.00    +0.174 A 
ATOM      2  C   UNL     1     -12.554  14.895  70.546  0.00  0.00    +0.173 A 
ATOM      3  C   UNL     1     -12.502  13.581  70.993  0.00  0.00    +0.044 A 
ATOM      4  C   UNL     1     -12.071  12.549  70.173  0.00  0.00    +0.056 A 
ATOM      5  C   UNL     1     -11.495  12.839  68.950  0.00  0.00    +0.090 A 
ATOM      6  N   UNL     1     -10.752  11.863  68.402  0.00  0.00    -0.213 NA
ATOM      7  C   UNL     1     -10.408  10.753  69.100  0.00  0.00    +0.221 A 
ATOM      8  N   UNL     1     -11.222  10.363  70.099  0.00  0.00    -0.195 NA
ATOM      9  N   UNL     1      -9.714   9.754  68.340  0.00  0.00    -0.275 N 
ATOM     10  C   UNL     1      -8.403  10.198  67.881  0.00  0.00    +0.115 C 
ATOM     11  C   UNL     1      -7.677   9.176  67.071  0.00  0.00    +0.115 C 
ATOM     12  N   UNL     1      -8.525   8.045  66.758  0.00  0.00    -0.274 N 
ATOM     13  C   UNL     1      -8.454   6.805  67.386  0.00  0.00    +0.253 C 
ATOM     14  O   UNL     1      -9.341   5.928  67.195  0.00  0.00    -0.272 OA
ATOM     15  C   UNL     1      -9.844   8.448  66.268  0.00  0.00    +0.115 C 
ATOM     16  C   UNL     1     -10.578   8.906  67.523  0.00  0.00    +0.115 C 
ATOM     17  C   UNL     1     -12.090  11.250  70.638  0.00  0.00    +0.174 A 
ATOM     18  N   UNL     1     -13.069  10.865  71.602  0.00  0.00    -0.107 NA
ATOM     19  C   UNL     1     -11.426  14.159  68.581  0.00  0.00    +0.059 A 
ENDROOT
BRANCH  13  20
ATOM     20  C   UNL     1      -7.025   5.988  67.228  0.00  0.00    +0.191 C 
ATOM     21  O   UNL     1      -7.160   5.921  65.684  0.00  0.00    -0.347 OA
ATOM     22  C   UNL     1      -6.295   4.842  65.501  0.00  0.00    +0.143 C 
ATOM     23  C   UNL     1      -6.767   3.772  66.473  0.00  0.00    +0.035 C 
ATOM     24  C   UNL     1      -7.761   4.477  67.387  0.00  0.00    +0.042 C 
ENDBRANCH  13  20
BRANCH   1  26
ATOM     25  C   UNL     1     -10.739  16.910  68.184  0.00  0.00    +0.253 C 
ATOM     26  O   UNL     1     -11.847  16.488  68.957  0.00  0.00    -0.468 OA
ENDBRANCH   1  26
BRANCH   2  27
ATOM     27  O   UNL     1     -13.465  15.730  71.151  0.00  0.00    -0.468 OA
ATOM     28  C   UNL     1     -14.038  15.530  72.416  0.00  0.00    +0.253 C 
ENDBRANCH   2  27
TORSDOF 3
ENDMDL
MODEL 9
REMARK VINA RESULT:      -6.4      4.368     11.494
REMARK  Name = 
REMARK  3 active torsions:
REMARK  status: ('A' for Active; 'I' for Inactive)
REMARK    1  A    between atoms: O_2  and  C_3
REMARK    2  A    between atoms: C_12  and  C_14
REMARK    3  A    between atoms: C_26  and  O_27
REMARK                            x       y       z     vdW  Elec       q    Type
REMARK                         _______ _______ _______ _____ _____    ______ ____
ROOT
ATOM      1  C   UNL     1      -4.186  19.936  62.788  0.00  0.00    +0.174 A 
ATOM      2  C   UNL     1      -3.772  21.022  63.508  0.00  0.00    +0.173 A 
ATOM      3  C   UNL     1      -4.305  21.167  64.782  0.00  0.00    +0.044 A 
ATOM      4  C   UNL     1      -5.444  20.482  65.178  0.00  0.00    +0.056 A 
ATOM      5  C   UNL     1      -5.961  19.486  64.372  0.00  0.00    +0.090 A 
ATOM      6  N   UNL     1      -6.788  18.612  64.970  0.00  0.00    -0.213 NA
ATOM      7  C   UNL     1      -6.932  18.577  66.317  0.00  0.00    +0.221 A 
ATOM      8  N   UNL     1      -6.702  19.713  67.003  0.00  0.00    -0.195 NA
ATOM      9  N   UNL     1      -7.936  17.670  66.794  0.00  0.00    -0.275 N 
ATOM     10  C   UNL     1      -7.615  16.274  66.522  0.00  0.00    +0.115 C 
ATOM     11  C   UNL     1      -8.661  15.319  66.993  0.00  0.00    +0.115 C 
ATOM     12  N   UNL     1      -9.853  16.012  67.437  0.00  0.00    -0.274 N 
ATOM     13  C   UNL     1     -10.205  16.207  68.770  0.00  0.00    +0.253 C 
ATOM     14  O   UNL     1     -11.154  16.977  69.085  0.00  0.00    -0.272 OA
ATOM     15  C   UNL     1     -10.288  17.044  66.495  0.00  0.00    +0.115 C 
ATOM     16  C   UNL     1      -9.300  18.184  66.716  0.00  0.00    +0.115 C 
ATOM     17  C   UNL     1      -5.974  20.701  66.433  0.00  0.00    +0.174 A 
ATOM     18  N   UNL     1      -5.811  21.978  67.051  0.00  0.00    -0.107 NA
ATOM     19  C   UNL     1      -5.336  19.257  63.171  0.00  0.00    +0.059 A 
ENDROOT
BRANCH  13  20
ATOM     20  C   UNL     1     -10.467  14.840  69.662  0.00  0.00    +0.191 C 
ATOM     21  O   UNL     1     -11.708  14.449  68.816  0.00  0.00    -0.347 OA
ATOM     22  C   UNL     1     -12.288  13.614  69.772  0.00  0.00    +0.143 C 
ATOM     23  C   UNL     1     -12.318  14.426  71.058  0.00  0.00    +0.035 C 
ATOM     24  C   UNL     1     -11.445  15.642  70.780  0.00  0.00    +0.042 C 
ENDBRANCH  13  20
BRANCH   1  26
ATOM     25  C   UNL     1      -4.561  19.622  60.451  0.00  0.00    +0.253 C 
ATOM     26  O   UNL     1      -3.655  19.738  61.532  0.00  0.00    -0.468 OA
ENDBRANCH   1  26
BRANCH   2  27
ATOM     27  O   UNL     1      -3.043  22.074  63.006  0.00  0.00    -0.468 OA
ATOM     28  C   UNL     1      -3.547  23.101  62.193  0.00  0.00    +0.253 C 
ENDBRANCH   2  27
TORSDOF 3
ENDMDL
