MODEL 1
REMARK VINA RESULT:      -5.7      0.000      0.000
REMARK  Name = 
REMARK  2 active torsions:
REMARK  status: ('A' for Active; 'I' for Inactive)
REMARK    1  A    between atoms: C_8  and  N_9
REMARK    2  A    between atoms: C_10  and  C_12
REMARK                            x       y       z     vdW  Elec       q    Type
REMARK                         _______ _______ _______ _____ _____    ______ ____
ROOT
ATOM      1  N   UNL     1     -10.964  13.943  69.035  0.00  0.00    -0.179 NA
ATOM      2  C   UNL     1     -11.413  14.097  67.729  0.00  0.00    +0.260 C 
ATOM      3  O   UNL     1     -12.011  15.115  67.433  0.00  0.00    -0.272 OA
ENDROOT
BRANCH   1   6
ATOM      4  C   UNL     1     -11.164  16.219  70.646  0.00  0.00    +0.032 C 
ATOM      5  C   UNL     1     -12.073  15.385  70.685  0.00  0.00    -0.007 A 
ATOM      6  C   UNL     1     -11.851  14.138  70.114  0.00  0.00    +0.065 A 
ATOM      7  C   UNL     1     -12.424  12.974  70.621  0.00  0.00    -0.007 A 
ATOM      8  C   UNL     1     -11.806  11.628  70.399  0.00  0.00    +0.032 C 
ATOM      9  C   UNL     1     -13.517  13.082  71.465  0.00  0.00    -0.003 A 
ATOM     10  C   UNL     1     -13.989  14.339  71.760  0.00  0.00    -0.001 A 
ATOM     11  C   UNL     1     -13.231  15.461  71.451  0.00  0.00    -0.003 A 
ENDBRANCH   1   6
BRANCH   2  12
ATOM     12  C   UNL     1     -11.522  12.795  66.787  0.00  0.00    +0.137 C 
ATOM     13  N   UNL     1     -10.250  13.205  65.979  0.00  0.00    -0.265 NA
ATOM     14  C   UNL     1      -9.222  13.594  66.781  0.00  0.00    +0.090 C 
ATOM     15  C   UNL     1     -10.420  13.357  64.660  0.00  0.00    +0.073 C 
ATOM     16  C   UNL     1     -11.337  12.340  64.012  0.00  0.00    +0.017 C 
ATOM     17  C   UNL     1     -12.728  12.563  64.594  0.00  0.00    +0.003 C 
ATOM     18  C   UNL     1     -12.559  13.524  65.733  0.00  0.00    +0.025 C 
ENDBRANCH   2  12
TORSDOF 2
ENDMDL
MODEL 2
REMARK VINA RESULT:      -5.5      3.014      6.052
REMARK  Name = 
REMARK  2 active torsions:
REMARK  status: ('A' for Active; 'I' for Inactive)
REMARK    1  A    between atoms: C_8  and  N_9
REMARK    2  A    between atoms: C_10  and  C_12
REMARK                            x       y       z     vdW  Elec       q    Type
REMARK                         _______ _______ _______ _____ _____    ______ ____
ROOT
ATOM      1  N   UNL     1     -10.064  15.496  68.216  0.00  0.00    -0.179 NA
ATOM      2  C   UNL     1     -11.122  15.598  69.112  0.00  0.00    +0.260 C 
ATOM      3  O   UNL     1     -12.039  16.355  68.849  0.00  0.00    -0.272 OA
ENDROOT
BRANCH   1   6
ATOM      4  C   UNL     1     -10.407  16.723  65.728  0.00  0.00    +0.032 C 
ATOM      5  C   UNL     1      -9.838  17.353  66.625  0.00  0.00    -0.007 A 
ATOM      6  C   UNL     1      -9.417  16.660  67.753  0.00  0.00    +0.065 A 
ATOM      7  C   UNL     1      -8.272  17.018  68.462  0.00  0.00    -0.007 A 
ATOM      8  C   UNL     1      -7.517  16.028  69.294  0.00  0.00    +0.032 C 
ATOM      9  C   UNL     1      -7.745  18.287  68.281  0.00  0.00    -0.003 A 
ATOM     10  C   UNL     1      -8.383  19.137  67.411  0.00  0.00    -0.001 A 
ATOM     11  C   UNL     1      -9.349  18.651  66.539  0.00  0.00    -0.003 A 
ENDBRANCH   1   6
BRANCH   2  12
ATOM     12  C   UNL     1     -10.915  15.076  70.621  0.00  0.00    +0.137 C 
ATOM     13  N   UNL     1     -12.052  14.017  70.470  0.00  0.00    -0.265 NA
ATOM     14  C   UNL     1     -11.967  13.317  69.306  0.00  0.00    +0.090 C 
ATOM     15  C   UNL     1     -13.061  14.113  71.346  0.00  0.00    +0.073 C 
ATOM     16  C   UNL     1     -12.647  14.468  72.760  0.00  0.00    +0.017 C 
ATOM     17  C   UNL     1     -12.061  15.874  72.710  0.00  0.00    +0.003 C 
ATOM     18  C   UNL     1     -11.916  16.220  71.259  0.00  0.00    +0.025 C 
ENDBRANCH   2  12
TORSDOF 2
ENDMDL
MODEL 3
REMARK VINA RESULT:      -5.5      1.939      3.247
REMARK  Name = 
REMARK  2 active torsions:
REMARK  status: ('A' for Active; 'I' for Inactive)
REMARK    1  A    between atoms: C_8  and  N_9
REMARK    2  A    between atoms: C_10  and  C_12
REMARK                            x       y       z     vdW  Elec       q    Type
REMARK                         _______ _______ _______ _____ _____    ______ ____
ROOT
ATOM      1  N   UNL     1     -10.547  12.724  68.101  0.00  0.00    -0.179 NA
ATOM      2  C   UNL     1     -10.905  12.435  66.790  0.00  0.00    +0.260 C 
ATOM      3  O   UNL     1     -12.066  12.155  66.550  0.00  0.00    -0.272 OA
ENDROOT
BRANCH   1   6
ATOM      4  C   UNL     1     -12.226  13.276  70.267  0.00  0.00    +0.032 C 
ATOM      5  C   UNL     1     -11.943  12.100  70.022  0.00  0.00    -0.007 A 
ATOM      6  C   UNL     1     -10.901  11.841  69.142  0.00  0.00    +0.065 A 
ATOM      7  C   UNL     1     -10.075  10.727  69.272  0.00  0.00    -0.007 A 
ATOM      8  C   UNL     1      -8.683  10.707  68.720  0.00  0.00    +0.032 C 
ATOM      9  C   UNL     1     -10.506   9.665  70.052  0.00  0.00    -0.003 A 
ATOM     10  C   UNL     1     -11.735   9.761  70.657  0.00  0.00    -0.001 A 
ATOM     11  C   UNL     1     -12.395  10.981  70.714  0.00  0.00    -0.003 A 
ENDBRANCH   1   6
BRANCH   2  12
ATOM     12  C   UNL     1      -9.749  12.058  65.735  0.00  0.00    +0.137 C 
ATOM     13  N   UNL     1     -10.425  12.902  64.608  0.00  0.00    -0.265 NA
ATOM     14  C   UNL     1     -10.819  14.131  65.038  0.00  0.00    +0.090 C 
ATOM     15  C   UNL     1     -10.743  12.236  63.490  0.00  0.00    +0.073 C 
ATOM     16  C   UNL     1      -9.724  11.206  63.048  0.00  0.00    +0.017 C 
ATOM     17  C   UNL     1      -9.688  10.128  64.125  0.00  0.00    +0.003 C 
ATOM     18  C   UNL     1     -10.488  10.657  65.278  0.00  0.00    +0.025 C 
ENDBRANCH   2  12
TORSDOF 2
ENDMDL
MODEL 4
REMARK VINA RESULT:      -5.4      3.074      4.294
REMARK  Name = 
REMARK  2 active torsions:
REMARK  status: ('A' for Active; 'I' for Inactive)
REMARK    1  A    between atoms: C_8  and  N_9
REMARK    2  A    between atoms: C_10  and  C_12
REMARK                            x       y       z     vdW  Elec       q    Type
REMARK                         _______ _______ _______ _____ _____    ______ ____
ROOT
ATOM      1  N   UNL     1     -10.978  11.060  70.061  0.00  0.00    -0.179 NA
ATOM      2  C   UNL     1     -11.123  10.909  68.687  0.00  0.00    +0.260 C 
ATOM      3  O   UNL     1     -12.245  10.804  68.226  0.00  0.00    -0.272 OA
ENDROOT
BRANCH   1   6
ATOM      4  C   UNL     1     -13.147  11.626  71.732  0.00  0.00    +0.032 C 
ATOM      5  C   UNL     1     -12.849  10.446  71.528  0.00  0.00    -0.007 A 
ATOM      6  C   UNL     1     -11.622  10.166  70.941  0.00  0.00    +0.065 A 
ATOM      7  C   UNL     1     -10.896   9.016  71.244  0.00  0.00    -0.007 A 
ATOM      8  C   UNL     1      -9.410   8.952  71.073  0.00  0.00    +0.032 C 
ATOM      9  C   UNL     1     -11.551   7.954  71.847  0.00  0.00    -0.003 A 
ATOM     10  C   UNL     1     -12.892   8.085  72.113  0.00  0.00    -0.001 A 
ATOM     11  C   UNL     1     -13.503   9.330  72.039  0.00  0.00    -0.003 A 
ENDBRANCH   1   6
BRANCH   2  12
ATOM     12  C   UNL     1      -9.848  10.449  67.818  0.00  0.00    +0.137 C 
ATOM     13  N   UNL     1     -10.178  11.474  66.688  0.00  0.00    -0.265 NA
ATOM     14  C   UNL     1     -10.480  12.709  67.171  0.00  0.00    +0.090 C 
ATOM     15  C   UNL     1     -10.363  10.957  65.466  0.00  0.00    +0.073 C 
ATOM     16  C   UNL     1      -9.425   9.824  65.103  0.00  0.00    +0.017 C 
ATOM     17  C   UNL     1      -9.738   8.669  66.046  0.00  0.00    +0.003 C 
ATOM     18  C   UNL     1     -10.666   9.216  67.090  0.00  0.00    +0.025 C 
ENDBRANCH   2  12
TORSDOF 2
ENDMDL
MODEL 5
REMARK VINA RESULT:      -5.4      2.982      5.158
REMARK  Name = 
REMARK  2 active torsions:
REMARK  status: ('A' for Active; 'I' for Inactive)
REMARK    1  A    between atoms: C_8  and  N_9
REMARK    2  A    between atoms: C_10  and  C_12
REMARK                            x       y       z     vdW  Elec       q    Type
REMARK                         _______ _______ _______ _____ _____    ______ ____
ROOT
ATOM      1  N   UNL     1     -11.419  15.667  67.612  0.00  0.00    -0.179 NA
ATOM      2  C   UNL     1     -10.138  16.166  67.410  0.00  0.00    +0.260 C 
ATOM      3  O   UNL     1      -9.478  15.723  66.486  0.00  0.00    -0.272 OA
ENDROOT
BRANCH   1   6
ATOM      4  C   UNL     1     -12.512  14.039  65.619  0.00  0.00    +0.032 C 
ATOM      5  C   UNL     1     -11.924  13.505  66.564  0.00  0.00    -0.007 A 
ATOM      6  C   UNL     1     -11.633  14.275  67.682  0.00  0.00    +0.065 A 
ATOM      7  C   UNL     1     -11.613  13.743  68.969  0.00  0.00    -0.007 A 
ATOM      8  C   UNL     1     -11.844  14.593  70.179  0.00  0.00    +0.032 C 
ATOM      9  C   UNL     1     -11.513  12.369  69.120  0.00  0.00    -0.003 A 
ATOM     10  C   UNL     1     -11.433  11.595  67.988  0.00  0.00    -0.001 A 
ATOM     11  C   UNL     1     -11.722  12.141  66.744  0.00  0.00    -0.003 A 
ENDBRANCH   1   6
BRANCH   2  12
ATOM     12  C   UNL     1      -9.414  16.958  68.610  0.00  0.00    +0.137 C 
ATOM     13  N   UNL     1      -9.314  18.265  67.761  0.00  0.00    -0.265 NA
ATOM     14  C   UNL     1     -10.476  18.564  67.120  0.00  0.00    +0.090 C 
ATOM     15  C   UNL     1      -8.080  18.752  67.582  0.00  0.00    +0.073 C 
ATOM     16  C   UNL     1      -7.173  18.657  68.792  0.00  0.00    +0.017 C 
ATOM     17  C   UNL     1      -6.952  17.174  69.065  0.00  0.00    +0.003 C 
ATOM     18  C   UNL     1      -7.911  16.435  68.181  0.00  0.00    +0.025 C 
ENDBRANCH   2  12
TORSDOF 2
ENDMDL
MODEL 6
REMARK VINA RESULT:      -5.4      3.403      5.207
REMARK  Name = 
REMARK  2 active torsions:
REMARK  status: ('A' for Active; 'I' for Inactive)
REMARK    1  A    between atoms: C_8  and  N_9
REMARK    2  A    between atoms: C_10  and  C_12
REMARK                            x       y       z     vdW  Elec       q    Type
REMARK                         _______ _______ _______ _____ _____    ______ ____
ROOT
ATOM      1  N   UNL     1      -9.815  16.955  65.787  0.00  0.00    -0.179 NA
ATOM      2  C   UNL     1     -10.490  15.859  66.311  0.00  0.00    +0.260 C 
ATOM      3  O   UNL     1     -11.359  16.051  67.143  0.00  0.00    -0.272 OA
ENDROOT
BRANCH   1   6
ATOM      4  C   UNL     1     -10.563  19.637  66.033  0.00  0.00    +0.032 C 
ATOM      5  C   UNL     1      -9.847  19.140  66.907  0.00  0.00    -0.007 A 
ATOM      6  C   UNL     1      -9.247  17.914  66.651  0.00  0.00    +0.065 A 
ATOM      7  C   UNL     1      -7.998  17.575  67.164  0.00  0.00    -0.007 A 
ATOM      8  C   UNL     1      -7.120  16.559  66.500  0.00  0.00    +0.032 C 
ATOM      9  C   UNL     1      -7.500  18.296  68.238  0.00  0.00    -0.003 A 
ATOM     10  C   UNL     1      -8.269  19.312  68.750  0.00  0.00    -0.001 A 
ATOM     11  C   UNL     1      -9.371  19.780  68.046  0.00  0.00    -0.003 A 
ENDBRANCH   1   6
BRANCH   2  12
ATOM     12  C   UNL     1      -9.839  14.396  66.149  0.00  0.00    +0.137 C 
ATOM     13  N   UNL     1     -11.167  13.807  65.577  0.00  0.00    -0.265 NA
ATOM     14  C   UNL     1     -11.727  14.601  64.625  0.00  0.00    +0.090 C 
ATOM     15  C   UNL     1     -11.687  12.774  66.253  0.00  0.00    +0.073 C 
ATOM     16  C   UNL     1     -10.672  11.778  66.777  0.00  0.00    +0.017 C 
ATOM     17  C   UNL     1      -9.825  12.510  67.811  0.00  0.00    +0.003 C 
ATOM     18  C   UNL     1     -10.186  13.961  67.700  0.00  0.00    +0.025 C 
ENDBRANCH   2  12
TORSDOF 2
ENDMDL
MODEL 7
REMARK VINA RESULT:      -5.3      2.551      4.914
REMARK  Name = 
REMARK  2 active torsions:
REMARK  status: ('A' for Active; 'I' for Inactive)
REMARK    1  A    between atoms: C_8  and  N_9
REMARK    2  A    between atoms: C_10  and  C_12
REMARK                            x       y       z     vdW  Elec       q    Type
REMARK                         _______ _______ _______ _____ _____    ______ ____
ROOT
ATOM      1  N   UNL     1     -11.793  11.102  68.046  0.00  0.00    -0.179 NA
ATOM      2  C   UNL     1     -11.197  12.331  67.793  0.00  0.00    +0.260 C 
ATOM      3  O   UNL     1     -10.069  12.350  67.334  0.00  0.00    -0.272 OA
ENDROOT
BRANCH   1   6
ATOM      4  C   UNL     1     -10.585   8.779  67.067  0.00  0.00    +0.032 C 
ATOM      5  C   UNL     1     -10.310   9.151  68.211  0.00  0.00    -0.007 A 
ATOM      6  C   UNL     1     -11.107  10.125  68.798  0.00  0.00    +0.065 A 
ATOM      7  C   UNL     1     -11.355  10.158  70.168  0.00  0.00    -0.007 A 
ATOM      8  C   UNL     1     -12.580  10.809  70.733  0.00  0.00    +0.032 C 
ATOM      9  C   UNL     1     -10.516   9.452  71.014  0.00  0.00    -0.003 A 
ATOM     10  C   UNL     1      -9.472   8.753  70.459  0.00  0.00    -0.001 A 
ATOM     11  C   UNL     1      -9.425   8.535  69.089  0.00  0.00    -0.003 A 
ENDBRANCH   1   6
BRANCH   2  12
ATOM     12  C   UNL     1     -11.803  13.647  68.495  0.00  0.00    +0.137 C 
ATOM     13  N   UNL     1     -11.741  14.455  67.160  0.00  0.00    -0.265 NA
ATOM     14  C   UNL     1     -12.225  13.754  66.099  0.00  0.00    +0.090 C 
ATOM     15  C   UNL     1     -11.016  15.581  67.191  0.00  0.00    +0.073 C 
ATOM     16  C   UNL     1     -11.143  16.387  68.468  0.00  0.00    +0.017 C 
ATOM     17  C   UNL     1     -10.558  15.537  69.589  0.00  0.00    +0.003 C 
ATOM     18  C   UNL     1     -10.328  14.174  69.009  0.00  0.00    +0.025 C 
ENDBRANCH   2  12
TORSDOF 2
ENDMDL
MODEL 8
REMARK VINA RESULT:      -5.2      3.220      5.111
REMARK  Name = 
REMARK  2 active torsions:
REMARK  status: ('A' for Active; 'I' for Inactive)
REMARK    1  A    between atoms: C_8  and  N_9
REMARK    2  A    between atoms: C_10  and  C_12
REMARK                            x       y       z     vdW  Elec       q    Type
REMARK                         _______ _______ _______ _____ _____    ______ ____
ROOT
ATOM      1  N   UNL     1     -11.390  10.495  70.771  0.00  0.00    -0.179 NA
ATOM      2  C   UNL     1     -11.691  11.010  69.516  0.00  0.00    +0.260 C 
ATOM      3  O   UNL     1     -12.746  10.697  68.994  0.00  0.00    -0.272 OA
ENDROOT
BRANCH   1   6
ATOM      4  C   UNL     1     -13.378   9.174  72.225  0.00  0.00    +0.032 C 
ATOM      5  C   UNL     1     -12.633   8.507  71.501  0.00  0.00    -0.007 A 
ATOM      6  C   UNL     1     -11.482   9.108  71.007  0.00  0.00    +0.065 A 
ATOM      7  C   UNL     1     -10.306   8.395  70.786  0.00  0.00    -0.007 A 
ATOM      8  C   UNL     1      -8.966   9.063  70.788  0.00  0.00    +0.032 C 
ATOM      9  C   UNL     1     -10.371   7.014  70.698  0.00  0.00    -0.003 A 
ATOM     10  C   UNL     1     -11.598   6.411  70.829  0.00  0.00    -0.001 A 
ATOM     11  C   UNL     1     -12.684   7.131  71.308  0.00  0.00    -0.003 A 
ENDBRANCH   1   6
BRANCH   2  12
ATOM     12  C   UNL     1     -10.501  11.625  68.623  0.00  0.00    +0.137 C 
ATOM     13  N   UNL     1     -11.293  12.947  68.377  0.00  0.00    -0.265 NA
ATOM     14  C   UNL     1     -11.851  13.445  69.514  0.00  0.00    +0.090 C 
ATOM     15  C   UNL     1     -11.524  13.261  67.095  0.00  0.00    +0.073 C 
ATOM     16  C   UNL     1     -10.375  12.971  66.150  0.00  0.00    +0.017 C 
ATOM     17  C   UNL     1     -10.183  11.460  66.135  0.00  0.00    +0.003 C 
ATOM     18  C   UNL     1     -11.041  10.914  67.237  0.00  0.00    +0.025 C 
ENDBRANCH   2  12
TORSDOF 2
ENDMDL
MODEL 9
REMARK VINA RESULT:      -5.2      2.598      4.536
REMARK  Name = 
REMARK  2 active torsions:
REMARK  status: ('A' for Active; 'I' for Inactive)
REMARK    1  A    between atoms: C_8  and  N_9
REMARK    2  A    between atoms: C_10  and  C_12
REMARK                            x       y       z     vdW  Elec       q    Type
REMARK                         _______ _______ _______ _____ _____    ______ ____
ROOT
ATOM      1  N   UNL     1     -11.852  13.470  68.008  0.00  0.00    -0.179 NA
ATOM      2  C   UNL     1     -11.012  12.367  68.101  0.00  0.00    +0.260 C 
ATOM      3  O   UNL     1      -9.865  12.537  68.473  0.00  0.00    -0.272 OA
ENDROOT
BRANCH   1   6
ATOM      4  C   UNL     1     -11.400  16.015  69.071  0.00  0.00    +0.032 C 
ATOM      5  C   UNL     1     -10.976  15.763  67.940  0.00  0.00    -0.007 A 
ATOM      6  C   UNL     1     -11.436  14.618  67.302  0.00  0.00    +0.065 A 
ATOM      7  C   UNL     1     -11.599  14.549  65.921  0.00  0.00    -0.007 A 
ATOM      8  C   UNL     1     -12.561  13.593  65.285  0.00  0.00    +0.032 C 
ATOM      9  C   UNL     1     -10.954  15.484  65.127  0.00  0.00    -0.003 A 
ATOM     10  C   UNL     1     -10.178  16.435  65.743  0.00  0.00    -0.001 A 
ATOM     11  C   UNL     1     -10.260  16.624  67.116  0.00  0.00    -0.003 A 
ENDBRANCH   1   6
BRANCH   2  12
ATOM     12  C   UNL     1     -11.416  11.015  67.325  0.00  0.00    +0.137 C 
ATOM     13  N   UNL     1     -11.247  10.157  68.618  0.00  0.00    -0.265 NA
ATOM     14  C   UNL     1     -11.834  10.725  69.706  0.00  0.00    +0.090 C 
ATOM     15  C   UNL     1     -10.366   9.151  68.541  0.00  0.00    +0.073 C 
ATOM     16  C   UNL     1     -10.365   8.402  67.223  0.00  0.00    +0.017 C 
ATOM     17  C   UNL     1      -9.903   9.386  66.155  0.00  0.00    +0.003 C 
ATOM     18  C   UNL     1      -9.877  10.736  66.806  0.00  0.00    +0.025 C 
ENDBRANCH   2  12
TORSDOF 2
ENDMDL
