MODEL 1
REMARK VINA RESULT:      -7.9      0.000      0.000
REMARK  Name = 
REMARK  6 active torsions:
REMARK  status: ('A' for Active; 'I' for Inactive)
REMARK    1  A    between atoms: C_2  and  C_3
REMARK    2  A    between atoms: C_2  and  C_19
REMARK    3  A    between atoms: C_3  and  N_4
REMARK    4  A    between atoms: N_4  and  C_5
REMARK    5  A    between atoms: C_5  and  C_6
REMARK    6  A    between atoms: C_6  and  C_8
REMARK                            x       y       z     vdW  Elec       q    Type
REMARK                         _______ _______ _______ _____ _____    ______ ____
ROOT
ATOM      1  N   UNL     1      -9.688  15.335  65.241  0.00  0.00    -0.212 NA
ENDROOT
BRANCH   1   2
ATOM      2  C   UNL     1     -10.283  14.037  65.305  0.00  0.00    +0.125 C 
BRANCH   2   4
ATOM      3  O   UNL     1     -12.287  13.053  65.672  0.00  0.00    -0.218 OA
ATOM      4  C   UNL     1     -11.526  14.156  66.399  0.00  0.00    +0.209 C 
BRANCH   4   5
ATOM      5  C   UNL     1     -10.710  13.106  67.547  0.00  0.00    +0.198 C 
ATOM      6  O   UNL     1     -10.780  14.223  68.610  0.00  0.00    -0.477 OA
ATOM      7  C   UNL     1     -11.646  14.185  69.628  0.00  0.00    +0.135 A 
ATOM      8  C   UNL     1     -11.811  12.971  70.285  0.00  0.00    +0.014 A 
ATOM      9  C   UNL     1     -12.796  12.963  71.259  0.00  0.00    +0.028 A 
ATOM     10  C   UNL     1     -13.471  14.112  71.641  0.00  0.00    +0.140 A 
ATOM     11  C   UNL     1     -13.263  15.293  70.948  0.00  0.00    +0.033 A 
ATOM     12  F   UNL     1     -14.543  14.084  72.477  0.00  0.00    -0.204 F 
ATOM     13  C   UNL     1     -11.618  11.793  69.377  0.00  0.00    +0.033 C 
ATOM     14  C   UNL     1     -12.070  15.360  70.237  0.00  0.00    +0.039 A 
ATOM     15  C   UNL     1     -12.067  12.300  68.051  0.00  0.00    +0.051 C 
ENDBRANCH   4   5
ENDBRANCH   2   4
ENDBRANCH   1   2
BRANCH   1  16
ATOM     16  C   UNL     1     -10.368  16.396  65.885  0.00  0.00    +0.125 C 
BRANCH  16  17
ATOM     17  C   UNL     1      -9.187  17.317  66.609  0.00  0.00    +0.209 C 
ATOM     18  O   UNL     1      -8.779  16.151  67.505  0.00  0.00    -0.218 OA
BRANCH  17  19
ATOM     19  C   UNL     1     -10.322  17.998  67.766  0.00  0.00    +0.198 C 
ATOM     20  O   UNL     1      -9.253  18.565  68.723  0.00  0.00    -0.477 OA
ATOM     21  C   UNL     1      -8.134  19.140  68.261  0.00  0.00    +0.135 A 
ATOM     22  C   UNL     1      -8.335  20.337  67.574  0.00  0.00    +0.014 A 
ATOM     23  C   UNL     1      -7.292  20.775  66.823  0.00  0.00    +0.028 A 
ATOM     24  C   UNL     1      -6.012  20.394  67.215  0.00  0.00    +0.140 A 
ATOM     25  C   UNL     1      -5.850  19.590  68.342  0.00  0.00    +0.033 A 
ATOM     26  F   UNL     1      -4.893  21.060  66.851  0.00  0.00    -0.204 F 
ATOM     27  C   UNL     1      -9.781  20.482  67.315  0.00  0.00    +0.033 C 
ATOM     28  C   UNL     1      -6.978  19.174  69.044  0.00  0.00    +0.039 A 
ATOM     29  C   UNL     1     -10.488  19.353  66.832  0.00  0.00    +0.051 C 
ENDBRANCH  17  19
ENDBRANCH  16  17
ENDBRANCH   1  16
TORSDOF 6
ENDMDL
MODEL 2
REMARK VINA RESULT:      -7.8      4.209      6.079
REMARK  Name = 
REMARK  6 active torsions:
REMARK  status: ('A' for Active; 'I' for Inactive)
REMARK    1  A    between atoms: C_2  and  C_3
REMARK    2  A    between atoms: C_2  and  C_19
REMARK    3  A    between atoms: C_3  and  N_4
REMARK    4  A    between atoms: N_4  and  C_5
REMARK    5  A    between atoms: C_5  and  C_6
REMARK    6  A    between atoms: C_6  and  C_8
REMARK                            x       y       z     vdW  Elec       q    Type
REMARK                         _______ _______ _______ _____ _____    ______ ____
ROOT
ATOM      1  N   UNL     1     -10.228  12.074  67.324  0.00  0.00    -0.212 NA
ENDROOT
BRANCH   1   2
ATOM      2  C   UNL     1      -9.374  10.928  67.355  0.00  0.00    +0.125 C 
BRANCH   2   4
ATOM      3  O   UNL     1      -9.563   8.807  66.590  0.00  0.00    -0.218 OA
ATOM      4  C   UNL     1     -10.369   9.621  67.596  0.00  0.00    +0.209 C 
BRANCH   4   5
ATOM      5  C   UNL     1      -9.474   9.112  69.020  0.00  0.00    +0.198 C 
ATOM      6  O   UNL     1     -10.245  10.147  69.867  0.00  0.00    -0.477 OA
ATOM      7  C   UNL     1     -11.223   9.791  70.708  0.00  0.00    +0.135 A 
ATOM      8  C   UNL     1     -11.008   8.672  71.505  0.00  0.00    +0.014 A 
ATOM      9  C   UNL     1     -12.093   8.289  72.277  0.00  0.00    +0.028 A 
ATOM     10  C   UNL     1     -13.255   9.042  72.351  0.00  0.00    +0.140 A 
ATOM     11  C   UNL     1     -13.409  10.148  71.532  0.00  0.00    +0.033 A 
ATOM     12  F   UNL     1     -14.375   8.593  72.977  0.00  0.00    -0.204 F 
ATOM     13  C   UNL     1     -10.138   7.648  70.839  0.00  0.00    +0.033 C 
ATOM     14  C   UNL     1     -12.226  10.692  71.043  0.00  0.00    +0.039 A 
ATOM     15  C   UNL     1     -10.443   7.822  69.392  0.00  0.00    +0.051 C 
ENDBRANCH   4   5
ENDBRANCH   2   4
ENDBRANCH   1   2
BRANCH   1  16
ATOM     16  C   UNL     1      -9.838  13.198  68.091  0.00  0.00    +0.125 C 
BRANCH  16  17
ATOM     17  C   UNL     1     -11.127  13.536  69.086  0.00  0.00    +0.209 C 
ATOM     18  O   UNL     1     -12.061  12.699  68.219  0.00  0.00    -0.218 OA
BRANCH  17  19
ATOM     19  C   UNL     1     -11.470  15.046  68.253  0.00  0.00    +0.198 C 
ATOM     20  O   UNL     1     -12.694  15.427  69.112  0.00  0.00    -0.477 OA
ATOM     21  C   UNL     1     -12.713  15.217  70.436  0.00  0.00    +0.135 A 
ATOM     22  C   UNL     1     -11.805  15.989  71.160  0.00  0.00    +0.014 A 
ATOM     23  C   UNL     1     -11.564  15.584  72.434  0.00  0.00    +0.028 A 
ATOM     24  C   UNL     1     -12.573  14.881  73.088  0.00  0.00    +0.140 A 
ATOM     25  C   UNL     1     -13.770  14.622  72.424  0.00  0.00    +0.033 A 
ATOM     26  F   UNL     1     -12.660  14.785  74.434  0.00  0.00    -0.204 F 
ATOM     27  C   UNL     1     -10.877  16.628  70.206  0.00  0.00    +0.033 C 
ATOM     28  C   UNL     1     -13.924  15.060  71.112  0.00  0.00    +0.039 A 
ATOM     29  C   UNL     1     -10.336  15.829  69.168  0.00  0.00    +0.051 C 
ENDBRANCH  17  19
ENDBRANCH  16  17
ENDBRANCH   1  16
TORSDOF 6
ENDMDL
MODEL 3
REMARK VINA RESULT:      -7.8      3.024      8.079
REMARK  Name = 
REMARK  6 active torsions:
REMARK  status: ('A' for Active; 'I' for Inactive)
REMARK    1  A    between atoms: C_2  and  C_3
REMARK    2  A    between atoms: C_2  and  C_19
REMARK    3  A    between atoms: C_3  and  N_4
REMARK    4  A    between atoms: N_4  and  C_5
REMARK    5  A    between atoms: C_5  and  C_6
REMARK    6  A    between atoms: C_6  and  C_8
REMARK                            x       y       z     vdW  Elec       q    Type
REMARK                         _______ _______ _______ _____ _____    ______ ____
ROOT
ATOM      1  N   UNL     1     -10.781  18.601  67.697  0.00  0.00    -0.212 NA
ENDROOT
BRANCH   1   2
ATOM      2  C   UNL     1      -9.866  19.537  67.123  0.00  0.00    +0.125 C 
BRANCH   2   4
ATOM      3  O   UNL     1      -8.443  18.401  65.780  0.00  0.00    -0.218 OA
ATOM      4  C   UNL     1      -8.364  18.839  67.239  0.00  0.00    +0.209 C 
BRANCH   4   5
ATOM      5  C   UNL     1      -7.552  20.369  66.938  0.00  0.00    +0.198 C 
ATOM      6  O   UNL     1      -7.329  20.541  68.456  0.00  0.00    -0.477 OA
ATOM      7  C   UNL     1      -6.135  20.348  69.027  0.00  0.00    +0.135 A 
ATOM      8  C   UNL     1      -5.021  20.869  68.378  0.00  0.00    +0.014 A 
ATOM      9  C   UNL     1      -3.805  20.548  68.957  0.00  0.00    +0.028 A 
ATOM     10  C   UNL     1      -3.712  19.873  70.165  0.00  0.00    +0.140 A 
ATOM     11  C   UNL     1      -4.859  19.379  70.764  0.00  0.00    +0.033 A 
ATOM     12  F   UNL     1      -2.530  19.418  70.656  0.00  0.00    -0.204 F 
ATOM     13  C   UNL     1      -5.182  20.892  66.887  0.00  0.00    +0.033 C 
ATOM     14  C   UNL     1      -6.045  19.987  70.366  0.00  0.00    +0.039 A 
ATOM     15  C   UNL     1      -6.062  19.722  66.615  0.00  0.00    +0.051 C 
ENDBRANCH   4   5
ENDBRANCH   2   4
ENDBRANCH   1   2
BRANCH   1  16
ATOM     16  C   UNL     1     -10.238  17.559  68.485  0.00  0.00    +0.125 C 
BRANCH  16  17
ATOM     17  C   UNL     1     -11.009  16.169  67.992  0.00  0.00    +0.209 C 
ATOM     18  O   UNL     1     -12.017  16.284  69.131  0.00  0.00    -0.218 OA
BRANCH  17  19
ATOM     19  C   UNL     1      -9.895  15.145  68.887  0.00  0.00    +0.198 C 
ATOM     20  O   UNL     1     -10.484  13.805  68.398  0.00  0.00    -0.477 OA
ATOM     21  C   UNL     1     -10.888  13.638  67.131  0.00  0.00    +0.135 A 
ATOM     22  C   UNL     1      -9.865  13.680  66.185  0.00  0.00    +0.014 A 
ATOM     23  C   UNL     1     -10.254  13.841  64.893  0.00  0.00    +0.028 A 
ATOM     24  C   UNL     1     -11.523  13.385  64.543  0.00  0.00    +0.140 A 
ATOM     25  C   UNL     1     -12.331  12.794  65.510  0.00  0.00    +0.033 A 
ATOM     26  F   UNL     1     -11.883  13.092  63.273  0.00  0.00    -0.204 F 
ATOM     27  C   UNL     1      -8.643  14.179  66.846  0.00  0.00    +0.033 C 
ATOM     28  C   UNL     1     -11.856  12.684  66.814  0.00  0.00    +0.039 A 
ATOM     29  C   UNL     1      -8.760  15.307  67.696  0.00  0.00    +0.051 C 
ENDBRANCH  17  19
ENDBRANCH  16  17
ENDBRANCH   1  16
TORSDOF 6
ENDMDL
MODEL 4
REMARK VINA RESULT:      -7.8      2.935      4.393
REMARK  Name = 
REMARK  6 active torsions:
REMARK  status: ('A' for Active; 'I' for Inactive)
REMARK    1  A    between atoms: C_2  and  C_3
REMARK    2  A    between atoms: C_2  and  C_19
REMARK    3  A    between atoms: C_3  and  N_4
REMARK    4  A    between atoms: N_4  and  C_5
REMARK    5  A    between atoms: C_5  and  C_6
REMARK    6  A    between atoms: C_6  and  C_8
REMARK                            x       y       z     vdW  Elec       q    Type
REMARK                         _______ _______ _______ _____ _____    ______ ____
ROOT
ATOM      1  N   UNL     1     -10.954  18.143  67.664  0.00  0.00    -0.212 NA
ENDROOT
BRANCH   1   2
ATOM      2  C   UNL     1     -10.501  17.204  68.643  0.00  0.00    +0.125 C 
BRANCH   2   4
ATOM      3  O   UNL     1      -8.585  16.018  68.848  0.00  0.00    -0.218 OA
ATOM      4  C   UNL     1      -9.696  16.020  67.803  0.00  0.00    +0.209 C 
BRANCH   4   5
ATOM      5  C   UNL     1     -10.657  14.746  68.537  0.00  0.00    +0.198 C 
ATOM      6  O   UNL     1     -11.683  14.868  67.391  0.00  0.00    -0.477 OA
ATOM      7  C   UNL     1     -11.762  13.965  66.407  0.00  0.00    +0.135 A 
ATOM      8  C   UNL     1     -11.685  12.622  66.760  0.00  0.00    +0.014 A 
ATOM      9  C   UNL     1     -11.665  11.739  65.693  0.00  0.00    +0.028 A 
ATOM     10  C   UNL     1     -11.843  12.153  64.382  0.00  0.00    +0.140 A 
ATOM     11  C   UNL     1     -11.915  13.505  64.094  0.00  0.00    +0.033 A 
ATOM     12  F   UNL     1     -11.667  11.318  63.324  0.00  0.00    -0.204 F 
ATOM     13  C   UNL     1     -10.824  12.392  67.966  0.00  0.00    +0.033 C 
ATOM     14  C   UNL     1     -12.269  14.321  65.163  0.00  0.00    +0.039 A 
ATOM     15  C   UNL     1      -9.812  13.481  67.883  0.00  0.00    +0.051 C 
ENDBRANCH   4   5
ENDBRANCH   2   4
ENDBRANCH   1   2
BRANCH   1  16
ATOM     16  C   UNL     1     -10.012  18.595  66.710  0.00  0.00    +0.125 C 
BRANCH  16  17
ATOM     17  C   UNL     1      -8.892  19.480  67.563  0.00  0.00    +0.209 C 
ATOM     18  O   UNL     1      -9.680  20.765  67.332  0.00  0.00    -0.218 OA
BRANCH  17  19
ATOM     19  C   UNL     1      -7.865  19.683  66.151  0.00  0.00    +0.198 C 
ATOM     20  O   UNL     1      -6.708  20.381  66.895  0.00  0.00    -0.477 OA
ATOM     21  C   UNL     1      -6.323  19.989  68.118  0.00  0.00    +0.135 A 
ATOM     22  C   UNL     1      -5.757  18.716  68.170  0.00  0.00    +0.014 A 
ATOM     23  C   UNL     1      -5.658  18.159  69.405  0.00  0.00    +0.028 A 
ATOM     24  C   UNL     1      -5.557  19.021  70.494  0.00  0.00    +0.140 A 
ATOM     25  C   UNL     1      -5.564  20.398  70.282  0.00  0.00    +0.033 A 
ATOM     26  F   UNL     1      -5.045  18.653  71.689  0.00  0.00    -0.204 F 
ATOM     27  C   UNL     1      -6.002  18.049  66.876  0.00  0.00    +0.033 C 
ATOM     28  C   UNL     1      -5.687  20.882  68.982  0.00  0.00    +0.039 A 
ATOM     29  C   UNL     1      -7.301  18.137  66.316  0.00  0.00    +0.051 C 
ENDBRANCH  17  19
ENDBRANCH  16  17
ENDBRANCH   1  16
TORSDOF 6
ENDMDL
MODEL 5
REMARK VINA RESULT:      -7.8      3.137      8.594
REMARK  Name = 
REMARK  6 active torsions:
REMARK  status: ('A' for Active; 'I' for Inactive)
REMARK    1  A    between atoms: C_2  and  C_3
REMARK    2  A    between atoms: C_2  and  C_19
REMARK    3  A    between atoms: C_3  and  N_4
REMARK    4  A    between atoms: N_4  and  C_5
REMARK    5  A    between atoms: C_5  and  C_6
REMARK    6  A    between atoms: C_6  and  C_8
REMARK                            x       y       z     vdW  Elec       q    Type
REMARK                         _______ _______ _______ _____ _____    ______ ____
ROOT
ATOM      1  N   UNL     1      -9.545  17.318  65.900  0.00  0.00    -0.212 NA
ENDROOT
BRANCH   1   2
ATOM      2  C   UNL     1      -9.075  18.519  66.517  0.00  0.00    +0.125 C 
BRANCH   2   4
ATOM      3  O   UNL     1      -7.184  17.966  65.405  0.00  0.00    -0.218 OA
ATOM      4  C   UNL     1      -7.475  18.255  66.874  0.00  0.00    +0.209 C 
BRANCH   4   5
ATOM      5  C   UNL     1      -7.105  19.972  66.810  0.00  0.00    +0.198 C 
ATOM      6  O   UNL     1      -7.253  20.054  68.345  0.00  0.00    -0.477 OA
ATOM      7  C   UNL     1      -6.196  20.149  69.158  0.00  0.00    +0.135 A 
ATOM      8  C   UNL     1      -5.177  21.020  68.788  0.00  0.00    +0.014 A 
ATOM      9  C   UNL     1      -4.063  20.998  69.611  0.00  0.00    +0.028 A 
ATOM     10  C   UNL     1      -4.022  20.264  70.786  0.00  0.00    +0.140 A 
ATOM     11  C   UNL     1      -5.069  19.414  71.101  0.00  0.00    +0.033 A 
ATOM     12  F   UNL     1      -2.882  20.112  71.511  0.00  0.00    -0.204 F 
ATOM     13  C   UNL     1      -5.033  21.139  67.300  0.00  0.00    +0.033 C 
ATOM     14  C   UNL     1      -6.276  19.701  70.472  0.00  0.00    +0.039 A 
ATOM     15  C   UNL     1      -5.458  19.802  66.802  0.00  0.00    +0.051 C 
ENDBRANCH   4   5
ENDBRANCH   2   4
ENDBRANCH   1   2
BRANCH   1  16
ATOM     16  C   UNL     1      -9.968  16.271  66.752  0.00  0.00    +0.125 C 
BRANCH  16  17
ATOM     17  C   UNL     1     -10.466  15.042  65.747  0.00  0.00    +0.209 C 
ATOM     18  O   UNL     1     -10.992  16.046  64.726  0.00  0.00    -0.218 OA
BRANCH  17  19
ATOM     19  C   UNL     1     -12.000  14.875  66.589  0.00  0.00    +0.198 C 
ATOM     20  O   UNL     1     -12.596  13.828  65.626  0.00  0.00    -0.477 OA
ATOM     21  C   UNL     1     -11.849  12.840  65.115  0.00  0.00    +0.135 A 
ATOM     22  C   UNL     1     -11.397  11.909  66.049  0.00  0.00    +0.014 A 
ATOM     23  C   UNL     1     -10.389  11.096  65.640  0.00  0.00    +0.028 A 
ATOM     24  C   UNL     1     -10.287  10.833  64.277  0.00  0.00    +0.140 A 
ATOM     25  C   UNL     1     -11.205  11.404  63.398  0.00  0.00    +0.033 A 
ATOM     26  F   UNL     1      -9.640   9.758  63.772  0.00  0.00    -0.204 F 
ATOM     27  C   UNL     1     -11.654  12.448  67.400  0.00  0.00    +0.033 C 
ATOM     28  C   UNL     1     -12.197  12.239  63.904  0.00  0.00    +0.039 A 
ATOM     29  C   UNL     1     -11.322  13.803  67.650  0.00  0.00    +0.051 C 
ENDBRANCH  17  19
ENDBRANCH  16  17
ENDBRANCH   1  16
TORSDOF 6
ENDMDL
MODEL 6
REMARK VINA RESULT:      -7.7      3.521      5.272
REMARK  Name = 
REMARK  6 active torsions:
REMARK  status: ('A' for Active; 'I' for Inactive)
REMARK    1  A    between atoms: C_2  and  C_3
REMARK    2  A    between atoms: C_2  and  C_19
REMARK    3  A    between atoms: C_3  and  N_4
REMARK    4  A    between atoms: N_4  and  C_5
REMARK    5  A    between atoms: C_5  and  C_6
REMARK    6  A    between atoms: C_6  and  C_8
REMARK                            x       y       z     vdW  Elec       q    Type
REMARK                         _______ _______ _______ _____ _____    ______ ____
ROOT
ATOM      1  N   UNL     1      -9.497  10.678  65.810  0.00  0.00    -0.212 NA
ENDROOT
BRANCH   1   2
ATOM      2  C   UNL     1      -8.997   9.911  66.909  0.00  0.00    +0.125 C 
BRANCH   2   4
ATOM      3  O   UNL     1      -9.692   7.803  66.473  0.00  0.00    -0.218 OA
ATOM      4  C   UNL     1     -10.237   8.910  67.370  0.00  0.00    +0.209 C 
BRANCH   4   5
ATOM      5  C   UNL     1      -9.388   8.413  68.827  0.00  0.00    +0.198 C 
ATOM      6  O   UNL     1     -10.004   9.608  69.585  0.00  0.00    -0.477 OA
ATOM      7  C   UNL     1     -11.004   9.457  70.461  0.00  0.00    +0.135 A 
ATOM      8  C   UNL     1     -10.921   8.392  71.352  0.00  0.00    +0.014 A 
ATOM      9  C   UNL     1     -12.031   8.222  72.162  0.00  0.00    +0.028 A 
ATOM     10  C   UNL     1     -13.085   9.123  72.178  0.00  0.00    +0.140 A 
ATOM     11  C   UNL     1     -13.110  10.165  71.266  0.00  0.00    +0.033 A 
ATOM     12  F   UNL     1     -14.242   8.880  72.849  0.00  0.00    -0.204 F 
ATOM     13  C   UNL     1     -10.203   7.211  70.772  0.00  0.00    +0.033 C 
ATOM     14  C   UNL     1     -11.876  10.507  70.722  0.00  0.00    +0.039 A 
ATOM     15  C   UNL     1     -10.509   7.297  69.318  0.00  0.00    +0.051 C 
ENDBRANCH   4   5
ENDBRANCH   2   4
ENDBRANCH   1   2
BRANCH   1  16
ATOM     16  C   UNL     1     -10.857  11.067  65.853  0.00  0.00    +0.125 C 
BRANCH  16  17
ATOM     17  C   UNL     1     -10.909  12.426  66.811  0.00  0.00    +0.209 C 
ATOM     18  O   UNL     1     -12.004  11.813  67.678  0.00  0.00    -0.218 OA
BRANCH  17  19
ATOM     19  C   UNL     1     -12.024  13.241  65.723  0.00  0.00    +0.198 C 
ATOM     20  O   UNL     1     -12.250  14.474  66.623  0.00  0.00    -0.477 OA
ATOM     21  C   UNL     1     -11.244  15.034  67.309  0.00  0.00    +0.135 A 
ATOM     22  C   UNL     1     -10.262  15.631  66.521  0.00  0.00    +0.014 A 
ATOM     23  C   UNL     1      -9.089  15.914  67.143  0.00  0.00    +0.028 A 
ATOM     24  C   UNL     1      -9.128  16.146  68.516  0.00  0.00    +0.140 A 
ATOM     25  C   UNL     1     -10.347  16.077  69.188  0.00  0.00    +0.033 A 
ATOM     26  F   UNL     1      -8.171  16.828  69.183  0.00  0.00    -0.204 F 
ATOM     27  C   UNL     1     -10.485  15.224  65.119  0.00  0.00    +0.033 C 
ATOM     28  C   UNL     1     -11.498  15.764  68.472  0.00  0.00    +0.039 A 
ATOM     29  C   UNL     1     -10.758  13.858  64.858  0.00  0.00    +0.051 C 
ENDBRANCH  17  19
ENDBRANCH  16  17
ENDBRANCH   1  16
TORSDOF 6
ENDMDL
MODEL 7
REMARK VINA RESULT:      -7.7      1.498      2.001
REMARK  Name = 
REMARK  6 active torsions:
REMARK  status: ('A' for Active; 'I' for Inactive)
REMARK    1  A    between atoms: C_2  and  C_3
REMARK    2  A    between atoms: C_2  and  C_19
REMARK    3  A    between atoms: C_3  and  N_4
REMARK    4  A    between atoms: N_4  and  C_5
REMARK    5  A    between atoms: C_5  and  C_6
REMARK    6  A    between atoms: C_6  and  C_8
REMARK                            x       y       z     vdW  Elec       q    Type
REMARK                         _______ _______ _______ _____ _____    ______ ____
ROOT
ATOM      1  N   UNL     1     -10.250  17.044  65.375  0.00  0.00    -0.212 NA
ENDROOT
BRANCH   1   2
ATOM      2  C   UNL     1      -9.907  15.792  65.975  0.00  0.00    +0.125 C 
BRANCH   2   4
ATOM      3  O   UNL     1     -11.331  14.261  65.110  0.00  0.00    -0.218 OA
ATOM      4  C   UNL     1     -11.344  15.078  66.398  0.00  0.00    +0.209 C 
BRANCH   4   5
ATOM      5  C   UNL     1     -10.535  13.879  67.397  0.00  0.00    +0.198 C 
ATOM      6  O   UNL     1     -10.643  14.826  68.611  0.00  0.00    -0.477 OA
ATOM      7  C   UNL     1     -11.529  14.627  69.593  0.00  0.00    +0.135 A 
ATOM      8  C   UNL     1     -11.688  13.326  70.060  0.00  0.00    +0.014 A 
ATOM      9  C   UNL     1     -12.692  13.162  71.000  0.00  0.00    +0.028 A 
ATOM     10  C   UNL     1     -13.393  14.233  71.533  0.00  0.00    +0.140 A 
ATOM     11  C   UNL     1     -13.189  15.506  71.026  0.00  0.00    +0.033 A 
ATOM     12  F   UNL     1     -14.480  14.068  72.331  0.00  0.00    -0.204 F 
ATOM     13  C   UNL     1     -11.458  12.298  68.992  0.00  0.00    +0.033 C 
ATOM     14  C   UNL     1     -11.983  15.693  70.359  0.00  0.00    +0.039 A 
ATOM     15  C   UNL     1     -11.888  12.991  67.746  0.00  0.00    +0.051 C 
ENDBRANCH   4   5
ENDBRANCH   2   4
ENDBRANCH   1   2
BRANCH   1  16
ATOM     16  C   UNL     1     -10.517  18.130  66.243  0.00  0.00    +0.125 C 
BRANCH  16  17
ATOM     17  C   UNL     1      -9.281  18.134  67.356  0.00  0.00    +0.209 C 
ATOM     18  O   UNL     1     -10.275  18.193  68.511  0.00  0.00    -0.218 OA
BRANCH  17  19
ATOM     19  C   UNL     1      -9.085  19.878  67.243  0.00  0.00    +0.198 C 
ATOM     20  O   UNL     1      -8.024  19.991  68.357  0.00  0.00    -0.477 OA
ATOM     21  C   UNL     1      -7.049  19.080  68.491  0.00  0.00    +0.135 A 
ATOM     22  C   UNL     1      -6.130  19.053  67.442  0.00  0.00    +0.014 A 
ATOM     23  C   UNL     1      -5.336  17.953  67.375  0.00  0.00    +0.028 A 
ATOM     24  C   UNL     1      -5.071  17.278  68.564  0.00  0.00    +0.140 A 
ATOM     25  C   UNL     1      -5.621  17.744  69.756  0.00  0.00    +0.033 A 
ATOM     26  F   UNL     1      -4.008  16.460  68.734  0.00  0.00    -0.204 F 
ATOM     27  C   UNL     1      -6.668  19.868  66.335  0.00  0.00    +0.033 C 
ATOM     28  C   UNL     1      -6.438  18.871  69.728  0.00  0.00    +0.039 A 
ATOM     29  C   UNL     1      -8.030  19.697  65.983  0.00  0.00    +0.051 C 
ENDBRANCH  17  19
ENDBRANCH  16  17
ENDBRANCH   1  16
TORSDOF 6
ENDMDL
MODEL 8
REMARK VINA RESULT:      -7.6      3.547      9.578
REMARK  Name = 
REMARK  6 active torsions:
REMARK  status: ('A' for Active; 'I' for Inactive)
REMARK    1  A    between atoms: C_2  and  C_3
REMARK    2  A    between atoms: C_2  and  C_19
REMARK    3  A    between atoms: C_3  and  N_4
REMARK    4  A    between atoms: N_4  and  C_5
REMARK    5  A    between atoms: C_5  and  C_6
REMARK    6  A    between atoms: C_6  and  C_8
REMARK                            x       y       z     vdW  Elec       q    Type
REMARK                         _______ _______ _______ _____ _____    ______ ____
ROOT
ATOM      1  N   UNL     1      -8.897  16.897  65.754  0.00  0.00    -0.212 NA
ENDROOT
BRANCH   1   2
ATOM      2  C   UNL     1      -8.029  17.566  66.673  0.00  0.00    +0.125 C 
BRANCH   2   4
ATOM      3  O   UNL     1      -8.500  19.602  67.541  0.00  0.00    -0.218 OA
ATOM      4  C   UNL     1      -7.975  19.151  66.182  0.00  0.00    +0.209 C 
BRANCH   4   5
ATOM      5  C   UNL     1      -6.269  19.289  66.577  0.00  0.00    +0.198 C 
ATOM      6  O   UNL     1      -5.907  18.851  65.142  0.00  0.00    -0.477 OA
ATOM      7  C   UNL     1      -5.470  19.718  64.222  0.00  0.00    +0.135 A 
ATOM      8  C   UNL     1      -4.528  20.659  64.623  0.00  0.00    +0.014 A 
ATOM      9  C   UNL     1      -4.191  21.596  63.660  0.00  0.00    +0.028 A 
ATOM     10  C   UNL     1      -4.656  21.520  62.356  0.00  0.00    +0.140 A 
ATOM     11  C   UNL     1      -5.593  20.558  62.016  0.00  0.00    +0.033 A 
ATOM     12  F   UNL     1      -4.459  22.517  61.453  0.00  0.00    -0.204 F 
ATOM     13  C   UNL     1      -4.687  21.057  66.060  0.00  0.00    +0.033 C 
ATOM     14  C   UNL     1      -5.651  19.461  62.868  0.00  0.00    +0.039 A 
ATOM     15  C   UNL     1      -6.150  20.917  66.299  0.00  0.00    +0.051 C 
ENDBRANCH   4   5
ENDBRANCH   2   4
ENDBRANCH   1   2
BRANCH   1  16
ATOM     16  C   UNL     1     -10.199  16.575  66.205  0.00  0.00    +0.125 C 
BRANCH  16  17
ATOM     17  C   UNL     1     -10.689  15.279  65.284  0.00  0.00    +0.209 C 
ATOM     18  O   UNL     1     -11.245  16.209  64.210  0.00  0.00    -0.218 OA
BRANCH  17  19
ATOM     19  C   UNL     1     -12.208  15.138  66.156  0.00  0.00    +0.198 C 
ATOM     20  O   UNL     1     -12.788  14.005  65.283  0.00  0.00    -0.477 OA
ATOM     21  C   UNL     1     -12.021  13.000  64.839  0.00  0.00    +0.135 A 
ATOM     22  C   UNL     1     -11.534  12.156  65.836  0.00  0.00    +0.014 A 
ATOM     23  C   UNL     1     -10.510  11.339  65.478  0.00  0.00    +0.028 A 
ATOM     24  C   UNL     1     -10.417  10.975  64.137  0.00  0.00    +0.140 A 
ATOM     25  C   UNL     1     -11.358  11.454  63.229  0.00  0.00    +0.033 A 
ATOM     26  F   UNL     1      -9.747   9.881  63.708  0.00  0.00    -0.204 F 
ATOM     27  C   UNL     1     -11.790  12.790  67.145  0.00  0.00    +0.033 C 
ATOM     28  C   UNL     1     -12.366  12.300  63.682  0.00  0.00    +0.039 A 
ATOM     29  C   UNL     1     -11.491  14.168  67.286  0.00  0.00    +0.051 C 
ENDBRANCH  17  19
ENDBRANCH  16  17
ENDBRANCH   1  16
TORSDOF 6
ENDMDL
MODEL 9
REMARK VINA RESULT:      -7.6      3.288      8.083
REMARK  Name = 
REMARK  6 active torsions:
REMARK  status: ('A' for Active; 'I' for Inactive)
REMARK    1  A    between atoms: C_2  and  C_3
REMARK    2  A    between atoms: C_2  and  C_19
REMARK    3  A    between atoms: C_3  and  N_4
REMARK    4  A    between atoms: N_4  and  C_5
REMARK    5  A    between atoms: C_5  and  C_6
REMARK    6  A    between atoms: C_6  and  C_8
REMARK                            x       y       z     vdW  Elec       q    Type
REMARK                         _______ _______ _______ _____ _____    ______ ____
ROOT
ATOM      1  N   UNL     1      -9.021  16.736  65.840  0.00  0.00    -0.212 NA
ENDROOT
BRANCH   1   2
ATOM      2  C   UNL     1      -8.202  15.864  66.623  0.00  0.00    +0.125 C 
BRANCH   2   4
ATOM      3  O   UNL     1      -8.513  15.306  68.794  0.00  0.00    -0.218 OA
ATOM      4  C   UNL     1      -8.053  16.589  68.109  0.00  0.00    +0.209 C 
BRANCH   4   5
ATOM      5  C   UNL     1      -6.331  16.242  68.184  0.00  0.00    +0.198 C 
ATOM      6  O   UNL     1      -6.033  17.621  67.557  0.00  0.00    -0.477 OA
ATOM      7  C   UNL     1      -5.566  18.645  68.279  0.00  0.00    +0.135 A 
ATOM      8  C   UNL     1      -4.558  18.375  69.199  0.00  0.00    +0.014 A 
ATOM      9  C   UNL     1      -4.188  19.449  69.992  0.00  0.00    +0.028 A 
ATOM     10  C   UNL     1      -4.688  20.727  69.792  0.00  0.00    +0.140 A 
ATOM     11  C   UNL     1      -5.691  20.933  68.859  0.00  0.00    +0.033 A 
ATOM     12  F   UNL     1      -4.453  21.746  70.660  0.00  0.00    -0.204 F 
ATOM     13  C   UNL     1      -4.657  16.993  69.773  0.00  0.00    +0.033 C 
ATOM     14  C   UNL     1      -5.796  19.955  67.876  0.00  0.00    +0.039 A 
ATOM     15  C   UNL     1      -6.120  16.715  69.757  0.00  0.00    +0.051 C 
ENDBRANCH   4   5
ENDBRANCH   2   4
ENDBRANCH   1   2
BRANCH   1  16
ATOM     16  C   UNL     1     -10.423  16.629  65.999  0.00  0.00    +0.125 C 
BRANCH  16  17
ATOM     17  C   UNL     1     -10.891  15.348  65.045  0.00  0.00    +0.209 C 
ATOM     18  O   UNL     1     -11.496  16.294  64.013  0.00  0.00    -0.218 OA
BRANCH  17  19
ATOM     19  C   UNL     1     -12.388  15.132  65.940  0.00  0.00    +0.198 C 
ATOM     20  O   UNL     1     -12.887  13.921  65.124  0.00  0.00    -0.477 OA
ATOM     21  C   UNL     1     -12.049  12.958  64.716  0.00  0.00    +0.135 A 
ATOM     22  C   UNL     1     -11.491  12.198  65.743  0.00  0.00    +0.014 A 
ATOM     23  C   UNL     1     -10.411  11.446  65.408  0.00  0.00    +0.028 A 
ATOM     24  C   UNL     1     -10.301  11.031  64.083  0.00  0.00    +0.140 A 
ATOM     25  C   UNL     1     -11.284  11.396  63.167  0.00  0.00    +0.033 A 
ATOM     26  F   UNL     1      -9.554   9.973  63.694  0.00  0.00    -0.204 F 
ATOM     27  C   UNL     1     -11.784  12.868  67.025  0.00  0.00    +0.033 C 
ATOM     28  C   UNL     1     -12.350  12.184  63.594  0.00  0.00    +0.039 A 
ATOM     29  C   UNL     1     -11.590  14.270  67.104  0.00  0.00    +0.051 C 
ENDBRANCH  17  19
ENDBRANCH  16  17
ENDBRANCH   1  16
TORSDOF 6
ENDMDL
