MODEL 1
REMARK VINA RESULT:      -6.7      0.000      0.000
REMARK  Name = 
REMARK  3 active torsions:
REMARK  status: ('A' for Active; 'I' for Inactive)
REMARK    1  A    between atoms: C_6  and  C_7
REMARK    2  A    between atoms: N_9  and  C_10
REMARK    3  A    between atoms: C_13  and  C_14
REMARK                            x       y       z     vdW  Elec       q    Type
REMARK                         _______ _______ _______ _____ _____    ______ ____
ROOT
ATOM      1  C   UNL     1     -11.670  14.712  69.018  0.00  0.00    +0.074 A 
ATOM      2  C   UNL     1     -11.169  15.831  69.674  0.00  0.00    +0.017 A 
ATOM      3  C   UNL     1     -11.736  16.306  70.848  0.00  0.00    +0.005 A 
ATOM      4  C   UNL     1     -12.619  15.499  71.556  0.00  0.00    +0.072 A 
ATOM      5  C   UNL     1     -13.057  14.351  70.955  0.00  0.00    +0.005 A 
ATOM      6  C   UNL     1     -12.459  13.873  69.796  0.00  0.00    +0.017 A 
ENDROOT
BRANCH   4   7
ATOM      7  C   UNL     1     -12.721  15.646  73.031  0.00  0.00    +0.419 C 
ATOM      8  F   UNL     1     -12.664  14.409  73.618  0.00  0.00    -0.166 F 
ATOM      9  F   UNL     1     -13.968  16.180  73.336  0.00  0.00    -0.166 F 
ATOM     10  F   UNL     1     -11.753  16.513  73.476  0.00  0.00    -0.166 F 
ENDBRANCH   4   7
BRANCH   1  12
ATOM     11  C   UNL     1     -11.091  13.831  66.804  0.00  0.00    +0.273 C 
ATOM     12  N   UNL     1     -11.830  14.736  67.595  0.00  0.00    -0.175 NA
ATOM     13  O   UNL     1      -9.883  13.665  67.092  0.00  0.00    -0.268 OA
BRANCH  11  16
ATOM     14  C   UNL     1     -10.845  11.195  65.160  0.00  0.00    +0.076 C 
ATOM     15  C   UNL     1     -11.661  12.392  64.787  0.00  0.00    +0.159 A 
ATOM     16  C   UNL     1     -11.527  13.612  65.431  0.00  0.00    +0.111 A 
ATOM     17  C   UNL     1     -12.102  14.531  64.563  0.00  0.00    +0.148 A 
ATOM     18  N   UNL     1     -12.598  13.812  63.552  0.00  0.00    -0.076 NA
ATOM     19  O   UNL     1     -12.450  12.544  63.737  0.00  0.00    -0.358 OA
ENDBRANCH  11  16
ENDBRANCH   1  12
TORSDOF 3
ENDMDL
MODEL 2
REMARK VINA RESULT:      -6.7      3.059      3.905
REMARK  Name = 
REMARK  3 active torsions:
REMARK  status: ('A' for Active; 'I' for Inactive)
REMARK    1  A    between atoms: C_6  and  C_7
REMARK    2  A    between atoms: N_9  and  C_10
REMARK    3  A    between atoms: C_13  and  C_14
REMARK                            x       y       z     vdW  Elec       q    Type
REMARK                         _______ _______ _______ _____ _____    ______ ____
ROOT
ATOM      1  C   UNL     1     -11.462  12.942  68.717  0.00  0.00    +0.074 A 
ATOM      2  C   UNL     1     -11.968  13.162  69.992  0.00  0.00    +0.017 A 
ATOM      3  C   UNL     1     -12.500  12.133  70.757  0.00  0.00    +0.005 A 
ATOM      4  C   UNL     1     -12.258  10.815  70.390  0.00  0.00    +0.072 A 
ATOM      5  C   UNL     1     -11.684  10.585  69.170  0.00  0.00    +0.005 A 
ATOM      6  C   UNL     1     -11.130  11.623  68.430  0.00  0.00    +0.017 A 
ENDROOT
BRANCH   4   7
ATOM      7  C   UNL     1     -12.211   9.761  71.437  0.00  0.00    +0.419 C 
ATOM      8  F   UNL     1     -10.912   9.550  71.814  0.00  0.00    -0.166 F 
ATOM      9  F   UNL     1     -12.669   8.570  70.885  0.00  0.00    -0.166 F 
ATOM     10  F   UNL     1     -13.039  10.108  72.477  0.00  0.00    -0.166 F 
ENDBRANCH   4   7
BRANCH   1  12
ATOM     11  C   UNL     1     -10.785  14.231  66.744  0.00  0.00    +0.273 C 
ATOM     12  N   UNL     1     -11.790  13.848  67.657  0.00  0.00    -0.175 NA
ATOM     13  O   UNL     1      -9.657  14.514  67.210  0.00  0.00    -0.268 OA
BRANCH  11  16
ATOM     14  C   UNL     1     -12.461  12.888  64.486  0.00  0.00    +0.076 C 
ATOM     15  C   UNL     1     -12.152  14.347  64.604  0.00  0.00    +0.159 A 
ATOM     16  C   UNL     1     -11.202  14.837  65.485  0.00  0.00    +0.111 A 
ATOM     17  C   UNL     1     -10.911  16.111  65.016  0.00  0.00    +0.148 A 
ATOM     18  N   UNL     1     -11.741  16.316  63.988  0.00  0.00    -0.076 NA
ATOM     19  O   UNL     1     -12.557  15.331  63.818  0.00  0.00    -0.358 OA
ENDBRANCH  11  16
ENDBRANCH   1  12
TORSDOF 3
ENDMDL
MODEL 3
REMARK VINA RESULT:      -6.7      4.957      7.478
REMARK  Name = 
REMARK  3 active torsions:
REMARK  status: ('A' for Active; 'I' for Inactive)
REMARK    1  A    between atoms: C_6  and  C_7
REMARK    2  A    between atoms: N_9  and  C_10
REMARK    3  A    between atoms: C_13  and  C_14
REMARK                            x       y       z     vdW  Elec       q    Type
REMARK                         _______ _______ _______ _____ _____    ______ ____
ROOT
ATOM      1  C   UNL     1     -11.488  13.029  67.673  0.00  0.00    +0.074 A 
ATOM      2  C   UNL     1     -10.911  11.967  66.988  0.00  0.00    +0.017 A 
ATOM      3  C   UNL     1     -11.307  11.621  65.704  0.00  0.00    +0.005 A 
ATOM      4  C   UNL     1     -12.068  12.516  64.960  0.00  0.00    +0.072 A 
ATOM      5  C   UNL     1     -12.576  13.611  65.602  0.00  0.00    +0.005 A 
ATOM      6  C   UNL     1     -12.146  13.960  66.877  0.00  0.00    +0.017 A 
ENDROOT
BRANCH   4   7
ATOM      7  C   UNL     1     -11.957  12.515  63.478  0.00  0.00    +0.419 C 
ATOM      8  F   UNL     1     -12.463  13.687  62.982  0.00  0.00    -0.166 F 
ATOM      9  F   UNL     1     -12.751  11.490  62.977  0.00  0.00    -0.166 F 
ATOM     10  F   UNL     1     -10.654  12.277  63.114  0.00  0.00    -0.166 F 
ENDBRANCH   4   7
BRANCH   1  12
ATOM     11  C   UNL     1     -11.815  13.995  69.903  0.00  0.00    +0.273 C 
ATOM     12  N   UNL     1     -11.853  12.872  69.049  0.00  0.00    -0.175 NA
ATOM     13  O   UNL     1     -10.826  14.759  69.811  0.00  0.00    -0.268 OA
BRANCH  11  16
ATOM     14  C   UNL     1     -11.974  16.189  72.111  0.00  0.00    +0.076 C 
ATOM     15  C   UNL     1     -12.820  14.957  72.031  0.00  0.00    +0.159 A 
ATOM     16  C   UNL     1     -12.528  13.911  71.171  0.00  0.00    +0.111 A 
ATOM     17  C   UNL     1     -13.246  12.833  71.675  0.00  0.00    +0.148 A 
ATOM     18  N   UNL     1     -13.955  13.318  72.698  0.00  0.00    -0.076 NA
ATOM     19  O   UNL     1     -13.803  14.592  72.836  0.00  0.00    -0.358 OA
ENDBRANCH  11  16
ENDBRANCH   1  12
TORSDOF 3
ENDMDL
MODEL 4
REMARK VINA RESULT:      -6.5      4.687      7.153
REMARK  Name = 
REMARK  3 active torsions:
REMARK  status: ('A' for Active; 'I' for Inactive)
REMARK    1  A    between atoms: C_6  and  C_7
REMARK    2  A    between atoms: N_9  and  C_10
REMARK    3  A    between atoms: C_13  and  C_14
REMARK                            x       y       z     vdW  Elec       q    Type
REMARK                         _______ _______ _______ _____ _____    ______ ____
ROOT
ATOM      1  C   UNL     1     -10.712  14.195  68.828  0.00  0.00    +0.074 A 
ATOM      2  C   UNL     1     -11.410  13.089  68.357  0.00  0.00    +0.017 A 
ATOM      3  C   UNL     1     -12.025  13.086  67.113  0.00  0.00    +0.005 A 
ATOM      4  C   UNL     1     -11.699  14.071  66.188  0.00  0.00    +0.072 A 
ATOM      5  C   UNL     1     -10.943  15.126  66.617  0.00  0.00    +0.005 A 
ATOM      6  C   UNL     1     -10.309  15.100  67.853  0.00  0.00    +0.017 A 
ENDROOT
BRANCH   4   7
ATOM      7  C   UNL     1     -11.785  13.767  64.736  0.00  0.00    +0.419 C 
ATOM      8  F   UNL     1     -12.479  12.601  64.554  0.00  0.00    -0.166 F 
ATOM      9  F   UNL     1     -10.499  13.551  64.253  0.00  0.00    -0.166 F 
ATOM     10  F   UNL     1     -12.327  14.842  64.072  0.00  0.00    -0.166 F 
ENDBRANCH   4   7
BRANCH   1  12
ATOM     11  C   UNL     1     -12.112  15.250  70.543  0.00  0.00    +0.273 C 
ATOM     12  N   UNL     1     -10.898  14.628  70.180  0.00  0.00    -0.175 NA
ATOM     13  O   UNL     1     -12.581  16.104  69.756  0.00  0.00    -0.268 OA
BRANCH  11  16
ATOM     14  C   UNL     1     -13.744  13.202  72.231  0.00  0.00    +0.076 C 
ATOM     15  C   UNL     1     -12.924  14.331  72.770  0.00  0.00    +0.159 A 
ATOM     16  C   UNL     1     -12.433  15.343  71.962  0.00  0.00    +0.111 A 
ATOM     17  C   UNL     1     -12.116  16.371  72.840  0.00  0.00    +0.148 A 
ATOM     18  N   UNL     1     -12.345  15.884  74.064  0.00  0.00    -0.076 NA
ATOM     19  O   UNL     1     -12.703  14.645  74.035  0.00  0.00    -0.358 OA
ENDBRANCH  11  16
ENDBRANCH   1  12
TORSDOF 3
ENDMDL
MODEL 5
REMARK VINA RESULT:      -6.4      3.885      4.744
REMARK  Name = 
REMARK  3 active torsions:
REMARK  status: ('A' for Active; 'I' for Inactive)
REMARK    1  A    between atoms: C_6  and  C_7
REMARK    2  A    between atoms: N_9  and  C_10
REMARK    3  A    between atoms: C_13  and  C_14
REMARK                            x       y       z     vdW  Elec       q    Type
REMARK                         _______ _______ _______ _____ _____    ______ ____
ROOT
ATOM      1  C   UNL     1     -11.311  11.308  68.672  0.00  0.00    +0.074 A 
ATOM      2  C   UNL     1     -11.915  11.510  69.907  0.00  0.00    +0.017 A 
ATOM      3  C   UNL     1     -12.092  10.474  70.814  0.00  0.00    +0.005 A 
ATOM      4  C   UNL     1     -11.396   9.284  70.637  0.00  0.00    +0.072 A 
ATOM      5  C   UNL     1     -10.728   9.105  69.457  0.00  0.00    +0.005 A 
ATOM      6  C   UNL     1     -10.533  10.159  68.574  0.00  0.00    +0.017 A 
ENDROOT
BRANCH   4   7
ATOM      7  C   UNL     1     -11.034   8.465  71.822  0.00  0.00    +0.419 C 
ATOM      8  F   UNL     1      -9.833   8.892  72.323  0.00  0.00    -0.166 F 
ATOM      9  F   UNL     1     -10.855   7.149  71.411  0.00  0.00    -0.166 F 
ATOM     10  F   UNL     1     -12.058   8.502  72.737  0.00  0.00    -0.166 F 
ENDBRANCH   4   7
BRANCH   1  12
ATOM     11  C   UNL     1     -11.139  12.839  66.764  0.00  0.00    +0.273 C 
ATOM     12  N   UNL     1     -11.885  11.891  67.497  0.00  0.00    -0.175 NA
ATOM     13  O   UNL     1     -10.519  13.714  67.413  0.00  0.00    -0.268 OA
BRANCH  11  16
ATOM     14  C   UNL     1     -10.657  11.094  64.228  0.00  0.00    +0.076 C 
ATOM     15  C   UNL     1     -11.587  12.261  64.330  0.00  0.00    +0.159 A 
ATOM     16  C   UNL     1     -11.565  13.137  65.403  0.00  0.00    +0.111 A 
ATOM     17  C   UNL     1     -12.233  14.267  64.948  0.00  0.00    +0.148 A 
ATOM     18  N   UNL     1     -12.667  13.960  63.722  0.00  0.00    -0.076 NA
ATOM     19  O   UNL     1     -12.397  12.740  63.401  0.00  0.00    -0.358 OA
ENDBRANCH  11  16
ENDBRANCH   1  12
TORSDOF 3
ENDMDL
MODEL 6
REMARK VINA RESULT:      -6.2      3.110      4.291
REMARK  Name = 
REMARK  3 active torsions:
REMARK  status: ('A' for Active; 'I' for Inactive)
REMARK    1  A    between atoms: C_6  and  C_7
REMARK    2  A    between atoms: N_9  and  C_10
REMARK    3  A    between atoms: C_13  and  C_14
REMARK                            x       y       z     vdW  Elec       q    Type
REMARK                         _______ _______ _______ _____ _____    ______ ____
ROOT
ATOM      1  C   UNL     1     -11.348  15.592  69.119  0.00  0.00    +0.074 A 
ATOM      2  C   UNL     1     -11.772  14.271  69.044  0.00  0.00    +0.017 A 
ATOM      3  C   UNL     1     -12.154  13.558  70.172  0.00  0.00    +0.005 A 
ATOM      4  C   UNL     1     -12.413  14.240  71.355  0.00  0.00    +0.072 A 
ATOM      5  C   UNL     1     -12.075  15.564  71.417  0.00  0.00    +0.005 A 
ATOM      6  C   UNL     1     -11.725  16.270  70.273  0.00  0.00    +0.017 A 
ENDROOT
BRANCH   4   7
ATOM      7  C   UNL     1     -13.397  13.684  72.319  0.00  0.00    +0.419 C 
ATOM      8  F   UNL     1     -13.094  14.116  73.583  0.00  0.00    -0.166 F 
ATOM      9  F   UNL     1     -13.274  12.299  72.327  0.00  0.00    -0.166 F 
ATOM     10  F   UNL     1     -14.670  14.007  71.916  0.00  0.00    -0.166 F 
ENDBRANCH   4   7
BRANCH   1  12
ATOM     11  C   UNL     1     -10.335  16.375  67.028  0.00  0.00    +0.273 C 
ATOM     12  N   UNL     1     -10.193  16.009  68.383  0.00  0.00    -0.175 NA
ATOM     13  O   UNL     1     -11.058  15.650  66.306  0.00  0.00    -0.268 OA
BRANCH  11  16
ATOM     14  C   UNL     1     -10.467  19.316  66.005  0.00  0.00    +0.076 C 
ATOM     15  C   UNL     1      -9.224  18.505  66.194  0.00  0.00    +0.159 A 
ATOM     16  C   UNL     1      -9.256  17.136  66.410  0.00  0.00    +0.111 A 
ATOM     17  C   UNL     1      -7.970  16.704  66.116  0.00  0.00    +0.148 A 
ATOM     18  N   UNL     1      -7.270  17.810  65.846  0.00  0.00    -0.076 NA
ATOM     19  O   UNL     1      -7.971  18.881  66.010  0.00  0.00    -0.358 OA
ENDBRANCH  11  16
ENDBRANCH   1  12
TORSDOF 3
ENDMDL
MODEL 7
REMARK VINA RESULT:      -6.1      4.533      5.354
REMARK  Name = 
REMARK  3 active torsions:
REMARK  status: ('A' for Active; 'I' for Inactive)
REMARK    1  A    between atoms: C_6  and  C_7
REMARK    2  A    between atoms: N_9  and  C_10
REMARK    3  A    between atoms: C_13  and  C_14
REMARK                            x       y       z     vdW  Elec       q    Type
REMARK                         _______ _______ _______ _____ _____    ______ ____
ROOT
ATOM      1  C   UNL     1      -9.738  17.297  66.700  0.00  0.00    +0.074 A 
ATOM      2  C   UNL     1     -10.076  18.333  67.562  0.00  0.00    +0.017 A 
ATOM      3  C   UNL     1      -9.152  18.894  68.432  0.00  0.00    +0.005 A 
ATOM      4  C   UNL     1      -7.797  18.643  68.243  0.00  0.00    +0.072 A 
ATOM      5  C   UNL     1      -7.445  17.682  67.337  0.00  0.00    +0.005 A 
ATOM      6  C   UNL     1      -8.377  17.152  66.453  0.00  0.00    +0.017 A 
ENDROOT
BRANCH   4   7
ATOM      7  C   UNL     1      -6.800  19.661  68.665  0.00  0.00    +0.419 C 
ATOM      8  F   UNL     1      -5.542  19.125  68.589  0.00  0.00    -0.166 F 
ATOM      9  F   UNL     1      -7.025  19.974  70.001  0.00  0.00    -0.166 F 
ATOM     10  F   UNL     1      -6.961  20.801  67.915  0.00  0.00    -0.166 F 
ENDBRANCH   4   7
BRANCH   1  12
ATOM     11  C   UNL     1     -10.868  15.659  65.266  0.00  0.00    +0.273 C 
ATOM     12  N   UNL     1     -10.619  16.177  66.555  0.00  0.00    -0.175 NA
ATOM     13  O   UNL     1     -11.071  16.481  64.342  0.00  0.00    -0.268 OA
BRANCH  11  16
ATOM     14  C   UNL     1      -9.712  13.022  66.458  0.00  0.00    +0.076 C 
ATOM     15  C   UNL     1     -11.088  13.208  65.903  0.00  0.00    +0.159 A 
ATOM     16  C   UNL     1     -11.448  14.326  65.168  0.00  0.00    +0.111 A 
ATOM     17  C   UNL     1     -12.604  13.948  64.498  0.00  0.00    +0.148 A 
ATOM     18  N   UNL     1     -12.889  12.717  64.934  0.00  0.00    -0.076 NA
ATOM     19  O   UNL     1     -12.071  12.325  65.851  0.00  0.00    -0.358 OA
ENDBRANCH  11  16
ENDBRANCH   1  12
TORSDOF 3
ENDMDL
MODEL 8
REMARK VINA RESULT:      -6.1      3.542      4.921
REMARK  Name = 
REMARK  3 active torsions:
REMARK  status: ('A' for Active; 'I' for Inactive)
REMARK    1  A    between atoms: C_6  and  C_7
REMARK    2  A    between atoms: N_9  and  C_10
REMARK    3  A    between atoms: C_13  and  C_14
REMARK                            x       y       z     vdW  Elec       q    Type
REMARK                         _______ _______ _______ _____ _____    ______ ____
ROOT
ATOM      1  C   UNL     1     -11.159  15.987  69.483  0.00  0.00    +0.074 A 
ATOM      2  C   UNL     1     -11.738  14.781  69.106  0.00  0.00    +0.017 A 
ATOM      3  C   UNL     1     -12.198  13.865  70.041  0.00  0.00    +0.005 A 
ATOM      4  C   UNL     1     -12.371  14.264  71.361  0.00  0.00    +0.072 A 
ATOM      5  C   UNL     1     -11.878  15.485  71.729  0.00  0.00    +0.005 A 
ATOM      6  C   UNL     1     -11.449  16.404  70.778  0.00  0.00    +0.017 A 
ENDROOT
BRANCH   4   7
ATOM      7  C   UNL     1     -13.411  13.607  72.194  0.00  0.00    +0.419 C 
ATOM      8  F   UNL     1     -13.345  12.250  72.021  0.00  0.00    -0.166 F 
ATOM      9  F   UNL     1     -14.662  14.010  71.738  0.00  0.00    -0.166 F 
ATOM     10  F   UNL     1     -13.273  14.005  73.501  0.00  0.00    -0.166 F 
ENDBRANCH   4   7
BRANCH   1  12
ATOM     11  C   UNL     1      -9.879  17.775  68.398  0.00  0.00    +0.273 C 
ATOM     12  N   UNL     1      -9.965  16.435  68.833  0.00  0.00    -0.175 NA
ATOM     13  O   UNL     1     -10.882  18.261  67.825  0.00  0.00    -0.268 OA
BRANCH  11  16
ATOM     14  C   UNL     1      -7.939  16.785  66.169  0.00  0.00    +0.076 C 
ATOM     15  C   UNL     1      -7.808  18.054  66.950  0.00  0.00    +0.159 A 
ATOM     16  C   UNL     1      -8.559  18.308  68.087  0.00  0.00    +0.111 A 
ATOM     17  C   UNL     1      -7.879  19.331  68.735  0.00  0.00    +0.148 A 
ATOM     18  N   UNL     1      -6.868  19.662  67.927  0.00  0.00    -0.076 NA
ATOM     19  O   UNL     1      -6.893  18.999  66.820  0.00  0.00    -0.358 OA
ENDBRANCH  11  16
ENDBRANCH   1  12
TORSDOF 3
ENDMDL
MODEL 9
REMARK VINA RESULT:      -6.0      5.399      6.471
REMARK  Name = 
REMARK  3 active torsions:
REMARK  status: ('A' for Active; 'I' for Inactive)
REMARK    1  A    between atoms: C_6  and  C_7
REMARK    2  A    between atoms: N_9  and  C_10
REMARK    3  A    between atoms: C_13  and  C_14
REMARK                            x       y       z     vdW  Elec       q    Type
REMARK                         _______ _______ _______ _____ _____    ______ ____
ROOT
ATOM      1  C   UNL     1     -12.478  11.092  70.933  0.00  0.00    +0.074 A 
ATOM      2  C   UNL     1     -13.289  11.624  71.928  0.00  0.00    +0.017 A 
ATOM      3  C   UNL     1     -13.312  12.983  72.208  0.00  0.00    +0.005 A 
ATOM      4  C   UNL     1     -12.758  13.876  71.298  0.00  0.00    +0.072 A 
ATOM      5  C   UNL     1     -12.023  13.363  70.265  0.00  0.00    +0.005 A 
ATOM      6  C   UNL     1     -12.035  12.003  69.980  0.00  0.00    +0.017 A 
ENDROOT
BRANCH   4   7
ATOM      7  C   UNL     1     -13.303  15.255  71.203  0.00  0.00    +0.419 C 
ATOM      8  F   UNL     1     -13.007  15.944  72.349  0.00  0.00    -0.166 F 
ATOM      9  F   UNL     1     -14.690  15.177  71.126  0.00  0.00    -0.166 F 
ATOM     10  F   UNL     1     -12.835  15.857  70.060  0.00  0.00    -0.166 F 
ENDBRANCH   4   7
BRANCH   1  12
ATOM     11  C   UNL     1     -12.372   8.647  71.079  0.00  0.00    +0.273 C 
ATOM     12  N   UNL     1     -11.730   9.898  71.189  0.00  0.00    -0.175 NA
ATOM     13  O   UNL     1     -13.521   8.542  71.569  0.00  0.00    -0.268 OA
BRANCH  11  16
ATOM     14  C   UNL     1     -10.673   7.348  73.345  0.00  0.00    +0.076 C 
ATOM     15  C   UNL     1     -10.992   6.731  72.020  0.00  0.00    +0.159 A 
ATOM     16  C   UNL     1     -11.536   7.458  70.974  0.00  0.00    +0.111 A 
ATOM     17  C   UNL     1     -11.292   6.685  69.846  0.00  0.00    +0.148 A 
ATOM     18  N   UNL     1     -10.728   5.560  70.294  0.00  0.00    -0.076 NA
ATOM     19  O   UNL     1     -10.661   5.529  71.582  0.00  0.00    -0.358 OA
ENDBRANCH  11  16
ENDBRANCH   1  12
TORSDOF 3
ENDMDL
