MODEL 1
REMARK VINA RESULT:      -5.8      0.000      0.000
REMARK  Name = 
REMARK  12 active torsions:
REMARK  status: ('A' for Active; 'I' for Inactive)
REMARK    1  A    between atoms: N_2  and  C_3
REMARK    2  A    between atoms: C_6  and  C_7
REMARK    3  A    between atoms: C_8  and  C_9
REMARK    4  A    between atoms: C_12  and  O_13
REMARK    5  A    between atoms: O_13  and  C_14
REMARK    6  A    between atoms: C_14  and  C_15
REMARK    7  A    between atoms: C_15  and  O_16
REMARK    8  A    between atoms: O_16  and  C_17
REMARK    9  A    between atoms: C_17  and  C_18
REMARK   10  A    between atoms: C_18  and  O_19
REMARK   11  A    between atoms: O_19  and  C_20
REMARK   12  A    between atoms: C_20  and  C_21
REMARK                            x       y       z     vdW  Elec       q    Type
REMARK                         _______ _______ _______ _____ _____    ______ ____
ROOT
ATOM      1  C   UNL     1     -10.465  14.178  65.334  0.00  0.00    +0.019 A 
ATOM      2  C   UNL     1     -11.140  15.325  64.932  0.00  0.00    +0.102 A 
ATOM      3  N   UNL     1     -10.535  16.529  65.083  0.00  0.00    -0.210 NA
ATOM      4  C   UNL     1      -9.701  16.685  66.135  0.00  0.00    +0.225 A 
ATOM      5  C   UNL     1      -8.980  15.578  66.505  0.00  0.00    +0.058 A 
ATOM      6  C   UNL     1      -9.246  14.343  65.929  0.00  0.00    +0.006 A 
ENDROOT
BRANCH   1   8
ATOM      7  C   UNL     1     -11.688  12.158  65.340  0.00  0.00    +0.000 C 
ATOM      8  C   UNL     1     -10.864  12.944  64.645  0.00  0.00    +0.002 C 
BRANCH   7  12
ATOM      9  C   UNL     1     -10.844  10.409  69.051  0.00  0.00    +0.065 A 
ATOM     10  C   UNL     1     -10.639   9.729  67.855  0.00  0.00    +0.016 A 
ATOM     11  C   UNL     1     -10.567  10.522  66.715  0.00  0.00    +0.001 A 
ATOM     12  C   UNL     1     -11.182  11.767  66.663  0.00  0.00    +0.000 A 
ATOM     13  C   UNL     1     -11.841  12.145  67.827  0.00  0.00    +0.001 A 
ATOM     14  C   UNL     1     -11.249  11.738  69.017  0.00  0.00    +0.016 A 
BRANCH   9  16
ATOM     15  C   UNL     1     -11.403   9.566  71.316  0.00  0.00    +0.135 C 
ATOM     16  N   UNL     1     -10.438   9.822  70.277  0.00  0.00    -0.236 NA
ENDBRANCH   9  16
ENDBRANCH   7  12
ENDBRANCH   1   8
BRANCH   4  17
ATOM     17  O   UNL     1      -9.568  17.934  66.715  0.00  0.00    -0.457 OA
BRANCH  17  18
ATOM     18  C   UNL     1     -10.415  18.379  67.743  0.00  0.00    +0.239 C 
BRANCH  18  19
ATOM     19  C   UNL     1     -10.240  17.601  69.026  0.00  0.00    +0.189 C 
BRANCH  19  20
ATOM     20  O   UNL     1     -11.276  16.698  69.197  0.00  0.00    -0.347 OA
BRANCH  20  21
ATOM     21  C   UNL     1     -10.895  15.524  69.817  0.00  0.00    +0.174 C 
BRANCH  21  22
ATOM     22  C   UNL     1     -11.948  15.009  70.768  0.00  0.00    +0.174 C 
BRANCH  22  23
ATOM     23  O   UNL     1     -12.938  15.984  70.966  0.00  0.00    -0.348 OA
BRANCH  23  24
ATOM     24  C   UNL     1     -13.606  15.599  72.141  0.00  0.00    +0.180 C 
BRANCH  24  25
ATOM     25  C   UNL     1     -12.777  15.897  73.372  0.00  0.00    +0.225 C 
ATOM     26  F   UNL     1     -12.466  14.735  74.040  0.00  0.00    -0.232 F 
ENDBRANCH  24  25
ENDBRANCH  23  24
ENDBRANCH  22  23
ENDBRANCH  21  22
ENDBRANCH  20  21
ENDBRANCH  19  20
ENDBRANCH  18  19
ENDBRANCH  17  18
ENDBRANCH   4  17
TORSDOF 12
ENDMDL
MODEL 2
REMARK VINA RESULT:      -5.4      3.548      7.072
REMARK  Name = 
REMARK  12 active torsions:
REMARK  status: ('A' for Active; 'I' for Inactive)
REMARK    1  A    between atoms: N_2  and  C_3
REMARK    2  A    between atoms: C_6  and  C_7
REMARK    3  A    between atoms: C_8  and  C_9
REMARK    4  A    between atoms: C_12  and  O_13
REMARK    5  A    between atoms: O_13  and  C_14
REMARK    6  A    between atoms: C_14  and  C_15
REMARK    7  A    between atoms: C_15  and  O_16
REMARK    8  A    between atoms: O_16  and  C_17
REMARK    9  A    between atoms: C_17  and  C_18
REMARK   10  A    between atoms: C_18  and  O_19
REMARK   11  A    between atoms: O_19  and  C_20
REMARK   12  A    between atoms: C_20  and  C_21
REMARK                            x       y       z     vdW  Elec       q    Type
REMARK                         _______ _______ _______ _____ _____    ______ ____
ROOT
ATOM      1  C   UNL     1     -10.237  18.097  67.142  0.00  0.00    +0.019 A 
ATOM      2  C   UNL     1     -10.386  18.024  65.761  0.00  0.00    +0.102 A 
ATOM      3  N   UNL     1     -10.789  16.854  65.206  0.00  0.00    -0.210 NA
ATOM      4  C   UNL     1     -10.406  15.708  65.811  0.00  0.00    +0.225 A 
ATOM      5  C   UNL     1     -10.315  15.746  67.179  0.00  0.00    +0.058 A 
ATOM      6  C   UNL     1     -10.442  16.951  67.857  0.00  0.00    +0.006 A 
ENDROOT
BRANCH   1   8
ATOM      7  C   UNL     1      -9.452  20.316  67.333  0.00  0.00    +0.000 C 
ATOM      8  C   UNL     1     -10.384  19.442  67.716  0.00  0.00    +0.002 C 
BRANCH   7  12
ATOM      9  C   UNL     1      -5.481  19.814  68.563  0.00  0.00    +0.065 A 
ATOM     10  C   UNL     1      -6.538  19.787  69.466  0.00  0.00    +0.016 A 
ATOM     11  C   UNL     1      -7.794  19.562  68.917  0.00  0.00    +0.001 A 
ATOM     12  C   UNL     1      -8.071  19.886  67.594  0.00  0.00    +0.000 A 
ATOM     13  C   UNL     1      -7.004  20.422  66.885  0.00  0.00    +0.001 A 
ATOM     14  C   UNL     1      -5.749  19.914  67.204  0.00  0.00    +0.016 A 
BRANCH   9  16
ATOM     15  C   UNL     1      -3.813  18.196  69.435  0.00  0.00    +0.135 C 
ATOM     16  N   UNL     1      -4.163  19.527  69.007  0.00  0.00    -0.236 NA
ENDBRANCH   9  16
ENDBRANCH   7  12
ENDBRANCH   1   8
BRANCH   4  17
ATOM     17  O   UNL     1     -10.206  14.572  65.045  0.00  0.00    -0.457 OA
BRANCH  17  18
ATOM     18  C   UNL     1     -11.271  13.840  64.496  0.00  0.00    +0.239 C 
BRANCH  18  19
ATOM     19  C   UNL     1     -12.275  13.396  65.534  0.00  0.00    +0.189 C 
BRANCH  19  20
ATOM     20  O   UNL     1     -12.219  12.024  65.715  0.00  0.00    -0.347 OA
BRANCH  20  21
ATOM     21  C   UNL     1     -11.266  11.621  66.630  0.00  0.00    +0.174 C 
BRANCH  21  22
ATOM     22  C   UNL     1     -11.548  12.141  68.019  0.00  0.00    +0.174 C 
BRANCH  22  23
ATOM     23  O   UNL     1     -12.213  11.163  68.775  0.00  0.00    -0.348 OA
BRANCH  23  24
ATOM     24  C   UNL     1     -12.067  11.567  70.112  0.00  0.00    +0.180 C 
BRANCH  24  25
ATOM     25  C   UNL     1     -12.792  10.631  71.055  0.00  0.00    +0.225 C 
ATOM     26  F   UNL     1     -13.173  11.295  72.199  0.00  0.00    -0.232 F 
ENDBRANCH  24  25
ENDBRANCH  23  24
ENDBRANCH  22  23
ENDBRANCH  21  22
ENDBRANCH  20  21
ENDBRANCH  19  20
ENDBRANCH  18  19
ENDBRANCH  17  18
ENDBRANCH   4  17
TORSDOF 12
ENDMDL
MODEL 3
REMARK VINA RESULT:      -5.4      2.651      6.028
REMARK  Name = 
REMARK  12 active torsions:
REMARK  status: ('A' for Active; 'I' for Inactive)
REMARK    1  A    between atoms: N_2  and  C_3
REMARK    2  A    between atoms: C_6  and  C_7
REMARK    3  A    between atoms: C_8  and  C_9
REMARK    4  A    between atoms: C_12  and  O_13
REMARK    5  A    between atoms: O_13  and  C_14
REMARK    6  A    between atoms: C_14  and  C_15
REMARK    7  A    between atoms: C_15  and  O_16
REMARK    8  A    between atoms: O_16  and  C_17
REMARK    9  A    between atoms: C_17  and  C_18
REMARK   10  A    between atoms: C_18  and  O_19
REMARK   11  A    between atoms: O_19  and  C_20
REMARK   12  A    between atoms: C_20  and  C_21
REMARK                            x       y       z     vdW  Elec       q    Type
REMARK                         _______ _______ _______ _____ _____    ______ ____
ROOT
ATOM      1  C   UNL     1     -11.483  13.995  66.599  0.00  0.00    +0.019 A 
ATOM      2  C   UNL     1     -11.544  12.618  66.415  0.00  0.00    +0.102 A 
ATOM      3  N   UNL     1     -11.912  11.832  67.457  0.00  0.00    -0.210 NA
ATOM      4  C   UNL     1     -11.568  12.237  68.700  0.00  0.00    +0.225 A 
ATOM      5  C   UNL     1     -11.564  13.592  68.916  0.00  0.00    +0.058 A 
ATOM      6  C   UNL     1     -11.733  14.472  67.855  0.00  0.00    +0.006 A 
ENDROOT
BRANCH   1   8
ATOM      7  C   UNL     1     -10.570  15.434  64.965  0.00  0.00    +0.000 C 
ATOM      8  C   UNL     1     -11.665  14.797  65.381  0.00  0.00    +0.002 C 
BRANCH   7  12
ATOM      9  C   UNL     1      -8.608  18.425  67.142  0.00  0.00    +0.065 A 
ATOM     10  C   UNL     1      -9.761  18.687  66.410  0.00  0.00    +0.016 A 
ATOM     11  C   UNL     1     -10.527  17.577  66.075  0.00  0.00    +0.001 A 
ATOM     12  C   UNL     1      -9.958  16.313  65.971  0.00  0.00    +0.000 A 
ATOM     13  C   UNL     1      -8.596  16.258  66.243  0.00  0.00    +0.001 A 
ATOM     14  C   UNL     1      -8.142  17.120  67.235  0.00  0.00    +0.016 A 
BRANCH   9  16
ATOM     15  C   UNL     1      -7.245  20.487  67.365  0.00  0.00    +0.135 C 
ATOM     16  N   UNL     1      -8.041  19.441  67.955  0.00  0.00    -0.236 NA
ENDBRANCH   9  16
ENDBRANCH   7  12
ENDBRANCH   1   8
BRANCH   4  17
ATOM     17  O   UNL     1     -11.321  11.289  69.677  0.00  0.00    -0.457 OA
BRANCH  17  18
ATOM     18  C   UNL     1     -12.182  10.203  69.906  0.00  0.00    +0.239 C 
BRANCH  18  19
ATOM     19  C   UNL     1     -13.059  10.395  71.121  0.00  0.00    +0.189 C 
BRANCH  19  20
ATOM     20  O   UNL     1     -12.654  11.503  71.847  0.00  0.00    -0.347 OA
BRANCH  20  21
ATOM     21  C   UNL     1     -13.691  12.341  72.209  0.00  0.00    +0.174 C 
BRANCH  21  22
ATOM     22  C   UNL     1     -13.375  13.793  71.943  0.00  0.00    +0.174 C 
BRANCH  22  23
ATOM     23  O   UNL     1     -13.499  14.538  73.126  0.00  0.00    -0.348 OA
BRANCH  23  24
ATOM     24  C   UNL     1     -12.344  15.336  73.183  0.00  0.00    +0.180 C 
BRANCH  24  25
ATOM     25  C   UNL     1     -12.431  16.357  74.297  0.00  0.00    +0.225 C 
ATOM     26  F   UNL     1     -12.471  15.733  75.524  0.00  0.00    -0.232 F 
ENDBRANCH  24  25
ENDBRANCH  23  24
ENDBRANCH  22  23
ENDBRANCH  21  22
ENDBRANCH  20  21
ENDBRANCH  19  20
ENDBRANCH  18  19
ENDBRANCH  17  18
ENDBRANCH   4  17
TORSDOF 12
ENDMDL
MODEL 4
REMARK VINA RESULT:      -5.4      2.645      3.680
REMARK  Name = 
REMARK  12 active torsions:
REMARK  status: ('A' for Active; 'I' for Inactive)
REMARK    1  A    between atoms: N_2  and  C_3
REMARK    2  A    between atoms: C_6  and  C_7
REMARK    3  A    between atoms: C_8  and  C_9
REMARK    4  A    between atoms: C_12  and  O_13
REMARK    5  A    between atoms: O_13  and  C_14
REMARK    6  A    between atoms: C_14  and  C_15
REMARK    7  A    between atoms: C_15  and  O_16
REMARK    8  A    between atoms: O_16  and  C_17
REMARK    9  A    between atoms: C_17  and  C_18
REMARK   10  A    between atoms: C_18  and  O_19
REMARK   11  A    between atoms: O_19  and  C_20
REMARK   12  A    between atoms: C_20  and  C_21
REMARK                            x       y       z     vdW  Elec       q    Type
REMARK                         _______ _______ _______ _____ _____    ______ ____
ROOT
ATOM      1  C   UNL     1     -11.936  13.859  64.745  0.00  0.00    +0.019 A 
ATOM      2  C   UNL     1     -10.800  14.661  64.729  0.00  0.00    +0.102 A 
ATOM      3  N   UNL     1     -10.179  14.944  65.900  0.00  0.00    -0.210 NA
ATOM      4  C   UNL     1     -10.947  15.047  67.008  0.00  0.00    +0.225 A 
ATOM      5  C   UNL     1     -12.037  14.217  67.068  0.00  0.00    +0.058 A 
ATOM      6  C   UNL     1     -12.403  13.457  65.965  0.00  0.00    +0.006 A 
ENDROOT
BRANCH   1   8
ATOM      7  C   UNL     1     -11.965  11.815  63.564  0.00  0.00    +0.000 C 
ATOM      8  C   UNL     1     -12.202  13.126  63.500  0.00  0.00    +0.002 C 
BRANCH   7  12
ATOM      9  C   UNL     1      -8.204  10.112  64.267  0.00  0.00    +0.065 A 
ATOM     10  C   UNL     1      -8.589  10.544  63.003  0.00  0.00    +0.016 A 
ATOM     11  C   UNL     1      -9.657  11.433  62.969  0.00  0.00    +0.001 A 
ATOM     12  C   UNL     1     -10.602  11.464  63.988  0.00  0.00    +0.000 A 
ATOM     13  C   UNL     1     -10.379  10.563  65.023  0.00  0.00    +0.001 A 
ATOM     14  C   UNL     1      -9.047  10.335  65.348  0.00  0.00    +0.016 A 
BRANCH   9  16
ATOM     15  C   UNL     1      -5.804  10.094  63.636  0.00  0.00    +0.135 C 
ATOM     16  N   UNL     1      -6.881   9.646  64.482  0.00  0.00    -0.236 NA
ENDBRANCH   9  16
ENDBRANCH   7  12
ENDBRANCH   1   8
BRANCH   4  17
ATOM     17  O   UNL     1     -10.560  15.904  68.023  0.00  0.00    -0.457 OA
BRANCH  17  18
ATOM     18  C   UNL     1     -11.360  16.141  69.152  0.00  0.00    +0.239 C 
BRANCH  18  19
ATOM     19  C   UNL     1     -10.905  15.367  70.367  0.00  0.00    +0.189 C 
BRANCH  19  20
ATOM     20  O   UNL     1     -11.846  14.417  70.725  0.00  0.00    -0.347 OA
BRANCH  20  21
ATOM     21  C   UNL     1     -13.134  14.912  70.806  0.00  0.00    +0.174 C 
BRANCH  21  22
ATOM     22  C   UNL     1     -13.424  15.542  72.147  0.00  0.00    +0.174 C 
BRANCH  22  23
ATOM     23  O   UNL     1     -13.403  14.564  73.154  0.00  0.00    -0.348 OA
BRANCH  23  24
ATOM     24  C   UNL     1     -12.341  14.927  73.998  0.00  0.00    +0.180 C 
BRANCH  24  25
ATOM     25  C   UNL     1     -12.382  16.402  74.337  0.00  0.00    +0.225 C 
ATOM     26  F   UNL     1     -12.306  16.588  75.699  0.00  0.00    -0.232 F 
ENDBRANCH  24  25
ENDBRANCH  23  24
ENDBRANCH  22  23
ENDBRANCH  21  22
ENDBRANCH  20  21
ENDBRANCH  19  20
ENDBRANCH  18  19
ENDBRANCH  17  18
ENDBRANCH   4  17
TORSDOF 12
ENDMDL
MODEL 5
REMARK VINA RESULT:      -5.3      3.392      7.246
REMARK  Name = 
REMARK  12 active torsions:
REMARK  status: ('A' for Active; 'I' for Inactive)
REMARK    1  A    between atoms: N_2  and  C_3
REMARK    2  A    between atoms: C_6  and  C_7
REMARK    3  A    between atoms: C_8  and  C_9
REMARK    4  A    between atoms: C_12  and  O_13
REMARK    5  A    between atoms: O_13  and  C_14
REMARK    6  A    between atoms: C_14  and  C_15
REMARK    7  A    between atoms: C_15  and  O_16
REMARK    8  A    between atoms: O_16  and  C_17
REMARK    9  A    between atoms: C_17  and  C_18
REMARK   10  A    between atoms: C_18  and  O_19
REMARK   11  A    between atoms: O_19  and  C_20
REMARK   12  A    between atoms: C_20  and  C_21
REMARK                            x       y       z     vdW  Elec       q    Type
REMARK                         _______ _______ _______ _____ _____    ______ ____
ROOT
ATOM      1  C   UNL     1     -10.380  15.204  67.578  0.00  0.00    +0.019 A 
ATOM      2  C   UNL     1     -11.699  14.762  67.563  0.00  0.00    +0.102 A 
ATOM      3  N   UNL     1     -12.142  14.055  66.494  0.00  0.00    -0.210 NA
ATOM      4  C   UNL     1     -11.613  14.347  65.285  0.00  0.00    +0.225 A 
ATOM      5  C   UNL     1     -10.294  14.724  65.276  0.00  0.00    +0.058 A 
ATOM      6  C   UNL     1      -9.622  14.953  66.469  0.00  0.00    +0.006 A 
ENDROOT
BRANCH   1   8
ATOM      7  C   UNL     1      -9.933  16.660  69.382  0.00  0.00    +0.000 C 
ATOM      8  C   UNL     1      -9.808  15.417  68.914  0.00  0.00    +0.002 C 
BRANCH   7  12
ATOM      9  C   UNL     1      -8.048  19.963  67.630  0.00  0.00    +0.065 A 
ATOM     10  C   UNL     1      -7.331  18.984  68.307  0.00  0.00    +0.016 A 
ATOM     11  C   UNL     1      -7.987  17.771  68.486  0.00  0.00    +0.001 A 
ATOM     12  C   UNL     1      -9.375  17.698  68.505  0.00  0.00    +0.000 A 
ATOM     13  C   UNL     1     -10.029  18.910  68.318  0.00  0.00    +0.001 A 
ATOM     14  C   UNL     1      -9.415  19.799  67.443  0.00  0.00    +0.016 A 
BRANCH   9  16
ATOM     15  C   UNL     1      -5.956  21.223  67.193  0.00  0.00    +0.135 C 
ATOM     16  N   UNL     1      -7.359  21.004  66.954  0.00  0.00    -0.236 NA
ENDBRANCH   9  16
ENDBRANCH   7  12
ENDBRANCH   1   8
BRANCH   4  17
ATOM     17  O   UNL     1     -12.387  14.183  64.150  0.00  0.00    -0.457 OA
BRANCH  17  18
ATOM     18  C   UNL     1     -12.167  13.139  63.236  0.00  0.00    +0.239 C 
BRANCH  18  19
ATOM     19  C   UNL     1     -11.917  11.811  63.911  0.00  0.00    +0.189 C 
BRANCH  19  20
ATOM     20  O   UNL     1     -10.834  11.166  63.338  0.00  0.00    -0.347 OA
BRANCH  20  21
ATOM     21  C   UNL     1      -9.829  10.861  64.235  0.00  0.00    +0.174 C 
BRANCH  21  22
ATOM     22  C   UNL     1     -10.313  10.870  65.665  0.00  0.00    +0.174 C 
BRANCH  22  23
ATOM     23  O   UNL     1      -9.382  11.526  66.485  0.00  0.00    -0.348 OA
BRANCH  23  24
ATOM     24  C   UNL     1      -9.896  11.418  67.787  0.00  0.00    +0.180 C 
BRANCH  24  25
ATOM     25  C   UNL     1     -11.261  10.763  67.791  0.00  0.00    +0.225 C 
ATOM     26  F   UNL     1     -12.160  11.521  68.506  0.00  0.00    -0.232 F 
ENDBRANCH  24  25
ENDBRANCH  23  24
ENDBRANCH  22  23
ENDBRANCH  21  22
ENDBRANCH  20  21
ENDBRANCH  19  20
ENDBRANCH  18  19
ENDBRANCH  17  18
ENDBRANCH   4  17
TORSDOF 12
ENDMDL
MODEL 6
REMARK VINA RESULT:      -5.3      2.847      4.161
REMARK  Name = 
REMARK  12 active torsions:
REMARK  status: ('A' for Active; 'I' for Inactive)
REMARK    1  A    between atoms: N_2  and  C_3
REMARK    2  A    between atoms: C_6  and  C_7
REMARK    3  A    between atoms: C_8  and  C_9
REMARK    4  A    between atoms: C_12  and  O_13
REMARK    5  A    between atoms: O_13  and  C_14
REMARK    6  A    between atoms: C_14  and  C_15
REMARK    7  A    between atoms: C_15  and  O_16
REMARK    8  A    between atoms: O_16  and  C_17
REMARK    9  A    between atoms: C_17  and  C_18
REMARK   10  A    between atoms: C_18  and  O_19
REMARK   11  A    between atoms: O_19  and  C_20
REMARK   12  A    between atoms: C_20  and  C_21
REMARK                            x       y       z     vdW  Elec       q    Type
REMARK                         _______ _______ _______ _____ _____    ______ ____
ROOT
ATOM      1  C   UNL     1     -10.593  14.578  65.020  0.00  0.00    +0.019 A 
ATOM      2  C   UNL     1     -11.444  15.532  64.474  0.00  0.00    +0.102 A 
ATOM      3  N   UNL     1     -11.108  16.842  64.567  0.00  0.00    -0.210 NA
ATOM      4  C   UNL     1     -10.419  17.236  65.661  0.00  0.00    +0.225 A 
ATOM      5  C   UNL     1      -9.527  16.329  66.175  0.00  0.00    +0.058 A 
ATOM      6  C   UNL     1      -9.488  15.030  65.686  0.00  0.00    +0.006 A 
ENDROOT
BRANCH   1   8
ATOM      7  C   UNL     1     -11.544  12.417  64.991  0.00  0.00    +0.000 C 
ATOM      8  C   UNL     1     -10.674  13.244  64.408  0.00  0.00    +0.002 C 
BRANCH   7  12
ATOM      9  C   UNL     1     -11.588  11.295  69.025  0.00  0.00    +0.065 A 
ATOM     10  C   UNL     1     -11.304  10.385  68.013  0.00  0.00    +0.016 A 
ATOM     11  C   UNL     1     -10.928  10.936  66.794  0.00  0.00    +0.001 A 
ATOM     12  C   UNL     1     -11.323  12.218  66.430  0.00  0.00    +0.000 A 
ATOM     13  C   UNL     1     -12.091  12.886  67.375  0.00  0.00    +0.001 A 
ATOM     14  C   UNL     1     -11.768  12.635  68.704  0.00  0.00    +0.016 A 
BRANCH   9  16
ATOM     15  C   UNL     1     -12.661  10.754  71.195  0.00  0.00    +0.135 C 
ATOM     16  N   UNL     1     -11.480  10.899  70.384  0.00  0.00    -0.236 NA
ENDBRANCH   9  16
ENDBRANCH   7  12
ENDBRANCH   1   8
BRANCH   4  17
ATOM     17  O   UNL     1     -10.590  18.522  66.142  0.00  0.00    -0.457 OA
BRANCH  17  18
ATOM     18  C   UNL     1     -10.486  18.834  67.508  0.00  0.00    +0.239 C 
BRANCH  18  19
ATOM     19  C   UNL     1      -9.503  19.948  67.783  0.00  0.00    +0.189 C 
BRANCH  19  20
ATOM     20  O   UNL     1      -8.547  20.016  66.784  0.00  0.00    -0.347 OA
BRANCH  20  21
ATOM     21  C   UNL     1      -7.354  20.578  67.192  0.00  0.00    +0.174 C 
BRANCH  21  22
ATOM     22  C   UNL     1      -6.812  19.930  68.443  0.00  0.00    +0.174 C 
BRANCH  22  23
ATOM     23  O   UNL     1      -5.939  20.808  69.103  0.00  0.00    -0.348 OA
BRANCH  23  24
ATOM     24  C   UNL     1      -5.537  20.128  70.264  0.00  0.00    +0.180 C 
BRANCH  24  25
ATOM     25  C   UNL     1      -5.731  18.633  70.125  0.00  0.00    +0.225 C 
ATOM     26  F   UNL     1      -5.376  17.988  71.287  0.00  0.00    -0.232 F 
ENDBRANCH  24  25
ENDBRANCH  23  24
ENDBRANCH  22  23
ENDBRANCH  21  22
ENDBRANCH  20  21
ENDBRANCH  19  20
ENDBRANCH  18  19
ENDBRANCH  17  18
ENDBRANCH   4  17
TORSDOF 12
ENDMDL
MODEL 7
REMARK VINA RESULT:      -5.2      3.868      6.147
REMARK  Name = 
REMARK  12 active torsions:
REMARK  status: ('A' for Active; 'I' for Inactive)
REMARK    1  A    between atoms: N_2  and  C_3
REMARK    2  A    between atoms: C_6  and  C_7
REMARK    3  A    between atoms: C_8  and  C_9
REMARK    4  A    between atoms: C_12  and  O_13
REMARK    5  A    between atoms: O_13  and  C_14
REMARK    6  A    between atoms: C_14  and  C_15
REMARK    7  A    between atoms: C_15  and  O_16
REMARK    8  A    between atoms: O_16  and  C_17
REMARK    9  A    between atoms: C_17  and  C_18
REMARK   10  A    between atoms: C_18  and  O_19
REMARK   11  A    between atoms: O_19  and  C_20
REMARK   12  A    between atoms: C_20  and  C_21
REMARK                            x       y       z     vdW  Elec       q    Type
REMARK                         _______ _______ _______ _____ _____    ______ ____
ROOT
ATOM      1  C   UNL     1     -11.559  14.191  66.788  0.00  0.00    +0.019 A 
ATOM      2  C   UNL     1     -10.337  14.061  66.138  0.00  0.00    +0.102 A 
ATOM      3  N   UNL     1     -10.323  13.703  64.830  0.00  0.00    -0.210 NA
ATOM      4  C   UNL     1     -11.302  12.879  64.396  0.00  0.00    +0.225 A 
ATOM      5  C   UNL     1     -12.532  13.037  64.982  0.00  0.00    +0.058 A 
ATOM      6  C   UNL     1     -12.684  13.878  66.077  0.00  0.00    +0.006 A 
ENDROOT
BRANCH   1   8
ATOM      7  C   UNL     1     -11.098  14.576  69.071  0.00  0.00    +0.000 C 
ATOM      8  C   UNL     1     -11.562  15.105  67.938  0.00  0.00    +0.002 C 
BRANCH   7  12
ATOM      9  C   UNL     1     -12.578  11.170  71.005  0.00  0.00    +0.065 A 
ATOM     10  C   UNL     1     -12.787  12.449  71.509  0.00  0.00    +0.016 A 
ATOM     11  C   UNL     1     -12.612  13.489  70.604  0.00  0.00    +0.001 A 
ATOM     12  C   UNL     1     -11.786  13.349  69.495  0.00  0.00    +0.000 A 
ATOM     13  C   UNL     1     -11.182  12.104  69.366  0.00  0.00    +0.001 A 
ATOM     14  C   UNL     1     -11.945  11.017  69.778  0.00  0.00    +0.016 A 
BRANCH   9  16
ATOM     15  C   UNL     1     -12.691   8.723  71.403  0.00  0.00    +0.135 C 
ATOM     16  N   UNL     1     -13.194  10.054  71.630  0.00  0.00    -0.236 NA
ENDBRANCH   9  16
ENDBRANCH   7  12
ENDBRANCH   1   8
BRANCH   4  17
ATOM     17  O   UNL     1     -11.038  11.999  63.361  0.00  0.00    -0.457 OA
BRANCH  17  18
ATOM     18  C   UNL     1      -9.807  11.334  63.236  0.00  0.00    +0.239 C 
BRANCH  18  19
ATOM     19  C   UNL     1      -9.739  10.067  64.055  0.00  0.00    +0.189 C 
BRANCH  19  20
ATOM     20  O   UNL     1      -9.286  10.334  65.336  0.00  0.00    -0.347 OA
BRANCH  20  21
ATOM     21  C   UNL     1     -10.184   9.992  66.328  0.00  0.00    +0.174 C 
BRANCH  21  22
ATOM     22  C   UNL     1      -9.625   8.961  67.278  0.00  0.00    +0.174 C 
BRANCH  22  23
ATOM     23  O   UNL     1      -9.590   7.702  66.657  0.00  0.00    -0.348 OA
BRANCH  23  24
ATOM     24  C   UNL     1     -10.833   7.114  66.945  0.00  0.00    +0.180 C 
BRANCH  24  25
ATOM     25  C   UNL     1     -10.712   6.068  68.032  0.00  0.00    +0.225 C 
ATOM     26  F   UNL     1     -11.673   6.260  68.998  0.00  0.00    -0.232 F 
ENDBRANCH  24  25
ENDBRANCH  23  24
ENDBRANCH  22  23
ENDBRANCH  21  22
ENDBRANCH  20  21
ENDBRANCH  19  20
ENDBRANCH  18  19
ENDBRANCH  17  18
ENDBRANCH   4  17
TORSDOF 12
ENDMDL
MODEL 8
REMARK VINA RESULT:      -5.2      3.452      6.146
REMARK  Name = 
REMARK  12 active torsions:
REMARK  status: ('A' for Active; 'I' for Inactive)
REMARK    1  A    between atoms: N_2  and  C_3
REMARK    2  A    between atoms: C_6  and  C_7
REMARK    3  A    between atoms: C_8  and  C_9
REMARK    4  A    between atoms: C_12  and  O_13
REMARK    5  A    between atoms: O_13  and  C_14
REMARK    6  A    between atoms: C_14  and  C_15
REMARK    7  A    between atoms: C_15  and  O_16
REMARK    8  A    between atoms: O_16  and  C_17
REMARK    9  A    between atoms: C_17  and  C_18
REMARK   10  A    between atoms: C_18  and  O_19
REMARK   11  A    between atoms: O_19  and  C_20
REMARK   12  A    between atoms: C_20  and  C_21
REMARK                            x       y       z     vdW  Elec       q    Type
REMARK                         _______ _______ _______ _____ _____    ______ ____
ROOT
ATOM      1  C   UNL     1     -12.072  11.250  69.980  0.00  0.00    +0.019 A 
ATOM      2  C   UNL     1     -11.963  12.613  70.228  0.00  0.00    +0.102 A 
ATOM      3  N   UNL     1     -11.527  13.429  69.236  0.00  0.00    -0.210 NA
ATOM      4  C   UNL     1     -10.631  12.925  68.359  0.00  0.00    +0.225 A 
ATOM      5  C   UNL     1     -10.764  11.594  68.054  0.00  0.00    +0.058 A 
ATOM      6  C   UNL     1     -11.661  10.800  68.756  0.00  0.00    +0.006 A 
ENDROOT
BRANCH   1   8
ATOM      7  C   UNL     1     -12.523   9.786  71.777  0.00  0.00    +0.000 C 
ATOM      8  C   UNL     1     -13.053  10.539  70.811  0.00  0.00    +0.002 C 
BRANCH   7  12
ATOM      9  C   UNL     1      -9.984   6.512  71.164  0.00  0.00    +0.065 A 
ATOM     10  C   UNL     1     -11.368   6.374  71.185  0.00  0.00    +0.016 A 
ATOM     11  C   UNL     1     -12.094   7.544  70.993  0.00  0.00    +0.001 A 
ATOM     12  C   UNL     1     -11.555   8.786  71.306  0.00  0.00    +0.000 A 
ATOM     13  C   UNL     1     -10.255   8.756  71.797  0.00  0.00    +0.001 A 
ATOM     14  C   UNL     1      -9.426   7.781  71.253  0.00  0.00    +0.016 A 
BRANCH   9  16
ATOM     15  C   UNL     1      -9.630   4.401  69.909  0.00  0.00    +0.135 C 
ATOM     16  N   UNL     1      -9.167   5.398  70.841  0.00  0.00    -0.236 NA
ENDBRANCH   9  16
ENDBRANCH   7  12
ENDBRANCH   1   8
BRANCH   4  17
ATOM     17  O   UNL     1      -9.704  13.771  67.776  0.00  0.00    -0.457 OA
BRANCH  17  18
ATOM     18  C   UNL     1      -9.995  15.112  67.478  0.00  0.00    +0.239 C 
BRANCH  18  19
ATOM     19  C   UNL     1      -9.484  15.536  66.120  0.00  0.00    +0.189 C 
BRANCH  19  20
ATOM     20  O   UNL     1     -10.020  14.739  65.124  0.00  0.00    -0.347 OA
BRANCH  20  21
ATOM     21  C   UNL     1     -11.372  14.935  64.920  0.00  0.00    +0.174 C 
BRANCH  21  22
ATOM     22  C   UNL     1     -12.138  13.636  64.858  0.00  0.00    +0.174 C 
BRANCH  22  23
ATOM     23  O   UNL     1     -12.542  13.377  63.539  0.00  0.00    -0.348 OA
BRANCH  23  24
ATOM     24  C   UNL     1     -12.348  11.997  63.358  0.00  0.00    +0.180 C 
BRANCH  24  25
ATOM     25  C   UNL     1     -10.899  11.611  63.562  0.00  0.00    +0.225 C 
ATOM     26  F   UNL     1     -10.799  10.543  64.423  0.00  0.00    -0.232 F 
ENDBRANCH  24  25
ENDBRANCH  23  24
ENDBRANCH  22  23
ENDBRANCH  21  22
ENDBRANCH  20  21
ENDBRANCH  19  20
ENDBRANCH  18  19
ENDBRANCH  17  18
ENDBRANCH   4  17
TORSDOF 12
ENDMDL
MODEL 9
REMARK VINA RESULT:      -5.2      4.425      7.620
REMARK  Name = 
REMARK  12 active torsions:
REMARK  status: ('A' for Active; 'I' for Inactive)
REMARK    1  A    between atoms: N_2  and  C_3
REMARK    2  A    between atoms: C_6  and  C_7
REMARK    3  A    between atoms: C_8  and  C_9
REMARK    4  A    between atoms: C_12  and  O_13
REMARK    5  A    between atoms: O_13  and  C_14
REMARK    6  A    between atoms: C_14  and  C_15
REMARK    7  A    between atoms: C_15  and  O_16
REMARK    8  A    between atoms: O_16  and  C_17
REMARK    9  A    between atoms: C_17  and  C_18
REMARK   10  A    between atoms: C_18  and  O_19
REMARK   11  A    between atoms: O_19  and  C_20
REMARK   12  A    between atoms: C_20  and  C_21
REMARK                            x       y       z     vdW  Elec       q    Type
REMARK                         _______ _______ _______ _____ _____    ______ ____
ROOT
ATOM      1  C   UNL     1      -8.321  19.641  67.500  0.00  0.00    +0.019 A 
ATOM      2  C   UNL     1      -8.509  19.089  66.238  0.00  0.00    +0.102 A 
ATOM      3  N   UNL     1      -9.581  18.286  66.025  0.00  0.00    -0.210 NA
ATOM      4  C   UNL     1     -10.014  17.531  67.059  0.00  0.00    +0.225 A 
ATOM      5  C   UNL     1      -9.894  18.087  68.307  0.00  0.00    +0.058 A 
ATOM      6  C   UNL     1      -9.203  19.279  68.481  0.00  0.00    +0.006 A 
ENDROOT
BRANCH   1   8
ATOM      7  C   UNL     1      -6.234  20.743  67.470  0.00  0.00    +0.000 C 
ATOM      8  C   UNL     1      -7.558  20.896  67.527  0.00  0.00    +0.002 C 
BRANCH   7  12
ATOM      9  C   UNL     1      -5.404  17.854  70.385  0.00  0.00    +0.065 A 
ATOM     10  C   UNL     1      -5.589  17.517  69.049  0.00  0.00    +0.016 A 
ATOM     11  C   UNL     1      -5.456  18.559  68.139  0.00  0.00    +0.001 A 
ATOM     12  C   UNL     1      -5.676  19.878  68.518  0.00  0.00    +0.000 A 
ATOM     13  C   UNL     1      -6.013  20.057  69.854  0.00  0.00    +0.001 A 
ATOM     14  C   UNL     1      -5.398  19.194  70.754  0.00  0.00    +0.016 A 
BRANCH   9  16
ATOM     15  C   UNL     1      -5.064  15.465  70.961  0.00  0.00    +0.135 C 
ATOM     16  N   UNL     1      -5.012  16.859  71.318  0.00  0.00    -0.236 NA
ENDBRANCH   9  16
ENDBRANCH   7  12
ENDBRANCH   1   8
BRANCH   4  17
ATOM     17  O   UNL     1     -10.606  16.307  66.803  0.00  0.00    -0.457 OA
BRANCH  17  18
ATOM     18  C   UNL     1     -10.502  15.222  67.688  0.00  0.00    +0.239 C 
BRANCH  18  19
ATOM     19  C   UNL     1     -11.790  14.441  67.813  0.00  0.00    +0.189 C 
BRANCH  19  20
ATOM     20  O   UNL     1     -11.869  13.465  66.835  0.00  0.00    -0.347 OA
BRANCH  20  21
ATOM     21  C   UNL     1     -12.620  13.836  65.737  0.00  0.00    +0.174 C 
BRANCH  21  22
ATOM     22  C   UNL     1     -11.815  13.828  64.460  0.00  0.00    +0.174 C 
BRANCH  22  23
ATOM     23  O   UNL     1     -12.586  13.310  63.407  0.00  0.00    -0.348 OA
BRANCH  23  24
ATOM     24  C   UNL     1     -12.420  11.917  63.478  0.00  0.00    +0.180 C 
BRANCH  24  25
ATOM     25  C   UNL     1     -10.955  11.533  63.457  0.00  0.00    +0.225 C 
ATOM     26  F   UNL     1     -10.670  10.658  64.480  0.00  0.00    -0.232 F 
ENDBRANCH  24  25
ENDBRANCH  23  24
ENDBRANCH  22  23
ENDBRANCH  21  22
ENDBRANCH  20  21
ENDBRANCH  19  20
ENDBRANCH  18  19
ENDBRANCH  17  18
ENDBRANCH   4  17
TORSDOF 12
ENDMDL
