MODEL 1
REMARK VINA RESULT:      -6.7      0.000      0.000
REMARK  Name = 
REMARK  4 active torsions:
REMARK  status: ('A' for Active; 'I' for Inactive)
REMARK    1  A    between atoms: N_2  and  C_4
REMARK    2  A    between atoms: C_4  and  C_5
REMARK    3  A    between atoms: C_5  and  C_6
REMARK    4  A    between atoms: C_6  and  N_7
REMARK                            x       y       z     vdW  Elec       q    Type
REMARK                         _______ _______ _______ _____ _____    ______ ____
ROOT
ATOM      1  N   UNL     1     -11.587  14.520  69.102  0.00  0.00    -0.287 N 
ATOM      2  C   UNL     1     -11.301  13.535  68.106  0.00  0.00    +0.048 A 
ATOM      3  C   UNL     1     -11.497  12.163  68.174  0.00  0.00    -0.008 A 
ATOM      4  C   UNL     1     -11.404  11.454  66.989  0.00  0.00    -0.003 A 
ATOM      5  C   UNL     1     -11.486  12.070  65.746  0.00  0.00    -0.000 A 
ATOM      6  C   UNL     1     -11.307  13.427  65.680  0.00  0.00    +0.001 A 
ATOM      7  C   UNL     1     -12.193  11.325  69.194  0.00  0.00    +0.032 C 
ATOM      8  C   UNL     1     -11.907  11.779  70.601  0.00  0.00    +0.032 C 
ATOM      9  C   UNL     1     -12.582  13.064  70.896  0.00  0.00    -0.008 A 
ATOM     10  C   UNL     1     -13.484  13.002  71.949  0.00  0.00    -0.003 A 
ATOM     11  C   UNL     1     -14.271  14.129  72.150  0.00  0.00    -0.000 A 
ATOM     12  C   UNL     1     -13.618  15.340  71.954  0.00  0.00    +0.001 A 
ATOM     13  C   UNL     1     -12.581  15.431  71.034  0.00  0.00    +0.015 A 
ATOM     14  C   UNL     1     -11.158  14.138  66.861  0.00  0.00    +0.015 A 
ATOM     15  C   UNL     1     -12.243  14.291  70.346  0.00  0.00    +0.048 A 
ENDROOT
BRANCH   1  16
ATOM     16  C   UNL     1     -11.764  15.873  68.604  0.00  0.00    +0.097 C 
BRANCH  16  17
ATOM     17  C   UNL     1     -10.535  16.726  68.797  0.00  0.00    +0.039 C 
BRANCH  17  18
ATOM     18  C   UNL     1     -10.249  17.526  67.532  0.00  0.00    +0.074 C 
BRANCH  18  20
ATOM     19  C   UNL     1     -10.579  19.642  66.426  0.00  0.00    +0.090 C 
ATOM     20  N   UNL     1     -10.648  18.916  67.675  0.00  0.00    -0.270 NA
ATOM     21  C   UNL     1      -9.797  19.611  68.638  0.00  0.00    +0.090 C 
ENDBRANCH  18  20
ENDBRANCH  17  18
ENDBRANCH  16  17
ENDBRANCH   1  16
TORSDOF 4
ENDMDL
MODEL 2
REMARK VINA RESULT:      -6.7      2.244      6.958
REMARK  Name = 
REMARK  4 active torsions:
REMARK  status: ('A' for Active; 'I' for Inactive)
REMARK    1  A    between atoms: N_2  and  C_4
REMARK    2  A    between atoms: C_4  and  C_5
REMARK    3  A    between atoms: C_5  and  C_6
REMARK    4  A    between atoms: C_6  and  N_7
REMARK                            x       y       z     vdW  Elec       q    Type
REMARK                         _______ _______ _______ _____ _____    ______ ____
ROOT
ATOM      1  N   UNL     1     -11.798  12.573  69.522  0.00  0.00    -0.287 N 
ATOM      2  C   UNL     1     -12.196  13.511  70.527  0.00  0.00    +0.048 A 
ATOM      3  C   UNL     1     -12.272  14.892  70.430  0.00  0.00    -0.008 A 
ATOM      4  C   UNL     1     -12.945  15.558  71.439  0.00  0.00    -0.003 A 
ATOM      5  C   UNL     1     -13.821  14.910  72.302  0.00  0.00    -0.000 A 
ATOM      6  C   UNL     1     -13.756  13.544  72.387  0.00  0.00    +0.001 A 
ATOM      7  C   UNL     1     -12.131  15.799  69.253  0.00  0.00    +0.032 C 
ATOM      8  C   UNL     1     -11.019  15.373  68.331  0.00  0.00    +0.032 C 
ATOM      9  C   UNL     1     -11.376  14.137  67.598  0.00  0.00    -0.008 A 
ATOM     10  C   UNL     1     -11.389  14.281  66.217  0.00  0.00    -0.003 A 
ATOM     11  C   UNL     1     -11.889  13.205  65.492  0.00  0.00    -0.000 A 
ATOM     12  C   UNL     1     -11.541  11.955  65.990  0.00  0.00    +0.001 A 
ATOM     13  C   UNL     1     -11.340  11.778  67.353  0.00  0.00    +0.015 A 
ATOM     14  C   UNL     1     -12.900  12.862  71.537  0.00  0.00    +0.015 A 
ATOM     15  C   UNL     1     -11.496  12.877  68.163  0.00  0.00    +0.048 A 
ENDROOT
BRANCH   1  16
ATOM     16  C   UNL     1     -12.284  11.218  69.711  0.00  0.00    +0.097 C 
BRANCH  16  17
ATOM     17  C   UNL     1     -11.186  10.257  70.094  0.00  0.00    +0.039 C 
BRANCH  17  18
ATOM     18  C   UNL     1     -11.534   9.558  71.401  0.00  0.00    +0.074 C 
BRANCH  18  20
ATOM     19  C   UNL     1     -13.700   9.006  72.304  0.00  0.00    +0.090 C 
ATOM     20  N   UNL     1     -12.726   8.736  71.269  0.00  0.00    -0.270 NA
ATOM     21  C   UNL     1     -12.396   7.315  71.333  0.00  0.00    +0.090 C 
ENDBRANCH  18  20
ENDBRANCH  17  18
ENDBRANCH  16  17
ENDBRANCH   1  16
TORSDOF 4
ENDMDL
MODEL 3
REMARK VINA RESULT:      -6.5      1.589      5.225
REMARK  Name = 
REMARK  4 active torsions:
REMARK  status: ('A' for Active; 'I' for Inactive)
REMARK    1  A    between atoms: N_2  and  C_4
REMARK    2  A    between atoms: C_4  and  C_5
REMARK    3  A    between atoms: C_5  and  C_6
REMARK    4  A    between atoms: C_6  and  N_7
REMARK                            x       y       z     vdW  Elec       q    Type
REMARK                         _______ _______ _______ _____ _____    ______ ____
ROOT
ATOM      1  N   UNL     1     -11.227  15.364  68.324  0.00  0.00    -0.287 N 
ATOM      2  C   UNL     1     -11.507  14.155  67.612  0.00  0.00    +0.048 A 
ATOM      3  C   UNL     1     -11.259  13.868  66.278  0.00  0.00    -0.008 A 
ATOM      4  C   UNL     1     -11.361  12.544  65.890  0.00  0.00    -0.003 A 
ATOM      5  C   UNL     1     -11.338  11.497  66.804  0.00  0.00    -0.000 A 
ATOM      6  C   UNL     1     -11.568  11.782  68.124  0.00  0.00    +0.001 A 
ATOM      7  C   UNL     1     -10.504  14.627  65.239  0.00  0.00    +0.032 C 
ATOM      8  C   UNL     1     -10.764  16.109  65.308  0.00  0.00    +0.032 C 
ATOM      9  C   UNL     1     -10.127  16.708  66.504  0.00  0.00    -0.008 A 
ATOM     10  C   UNL     1      -9.193  17.693  66.215  0.00  0.00    -0.003 A 
ATOM     11  C   UNL     1      -8.442  18.159  67.287  0.00  0.00    -0.000 A 
ATOM     12  C   UNL     1      -9.145  18.291  68.479  0.00  0.00    +0.001 A 
ATOM     13  C   UNL     1     -10.210  17.444  68.757  0.00  0.00    +0.015 A 
ATOM     14  C   UNL     1     -11.708  13.108  68.505  0.00  0.00    +0.015 A 
ATOM     15  C   UNL     1     -10.527  16.496  67.815  0.00  0.00    +0.048 A 
ENDROOT
BRANCH   1  16
ATOM     16  C   UNL     1     -11.114  15.224  69.765  0.00  0.00    +0.097 C 
BRANCH  16  17
ATOM     17  C   UNL     1     -12.373  15.634  70.487  0.00  0.00    +0.039 C 
BRANCH  17  18
ATOM     18  C   UNL     1     -12.040  16.100  71.899  0.00  0.00    +0.074 C 
BRANCH  18  20
ATOM     19  C   UNL     1     -12.512  15.593  74.207  0.00  0.00    +0.090 C 
ATOM     20  N   UNL     1     -13.034  15.652  72.860  0.00  0.00    -0.270 NA
ATOM     21  C   UNL     1     -13.534  14.322  72.520  0.00  0.00    +0.090 C 
ENDBRANCH  18  20
ENDBRANCH  17  18
ENDBRANCH  16  17
ENDBRANCH   1  16
TORSDOF 4
ENDMDL
MODEL 4
REMARK VINA RESULT:      -6.3      1.504      5.101
REMARK  Name = 
REMARK  4 active torsions:
REMARK  status: ('A' for Active; 'I' for Inactive)
REMARK    1  A    between atoms: N_2  and  C_4
REMARK    2  A    between atoms: C_4  and  C_5
REMARK    3  A    between atoms: C_5  and  C_6
REMARK    4  A    between atoms: C_6  and  N_7
REMARK                            x       y       z     vdW  Elec       q    Type
REMARK                         _______ _______ _______ _____ _____    ______ ____
ROOT
ATOM      1  N   UNL     1     -11.563  14.600  68.662  0.00  0.00    -0.287 N 
ATOM      2  C   UNL     1     -11.716  13.201  68.405  0.00  0.00    +0.048 A 
ATOM      3  C   UNL     1     -11.485  12.515  67.222  0.00  0.00    -0.008 A 
ATOM      4  C   UNL     1     -11.435  11.134  67.294  0.00  0.00    -0.003 A 
ATOM      5  C   UNL     1     -11.246  10.458  68.493  0.00  0.00    -0.000 A 
ATOM      6  C   UNL     1     -11.460  11.139  69.663  0.00  0.00    +0.001 A 
ATOM      7  C   UNL     1     -10.871  12.962  65.937  0.00  0.00    +0.032 C 
ATOM      8  C   UNL     1     -11.312  14.347  65.542  0.00  0.00    +0.032 C 
ATOM      9  C   UNL     1     -10.711  15.372  66.426  0.00  0.00    -0.008 A 
ATOM     10  C   UNL     1      -9.919  16.299  65.762  0.00  0.00    -0.003 A 
ATOM     11  C   UNL     1      -9.192  17.172  66.563  0.00  0.00    -0.000 A 
ATOM     12  C   UNL     1      -9.860  17.615  67.698  0.00  0.00    +0.001 A 
ATOM     13  C   UNL     1     -10.800  16.801  68.316  0.00  0.00    +0.015 A 
ATOM     14  C   UNL     1     -11.750  12.493  69.603  0.00  0.00    +0.015 A 
ATOM     15  C   UNL     1     -11.031  15.566  67.761  0.00  0.00    +0.048 A 
ENDROOT
BRANCH   1  16
ATOM     16  C   UNL     1     -11.380  14.958  70.058  0.00  0.00    +0.097 C 
BRANCH  16  17
ATOM     17  C   UNL     1     -12.584  15.653  70.641  0.00  0.00    +0.039 C 
BRANCH  17  18
ATOM     18  C   UNL     1     -12.681  15.369  72.134  0.00  0.00    +0.074 C 
BRANCH  18  20
ATOM     19  C   UNL     1     -13.760  13.230  72.397  0.00  0.00    +0.090 C 
ATOM     20  N   UNL     1     -13.910  14.667  72.467  0.00  0.00    -0.270 NA
ATOM     21  C   UNL     1     -14.993  15.044  71.564  0.00  0.00    +0.090 C 
ENDBRANCH  18  20
ENDBRANCH  17  18
ENDBRANCH  16  17
ENDBRANCH   1  16
TORSDOF 4
ENDMDL
MODEL 5
REMARK VINA RESULT:      -6.3      2.275      4.863
REMARK  Name = 
REMARK  4 active torsions:
REMARK  status: ('A' for Active; 'I' for Inactive)
REMARK    1  A    between atoms: N_2  and  C_4
REMARK    2  A    between atoms: C_4  and  C_5
REMARK    3  A    between atoms: C_5  and  C_6
REMARK    4  A    between atoms: C_6  and  N_7
REMARK                            x       y       z     vdW  Elec       q    Type
REMARK                         _______ _______ _______ _____ _____    ______ ____
ROOT
ATOM      1  N   UNL     1     -11.700  13.303  69.388  0.00  0.00    -0.287 N 
ATOM      2  C   UNL     1     -12.529  13.795  70.444  0.00  0.00    +0.048 A 
ATOM      3  C   UNL     1     -13.129  13.078  71.469  0.00  0.00    -0.008 A 
ATOM      4  C   UNL     1     -13.652  13.805  72.524  0.00  0.00    -0.003 A 
ATOM      5  C   UNL     1     -13.291  15.125  72.768  0.00  0.00    -0.000 A 
ATOM      6  C   UNL     1     -12.685  15.830  71.762  0.00  0.00    +0.001 A 
ATOM      7  C   UNL     1     -12.978  11.652  71.883  0.00  0.00    +0.032 C 
ATOM      8  C   UNL     1     -12.903  10.718  70.704  0.00  0.00    +0.032 C 
ATOM      9  C   UNL     1     -11.614  10.863  69.989  0.00  0.00    -0.008 A 
ATOM     10  C   UNL     1     -10.857   9.700  69.944  0.00  0.00    -0.003 A 
ATOM     11  C   UNL     1      -9.567   9.826  69.443  0.00  0.00    -0.000 A 
ATOM     12  C   UNL     1      -9.441  10.699  68.369  0.00  0.00    +0.001 A 
ATOM     13  C   UNL     1     -10.287  11.795  68.258  0.00  0.00    +0.015 A 
ATOM     14  C   UNL     1     -12.363  15.169  70.586  0.00  0.00    +0.015 A 
ATOM     15  C   UNL     1     -11.233  11.966  69.240  0.00  0.00    +0.048 A 
ENDROOT
BRANCH   1  16
ATOM     16  C   UNL     1     -10.819  14.286  68.781  0.00  0.00    +0.097 C 
BRANCH  16  17
ATOM     17  C   UNL     1     -11.459  14.994  67.614  0.00  0.00    +0.039 C 
BRANCH  17  18
ATOM     18  C   UNL     1     -10.552  14.914  66.392  0.00  0.00    +0.074 C 
BRANCH  18  20
ATOM     19  C   UNL     1     -12.578  13.910  65.557  0.00  0.00    +0.090 C 
ATOM     20  N   UNL     1     -11.268  14.426  65.225  0.00  0.00    -0.270 NA
ATOM     21  C   UNL     1     -10.527  13.355  64.562  0.00  0.00    +0.090 C 
ENDBRANCH  18  20
ENDBRANCH  17  18
ENDBRANCH  16  17
ENDBRANCH   1  16
TORSDOF 4
ENDMDL
MODEL 6
REMARK VINA RESULT:      -6.3      2.390      5.026
REMARK  Name = 
REMARK  4 active torsions:
REMARK  status: ('A' for Active; 'I' for Inactive)
REMARK    1  A    between atoms: N_2  and  C_4
REMARK    2  A    between atoms: C_4  and  C_5
REMARK    3  A    between atoms: C_5  and  C_6
REMARK    4  A    between atoms: C_6  and  N_7
REMARK                            x       y       z     vdW  Elec       q    Type
REMARK                         _______ _______ _______ _____ _____    ______ ____
ROOT
ATOM      1  N   UNL     1     -11.759  12.672  69.064  0.00  0.00    -0.287 N 
ATOM      2  C   UNL     1     -12.149  13.788  69.870  0.00  0.00    +0.048 A 
ATOM      3  C   UNL     1     -12.656  13.779  71.161  0.00  0.00    -0.008 A 
ATOM      4  C   UNL     1     -12.697  14.989  71.830  0.00  0.00    -0.003 A 
ATOM      5  C   UNL     1     -11.950  16.089  71.424  0.00  0.00    -0.000 A 
ATOM      6  C   UNL     1     -11.437  16.092  70.154  0.00  0.00    +0.001 A 
ATOM      7  C   UNL     1     -12.797  12.668  72.148  0.00  0.00    +0.032 C 
ATOM      8  C   UNL     1     -13.258  11.385  71.505  0.00  0.00    +0.032 C 
ATOM      9  C   UNL     1     -12.186  10.789  70.675  0.00  0.00    -0.008 A 
ATOM     10  C   UNL     1     -11.801   9.516  71.076  0.00  0.00    -0.003 A 
ATOM     11  C   UNL     1     -10.682   8.987  70.443  0.00  0.00    -0.000 A 
ATOM     12  C   UNL     1     -10.588   9.273  69.086  0.00  0.00    +0.001 A 
ATOM     13  C   UNL     1     -11.112  10.458  68.587  0.00  0.00    +0.015 A 
ATOM     14  C   UNL     1     -11.593  14.960  69.369  0.00  0.00    +0.015 A 
ATOM     15  C   UNL     1     -11.715  11.311  69.480  0.00  0.00    +0.048 A 
ENDROOT
BRANCH   1  16
ATOM     16  C   UNL     1     -10.819  12.975  67.999  0.00  0.00    +0.097 C 
BRANCH  16  17
ATOM     17  C   UNL     1     -11.485  13.596  66.798  0.00  0.00    +0.039 C 
BRANCH  17  18
ATOM     18  C   UNL     1     -12.014  12.508  65.871  0.00  0.00    +0.074 C 
BRANCH  18  20
ATOM     19  C   UNL     1     -12.189  12.394  63.469  0.00  0.00    +0.090 C 
ATOM     20  N   UNL     1     -12.618  13.071  64.674  0.00  0.00    -0.270 NA
ATOM     21  C   UNL     1     -12.283  14.485  64.530  0.00  0.00    +0.090 C 
ENDBRANCH  18  20
ENDBRANCH  17  18
ENDBRANCH  16  17
ENDBRANCH   1  16
TORSDOF 4
ENDMDL
MODEL 7
REMARK VINA RESULT:      -6.2      2.514      6.040
REMARK  Name = 
REMARK  4 active torsions:
REMARK  status: ('A' for Active; 'I' for Inactive)
REMARK    1  A    between atoms: N_2  and  C_4
REMARK    2  A    between atoms: C_4  and  C_5
REMARK    3  A    between atoms: C_5  and  C_6
REMARK    4  A    between atoms: C_6  and  N_7
REMARK                            x       y       z     vdW  Elec       q    Type
REMARK                         _______ _______ _______ _____ _____    ______ ____
ROOT
ATOM      1  N   UNL     1     -11.869  11.923  68.791  0.00  0.00    -0.287 N 
ATOM      2  C   UNL     1     -11.473  11.325  67.554  0.00  0.00    +0.048 A 
ATOM      3  C   UNL     1     -11.176  11.952  66.353  0.00  0.00    -0.008 A 
ATOM      4  C   UNL     1     -10.552  11.189  65.382  0.00  0.00    -0.003 A 
ATOM      5  C   UNL     1      -9.909   9.992  65.675  0.00  0.00    -0.000 A 
ATOM      6  C   UNL     1     -10.191   9.379  66.867  0.00  0.00    +0.001 A 
ATOM      7  C   UNL     1     -11.017  13.398  66.019  0.00  0.00    +0.032 C 
ATOM      8  C   UNL     1     -12.046  14.260  66.701  0.00  0.00    +0.032 C 
ATOM      9  C   UNL     1     -11.785  14.355  68.155  0.00  0.00    -0.008 A 
ATOM     10  C   UNL     1     -11.564  15.649  68.608  0.00  0.00    -0.003 A 
ATOM     11  C   UNL     1     -11.140  15.774  69.926  0.00  0.00    -0.000 A 
ATOM     12  C   UNL     1     -11.737  14.890  70.817  0.00  0.00    +0.001 A 
ATOM     13  C   UNL     1     -12.145  13.635  70.386  0.00  0.00    +0.015 A 
ATOM     14  C   UNL     1     -11.019  10.028  67.772  0.00  0.00    +0.015 A 
ATOM     15  C   UNL     1     -11.935  13.320  69.065  0.00  0.00    +0.048 A 
ENDROOT
BRANCH   1  16
ATOM     16  C   UNL     1     -11.625  11.120  69.976  0.00  0.00    +0.097 C 
BRANCH  16  17
ATOM     17  C   UNL     1     -12.817  10.281  70.362  0.00  0.00    +0.039 C 
BRANCH  17  18
ATOM     18  C   UNL     1     -13.026  10.332  71.871  0.00  0.00    +0.074 C 
BRANCH  18  20
ATOM     19  C   UNL     1     -12.044   8.175  72.310  0.00  0.00    +0.090 C 
ATOM     20  N   UNL     1     -13.223   9.004  72.429  0.00  0.00    -0.270 NA
ATOM     21  C   UNL     1     -14.322   8.309  71.762  0.00  0.00    +0.090 C 
ENDBRANCH  18  20
ENDBRANCH  17  18
ENDBRANCH  16  17
ENDBRANCH   1  16
TORSDOF 4
ENDMDL
MODEL 8
REMARK VINA RESULT:      -6.1      2.253      6.655
REMARK  Name = 
REMARK  4 active torsions:
REMARK  status: ('A' for Active; 'I' for Inactive)
REMARK    1  A    between atoms: N_2  and  C_4
REMARK    2  A    between atoms: C_4  and  C_5
REMARK    3  A    between atoms: C_5  and  C_6
REMARK    4  A    between atoms: C_6  and  N_7
REMARK                            x       y       z     vdW  Elec       q    Type
REMARK                         _______ _______ _______ _____ _____    ______ ____
ROOT
ATOM      1  N   UNL     1     -11.743  12.527  69.426  0.00  0.00    -0.287 N 
ATOM      2  C   UNL     1     -12.177  13.416  70.460  0.00  0.00    +0.048 A 
ATOM      3  C   UNL     1     -12.358  14.789  70.391  0.00  0.00    -0.008 A 
ATOM      4  C   UNL     1     -13.046  15.387  71.431  0.00  0.00    -0.003 A 
ATOM      5  C   UNL     1     -13.844  14.663  72.309  0.00  0.00    -0.000 A 
ATOM      6  C   UNL     1     -13.677  13.304  72.367  0.00  0.00    +0.001 A 
ATOM      7  C   UNL     1     -12.321  15.723  69.226  0.00  0.00    +0.032 C 
ATOM      8  C   UNL     1     -11.210  15.395  68.264  0.00  0.00    +0.032 C 
ATOM      9  C   UNL     1     -11.498  14.148  67.519  0.00  0.00    -0.008 A 
ATOM     10  C   UNL     1     -11.566  14.312  66.142  0.00  0.00    -0.003 A 
ATOM     11  C   UNL     1     -12.007  13.215  65.414  0.00  0.00    -0.000 A 
ATOM     12  C   UNL     1     -11.553  11.985  65.877  0.00  0.00    +0.001 A 
ATOM     13  C   UNL     1     -11.297  11.803  67.230  0.00  0.00    +0.015 A 
ATOM     14  C   UNL     1     -12.799  12.701  71.478  0.00  0.00    +0.015 A 
ATOM     15  C   UNL     1     -11.508  12.873  68.065  0.00  0.00    +0.048 A 
ENDROOT
BRANCH   1  16
ATOM     16  C   UNL     1     -12.122  11.136  69.605  0.00  0.00    +0.097 C 
BRANCH  16  17
ATOM     17  C   UNL     1     -11.023  10.312  70.227  0.00  0.00    +0.039 C 
BRANCH  17  18
ATOM     18  C   UNL     1     -11.147   8.858  69.791  0.00  0.00    +0.074 C 
BRANCH  18  20
ATOM     19  C   UNL     1      -8.945   9.420  68.989  0.00  0.00    +0.090 C 
ATOM     20  N   UNL     1     -10.008   8.439  68.991  0.00  0.00    -0.270 NA
ATOM     21  C   UNL     1     -10.397   8.204  67.603  0.00  0.00    +0.090 C 
ENDBRANCH  18  20
ENDBRANCH  17  18
ENDBRANCH  16  17
ENDBRANCH   1  16
TORSDOF 4
ENDMDL
MODEL 9
REMARK VINA RESULT:      -6.1      1.265      4.155
REMARK  Name = 
REMARK  4 active torsions:
REMARK  status: ('A' for Active; 'I' for Inactive)
REMARK    1  A    between atoms: N_2  and  C_4
REMARK    2  A    between atoms: C_4  and  C_5
REMARK    3  A    between atoms: C_5  and  C_6
REMARK    4  A    between atoms: C_6  and  N_7
REMARK                            x       y       z     vdW  Elec       q    Type
REMARK                         _______ _______ _______ _____ _____    ______ ____
ROOT
ATOM      1  N   UNL     1     -11.289  14.214  69.178  0.00  0.00    -0.287 N 
ATOM      2  C   UNL     1     -12.215  14.173  70.267  0.00  0.00    +0.048 A 
ATOM      3  C   UNL     1     -12.718  13.059  70.925  0.00  0.00    -0.008 A 
ATOM      4  C   UNL     1     -13.380  13.279  72.119  0.00  0.00    -0.003 A 
ATOM      5  C   UNL     1     -13.246  14.461  72.837  0.00  0.00    -0.000 A 
ATOM      6  C   UNL     1     -12.736  15.558  72.193  0.00  0.00    +0.001 A 
ATOM      7  C   UNL     1     -12.348  11.617  70.826  0.00  0.00    +0.032 C 
ATOM      8  C   UNL     1     -12.090  11.186  69.406  0.00  0.00    +0.032 C 
ATOM      9  C   UNL     1     -10.823  11.759  68.896  0.00  0.00    -0.008 A 
ATOM     10  C   UNL     1      -9.886  10.809  68.512  0.00  0.00    -0.003 A 
ATOM     11  C   UNL     1      -8.621  11.289  68.195  0.00  0.00    -0.000 A 
ATOM     12  C   UNL     1      -8.610  12.497  67.506  0.00  0.00    +0.001 A 
ATOM     13  C   UNL     1      -9.620  13.427  67.715  0.00  0.00    +0.015 A 
ATOM     14  C   UNL     1     -12.279  15.414  70.892  0.00  0.00    +0.015 A 
ATOM     15  C   UNL     1     -10.607  13.099  68.613  0.00  0.00    +0.048 A 
ENDROOT
BRANCH   1  16
ATOM     16  C   UNL     1     -10.564  15.464  69.028  0.00  0.00    +0.097 C 
BRANCH  16  17
ATOM     17  C   UNL     1     -11.109  16.319  67.912  0.00  0.00    +0.039 C 
BRANCH  17  18
ATOM     18  C   UNL     1     -10.087  17.377  67.515  0.00  0.00    +0.074 C 
BRANCH  18  20
ATOM     19  C   UNL     1     -10.640  19.546  66.619  0.00  0.00    +0.090 C 
ATOM     20  N   UNL     1     -10.566  18.719  67.804  0.00  0.00    -0.270 NA
ATOM     21  C   UNL     1      -9.693  19.394  68.761  0.00  0.00    +0.090 C 
ENDBRANCH  18  20
ENDBRANCH  17  18
ENDBRANCH  16  17
ENDBRANCH   1  16
TORSDOF 4
ENDMDL
