MODEL 1
REMARK VINA RESULT:      -5.7      0.000      0.000
REMARK  Name = 
REMARK  3 active torsions:
REMARK  status: ('A' for Active; 'I' for Inactive)
REMARK    1  A    between atoms: C_2  and  C_3
REMARK    2  A    between atoms: C_3  and  C_5
REMARK    3  A    between atoms: C_5  and  C_6
REMARK                            x       y       z     vdW  Elec       q    Type
REMARK                         _______ _______ _______ _____ _____    ______ ____
ROOT
ATOM      1  C   UNL     1     -11.338  13.101  66.022  0.00  0.00    +0.141 C 
ATOM      2  C   UNL     1     -10.259  14.108  66.072  0.00  0.00    +0.257 C 
ATOM      3  O   UNL     1      -9.080  13.835  66.427  0.00  0.00    -0.272 OA
ATOM      4  N   UNL     1     -10.449  15.318  65.378  0.00  0.00    -0.125 NA
ATOM      5  C   UNL     1     -11.485  15.519  64.437  0.00  0.00    +0.352 C 
ATOM      6  O   UNL     1     -11.559  16.674  63.941  0.00  0.00    -0.248 OA
ATOM      7  N   UNL     1     -12.584  14.608  64.426  0.00  0.00    -0.125 NA
ATOM      8  C   UNL     1     -12.440  13.391  65.160  0.00  0.00    +0.257 C 
ATOM      9  O   UNL     1     -13.167  12.435  64.748  0.00  0.00    -0.272 OA
ENDROOT
BRANCH   1  10
ATOM     10  C   UNL     1     -11.840  12.891  67.575  0.00  0.00    +0.017 C 
ATOM     11  C   UNL     1     -10.413  13.329  68.285  0.00  0.00    +0.001 C 
BRANCH  10  13
ATOM     12  C   UNL     1     -11.716  10.844  68.960  0.00  0.00    +0.000 C 
ATOM     13  C   UNL     1     -11.415  11.294  67.600  0.00  0.00    +0.001 C 
ENDBRANCH  10  13
ENDBRANCH   1  10
BRANCH   1  14
ATOM     14  C   UNL     1     -10.636  11.794  65.660  0.00  0.00    +0.018 C 
ATOM     15  C   UNL     1     -10.148  11.768  64.251  0.00  0.00    +0.001 C 
ENDBRANCH   1  14
TORSDOF 3
ENDMDL
MODEL 2
REMARK VINA RESULT:      -5.6      0.993      3.164
REMARK  Name = 
REMARK  3 active torsions:
REMARK  status: ('A' for Active; 'I' for Inactive)
REMARK    1  A    between atoms: C_2  and  C_3
REMARK    2  A    between atoms: C_3  and  C_5
REMARK    3  A    between atoms: C_5  and  C_6
REMARK                            x       y       z     vdW  Elec       q    Type
REMARK                         _______ _______ _______ _____ _____    ______ ____
ROOT
ATOM      1  C   UNL     1     -10.866  13.015  65.478  0.00  0.00    +0.141 C 
ATOM      2  C   UNL     1     -12.100  13.296  64.718  0.00  0.00    +0.257 C 
ATOM      3  O   UNL     1     -13.127  12.566  64.780  0.00  0.00    -0.272 OA
ATOM      4  N   UNL     1     -12.271  14.588  64.185  0.00  0.00    -0.125 NA
ATOM      5  C   UNL     1     -11.465  15.691  64.549  0.00  0.00    +0.352 C 
ATOM      6  O   UNL     1     -11.704  16.769  63.944  0.00  0.00    -0.248 OA
ATOM      7  N   UNL     1     -10.223  15.441  65.209  0.00  0.00    -0.125 NA
ATOM      8  C   UNL     1     -10.000  14.126  65.719  0.00  0.00    +0.257 C 
ATOM      9  O   UNL     1      -9.176  14.065  66.683  0.00  0.00    -0.272 OA
ENDROOT
BRANCH   1  10
ATOM     10  C   UNL     1     -10.085  11.822  64.657  0.00  0.00    +0.017 C 
ATOM     11  C   UNL     1     -11.341  11.444  63.651  0.00  0.00    +0.001 C 
BRANCH  10  13
ATOM     12  C   UNL     1      -9.732   9.481  65.375  0.00  0.00    +0.000 C 
ATOM     13  C   UNL     1     -10.534  10.651  65.733  0.00  0.00    +0.001 C 
ENDBRANCH  10  13
ENDBRANCH   1  10
BRANCH   1  14
ATOM     14  C   UNL     1     -11.344  12.350  66.767  0.00  0.00    +0.018 C 
ATOM     15  C   UNL     1     -11.917  13.321  67.744  0.00  0.00    +0.001 C 
ENDBRANCH   1  14
TORSDOF 3
ENDMDL
MODEL 3
REMARK VINA RESULT:      -5.3      1.794      2.266
REMARK  Name = 
REMARK  3 active torsions:
REMARK  status: ('A' for Active; 'I' for Inactive)
REMARK    1  A    between atoms: C_2  and  C_3
REMARK    2  A    between atoms: C_3  and  C_5
REMARK    3  A    between atoms: C_5  and  C_6
REMARK                            x       y       z     vdW  Elec       q    Type
REMARK                         _______ _______ _______ _____ _____    ______ ____
ROOT
ATOM      1  C   UNL     1     -10.982  13.709  67.089  0.00  0.00    +0.141 C 
ATOM      2  C   UNL     1     -10.577  14.680  66.053  0.00  0.00    +0.257 C 
ATOM      3  O   UNL     1      -9.502  15.338  66.109  0.00  0.00    -0.272 OA
ATOM      4  N   UNL     1     -11.221  14.622  64.802  0.00  0.00    -0.125 NA
ATOM      5  C   UNL     1     -12.035  13.540  64.398  0.00  0.00    +0.352 C 
ATOM      6  O   UNL     1     -12.588  13.660  63.273  0.00  0.00    -0.248 OA
ATOM      7  N   UNL     1     -12.512  12.635  65.394  0.00  0.00    -0.125 NA
ATOM      8  C   UNL     1     -11.912  12.701  66.687  0.00  0.00    +0.257 C 
ATOM      9  O   UNL     1     -11.979  11.625  67.359  0.00  0.00    -0.272 OA
ENDROOT
BRANCH   1  10
ATOM     10  C   UNL     1     -11.574  14.597  68.341  0.00  0.00    +0.017 C 
ATOM     11  C   UNL     1     -10.107  14.992  68.990  0.00  0.00    +0.001 C 
BRANCH  10  13
ATOM     12  C   UNL     1     -12.310  13.804  70.567  0.00  0.00    +0.000 C 
ATOM     13  C   UNL     1     -11.712  13.284  69.336  0.00  0.00    +0.001 C 
ENDBRANCH  10  13
ENDBRANCH   1  10
BRANCH   1  14
ATOM     14  C   UNL     1      -9.671  13.126  67.611  0.00  0.00    +0.018 C 
ATOM     15  C   UNL     1      -9.020  12.198  66.642  0.00  0.00    +0.001 C 
ENDBRANCH   1  14
TORSDOF 3
ENDMDL
MODEL 4
REMARK VINA RESULT:      -5.0      2.610      3.584
REMARK  Name = 
REMARK  3 active torsions:
REMARK  status: ('A' for Active; 'I' for Inactive)
REMARK    1  A    between atoms: C_2  and  C_3
REMARK    2  A    between atoms: C_3  and  C_5
REMARK    3  A    between atoms: C_5  and  C_6
REMARK                            x       y       z     vdW  Elec       q    Type
REMARK                         _______ _______ _______ _____ _____    ______ ____
ROOT
ATOM      1  C   UNL     1     -10.547  15.549  67.082  0.00  0.00    +0.141 C 
ATOM      2  C   UNL     1     -10.611  16.429  68.265  0.00  0.00    +0.257 C 
ATOM      3  O   UNL     1     -10.269  16.055  69.421  0.00  0.00    -0.272 OA
ATOM      4  N   UNL     1     -10.718  17.817  68.054  0.00  0.00    -0.125 NA
ATOM      5  C   UNL     1     -10.509  18.430  66.797  0.00  0.00    +0.352 C 
ATOM      6  O   UNL     1     -10.697  19.674  66.756  0.00  0.00    -0.248 OA
ATOM      7  N   UNL     1     -10.529  17.612  65.627  0.00  0.00    -0.125 NA
ATOM      8  C   UNL     1     -10.470  16.197  65.810  0.00  0.00    +0.257 C 
ATOM      9  O   UNL     1     -10.001  15.554  64.820  0.00  0.00    -0.272 OA
ENDROOT
BRANCH   1  10
ATOM     10  C   UNL     1     -11.866  14.570  67.169  0.00  0.00    +0.017 C 
ATOM     11  C   UNL     1     -11.361  13.705  68.484  0.00  0.00    +0.001 C 
BRANCH  10  13
ATOM     12  C   UNL     1     -12.374  12.932  65.385  0.00  0.00    +0.000 C 
ATOM     13  C   UNL     1     -11.228  13.452  66.131  0.00  0.00    +0.001 C 
ENDBRANCH  10  13
ENDBRANCH   1  10
BRANCH   1  14
ATOM     14  C   UNL     1      -9.359  14.626  67.345  0.00  0.00    +0.018 C 
ATOM     15  C   UNL     1      -8.044  15.309  67.175  0.00  0.00    +0.001 C 
ENDBRANCH   1  14
TORSDOF 3
ENDMDL
MODEL 5
REMARK VINA RESULT:      -4.9      3.028      4.295
REMARK  Name = 
REMARK  3 active torsions:
REMARK  status: ('A' for Active; 'I' for Inactive)
REMARK    1  A    between atoms: C_2  and  C_3
REMARK    2  A    between atoms: C_3  and  C_5
REMARK    3  A    between atoms: C_5  and  C_6
REMARK                            x       y       z     vdW  Elec       q    Type
REMARK                         _______ _______ _______ _____ _____    ______ ____
ROOT
ATOM      1  C   UNL     1     -10.599  15.821  67.210  0.00  0.00    +0.141 C 
ATOM      2  C   UNL     1     -10.304  16.338  65.859  0.00  0.00    +0.257 C 
ATOM      3  O   UNL     1     -10.471  15.658  64.810  0.00  0.00    -0.272 OA
ATOM      4  N   UNL     1     -10.170  17.730  65.697  0.00  0.00    -0.125 NA
ATOM      5  C   UNL     1     -10.552  18.667  66.685  0.00  0.00    +0.352 C 
ATOM      6  O   UNL     1     -10.317  19.875  66.416  0.00  0.00    -0.248 OA
ATOM      7  N   UNL     1     -10.759  18.206  68.020  0.00  0.00    -0.125 NA
ATOM      8  C   UNL     1     -10.852  16.796  68.224  0.00  0.00    +0.257 C 
ATOM      9  O   UNL     1     -11.504  16.452  69.258  0.00  0.00    -0.272 OA
ENDROOT
BRANCH   1  10
ATOM     10  C   UNL     1      -9.329  14.857  67.617  0.00  0.00    +0.017 C 
ATOM     11  C   UNL     1      -8.936  15.657  69.009  0.00  0.00    +0.001 C 
BRANCH  10  13
ATOM     12  C   UNL     1      -6.953  15.507  67.387  0.00  0.00    +0.000 C 
ATOM     13  C   UNL     1      -8.245  15.749  66.745  0.00  0.00    +0.001 C 
ENDBRANCH  10  13
ENDBRANCH   1  10
BRANCH   1  14
ATOM     14  C   UNL     1     -11.769  14.859  67.013  0.00  0.00    +0.018 C 
ATOM     15  C   UNL     1     -11.440  13.456  67.399  0.00  0.00    +0.001 C 
ENDBRANCH   1  14
TORSDOF 3
ENDMDL
MODEL 6
REMARK VINA RESULT:      -4.9      4.132      6.018
REMARK  Name = 
REMARK  3 active torsions:
REMARK  status: ('A' for Active; 'I' for Inactive)
REMARK    1  A    between atoms: C_2  and  C_3
REMARK    2  A    between atoms: C_3  and  C_5
REMARK    3  A    between atoms: C_5  and  C_6
REMARK                            x       y       z     vdW  Elec       q    Type
REMARK                         _______ _______ _______ _____ _____    ______ ____
ROOT
ATOM      1  C   UNL     1      -9.020  17.733  66.916  0.00  0.00    +0.141 C 
ATOM      2  C   UNL     1      -9.003  16.351  66.396  0.00  0.00    +0.257 C 
ATOM      3  O   UNL     1      -8.503  15.383  67.030  0.00  0.00    -0.272 OA
ATOM      4  N   UNL     1      -9.871  16.033  65.333  0.00  0.00    -0.125 NA
ATOM      5  C   UNL     1     -10.926  16.874  64.914  0.00  0.00    +0.352 C 
ATOM      6  O   UNL     1     -11.580  16.478  63.913  0.00  0.00    -0.248 OA
ATOM      7  N   UNL     1     -10.919  18.240  65.333  0.00  0.00    -0.125 NA
ATOM      8  C   UNL     1     -10.016  18.604  66.377  0.00  0.00    +0.257 C 
ATOM      9  O   UNL     1     -10.363  19.628  67.043  0.00  0.00    -0.272 OA
ENDROOT
BRANCH   1  10
ATOM     10  C   UNL     1      -7.509  18.333  66.666  0.00  0.00    +0.017 C 
ATOM     11  C   UNL     1      -7.076  18.397  68.260  0.00  0.00    +0.001 C 
BRANCH  10  13
ATOM     12  C   UNL     1      -6.947  20.640  67.363  0.00  0.00    +0.000 C 
ATOM     13  C   UNL     1      -8.022  19.905  66.696  0.00  0.00    +0.001 C 
ENDBRANCH  10  13
ENDBRANCH   1  10
BRANCH   1  14
ATOM     14  C   UNL     1      -9.132  17.578  68.431  0.00  0.00    +0.018 C 
ATOM     15  C   UNL     1     -10.451  17.033  68.865  0.00  0.00    +0.001 C 
ENDBRANCH   1  14
TORSDOF 3
ENDMDL
MODEL 7
REMARK VINA RESULT:      -4.8      2.923      4.143
REMARK  Name = 
REMARK  3 active torsions:
REMARK  status: ('A' for Active; 'I' for Inactive)
REMARK    1  A    between atoms: C_2  and  C_3
REMARK    2  A    between atoms: C_3  and  C_5
REMARK    3  A    between atoms: C_5  and  C_6
REMARK                            x       y       z     vdW  Elec       q    Type
REMARK                         _______ _______ _______ _____ _____    ______ ____
ROOT
ATOM      1  C   UNL     1     -10.328  15.805  67.260  0.00  0.00    +0.141 C 
ATOM      2  C   UNL     1      -9.995  16.283  65.903  0.00  0.00    +0.257 C 
ATOM      3  O   UNL     1      -8.868  16.762  65.599  0.00  0.00    -0.272 OA
ATOM      4  N   UNL     1     -10.821  15.878  64.837  0.00  0.00    -0.125 NA
ATOM      5  C   UNL     1     -11.782  14.848  64.947  0.00  0.00    +0.352 C 
ATOM      6  O   UNL     1     -12.483  14.639  63.922  0.00  0.00    -0.248 OA
ATOM      7  N   UNL     1     -12.186  14.426  66.250  0.00  0.00    -0.125 NA
ATOM      8  C   UNL     1     -11.395  14.860  67.358  0.00  0.00    +0.257 C 
ATOM      9  O   UNL     1     -11.460  14.110  68.380  0.00  0.00    -0.272 OA
ENDROOT
BRANCH   1  10
ATOM     10  C   UNL     1     -10.643  17.150  68.153  0.00  0.00    +0.017 C 
ATOM     11  C   UNL     1     -10.517  18.228  66.906  0.00  0.00    +0.001 C 
BRANCH  10  13
ATOM     12  C   UNL     1      -8.860  18.820  68.546  0.00  0.00    +0.000 C 
ATOM     13  C   UNL     1      -9.057  17.370  68.563  0.00  0.00    +0.001 C 
ENDBRANCH  10  13
ENDBRANCH   1  10
BRANCH   1  14
ATOM     14  C   UNL     1      -9.012  15.267  67.818  0.00  0.00    +0.018 C 
ATOM     15  C   UNL     1      -8.588  13.989  67.177  0.00  0.00    +0.001 C 
ENDBRANCH   1  14
TORSDOF 3
ENDMDL
MODEL 8
REMARK VINA RESULT:      -4.8      3.100      4.549
REMARK  Name = 
REMARK  3 active torsions:
REMARK  status: ('A' for Active; 'I' for Inactive)
REMARK    1  A    between atoms: C_2  and  C_3
REMARK    2  A    between atoms: C_3  and  C_5
REMARK    3  A    between atoms: C_5  and  C_6
REMARK                            x       y       z     vdW  Elec       q    Type
REMARK                         _______ _______ _______ _____ _____    ______ ____
ROOT
ATOM      1  C   UNL     1     -11.321  14.170  67.889  0.00  0.00    +0.141 C 
ATOM      2  C   UNL     1     -11.728  13.368  69.060  0.00  0.00    +0.257 C 
ATOM      3  O   UNL     1     -11.349  12.180  69.247  0.00  0.00    -0.272 OA
ATOM      4  N   UNL     1     -12.262  14.046  70.173  0.00  0.00    -0.125 NA
ATOM      5  C   UNL     1     -12.192  15.448  70.335  0.00  0.00    +0.352 C 
ATOM      6  O   UNL     1     -12.765  15.912  71.356  0.00  0.00    -0.248 OA
ATOM      7  N   UNL     1     -11.884  16.253  69.196  0.00  0.00    -0.125 NA
ATOM      8  C   UNL     1     -11.385  15.590  68.035  0.00  0.00    +0.257 C 
ATOM      9  O   UNL     1     -10.682  16.319  67.269  0.00  0.00    -0.272 OA
ENDROOT
BRANCH   1  10
ATOM     10  C   UNL     1     -12.260  13.659  66.637  0.00  0.00    +0.017 C 
ATOM     11  C   UNL     1     -11.505  12.204  66.429  0.00  0.00    +0.001 C 
BRANCH  10  13
ATOM     12  C   UNL     1     -12.189  14.636  64.365  0.00  0.00    +0.000 C 
ATOM     13  C   UNL     1     -11.299  14.372  65.497  0.00  0.00    +0.001 C 
ENDBRANCH  10  13
ENDBRANCH   1  10
BRANCH   1  14
ATOM     14  C   UNL     1      -9.917  13.676  67.547  0.00  0.00    +0.018 C 
ATOM     15  C   UNL     1      -8.882  14.154  68.510  0.00  0.00    +0.001 C 
ENDBRANCH   1  14
TORSDOF 3
ENDMDL
MODEL 9
REMARK VINA RESULT:      -4.8      1.611      3.267
REMARK  Name = 
REMARK  3 active torsions:
REMARK  status: ('A' for Active; 'I' for Inactive)
REMARK    1  A    between atoms: C_2  and  C_3
REMARK    2  A    between atoms: C_3  and  C_5
REMARK    3  A    between atoms: C_5  and  C_6
REMARK                            x       y       z     vdW  Elec       q    Type
REMARK                         _______ _______ _______ _____ _____    ______ ____
ROOT
ATOM      1  C   UNL     1     -11.280  13.500  66.426  0.00  0.00    +0.141 C 
ATOM      2  C   UNL     1     -12.313  13.271  65.395  0.00  0.00    +0.257 C 
ATOM      3  O   UNL     1     -13.259  14.077  65.179  0.00  0.00    -0.272 OA
ATOM      4  N   UNL     1     -12.049  12.319  64.393  0.00  0.00    -0.125 NA
ATOM      5  C   UNL     1     -10.769  11.763  64.167  0.00  0.00    +0.352 C 
ATOM      6  O   UNL     1     -10.703  10.881  63.270  0.00  0.00    -0.248 OA
ATOM      7  N   UNL     1      -9.777  11.896  65.186  0.00  0.00    -0.125 NA
ATOM      8  C   UNL     1     -10.037  12.820  66.243  0.00  0.00    +0.257 C 
ATOM      9  O   UNL     1      -8.999  13.272  66.818  0.00  0.00    -0.272 OA
ENDROOT
BRANCH   1  10
ATOM     10  C   UNL     1     -11.972  13.094  67.863  0.00  0.00    +0.017 C 
ATOM     11  C   UNL     1     -10.762  13.689  68.818  0.00  0.00    +0.001 C 
BRANCH  10  13
ATOM     12  C   UNL     1     -11.813  10.950  69.087  0.00  0.00    +0.000 C 
ATOM     13  C   UNL     1     -11.299  11.584  67.873  0.00  0.00    +0.001 C 
ENDBRANCH  10  13
ENDBRANCH   1  10
BRANCH   1  14
ATOM     14  C   UNL     1     -11.118  15.017  66.487  0.00  0.00    +0.018 C 
ATOM     15  C   UNL     1     -10.486  15.584  65.260  0.00  0.00    +0.001 C 
ENDBRANCH   1  14
TORSDOF 3
ENDMDL
