MODEL 1
REMARK VINA RESULT:      -6.8      0.000      0.000
REMARK  Name = 
REMARK  5 active torsions:
REMARK  status: ('A' for Active; 'I' for Inactive)
REMARK    1  A    between atoms: N_5  and  C_6
REMARK    2  A    between atoms: C_6  and  C_8
REMARK    3  A    between atoms: C_8  and  C_10
REMARK    4  A    between atoms: C_8  and  C_16
REMARK    5  A    between atoms: C_10  and  N_11
REMARK                            x       y       z     vdW  Elec       q    Type
REMARK                         _______ _______ _______ _____ _____    ______ ____
ROOT
ATOM      1  C   UNL     1     -10.887  14.721  67.975  0.00  0.00    +0.183 C 
ATOM      2  O   UNL     1      -9.791  14.219  68.571  0.00  0.00    -0.218 OA
ENDROOT
BRANCH   1   3
ATOM      3  C   UNL     1     -11.131  14.077  66.659  0.00  0.00    +0.036 A 
ATOM      4  C   UNL     1     -10.076  13.737  65.822  0.00  0.00    +0.141 A 
ATOM      5  F   UNL     1      -8.890  14.367  65.938  0.00  0.00    -0.204 F 
ATOM      6  C   UNL     1     -10.315  12.710  64.925  0.00  0.00    +0.059 A 
ATOM      7  C   UNL     1     -11.635  12.433  64.589  0.00  0.00    +0.142 A 
ATOM      8  F   UNL     1     -11.918  11.543  63.612  0.00  0.00    -0.204 F 
ATOM      9  C   UNL     1     -12.678  13.213  65.076  0.00  0.00    +0.030 A 
ATOM     10  C   UNL     1     -12.417  14.065  66.132  0.00  0.00    +0.003 A 
ENDBRANCH   1   3
BRANCH   1  11
ATOM     11  C   UNL     1     -12.210  14.237  68.868  0.00  0.00    +0.092 C 
ATOM     12  C   UNL     1     -11.669  12.658  68.896  0.00  0.00    +0.020 C 
BRANCH  11  17
ATOM     13  C   UNL     1     -14.014  15.866  72.825  0.00  0.00    -0.009 C 
ATOM     14  C   UNL     1     -13.231  15.288  72.477  0.00  0.00    -0.041 C 
ATOM     15  C   UNL     1     -11.938  15.967  72.130  0.00  0.00    +0.039 C 
ATOM     16  C   UNL     1     -11.880  15.887  70.607  0.00  0.00    +0.077 C 
ATOM     17  N   UNL     1     -11.516  14.541  70.278  0.00  0.00    -0.271 NA
ATOM     18  C   UNL     1     -12.199  13.577  71.119  0.00  0.00    +0.077 C 
ATOM     19  C   UNL     1     -13.531  14.091  71.622  0.00  0.00    +0.039 C 
ENDBRANCH  11  17
ENDBRANCH   1  11
BRANCH   1  20
ATOM     20  C   UNL     1     -11.090  16.186  67.956  0.00  0.00    +0.165 C 
BRANCH  20  21
ATOM     21  N   UNL     1     -10.066  16.893  67.252  0.00  0.00    -0.227 N 
ATOM     22  N   UNL     1      -8.817  17.125  67.638  0.00  0.00    -0.145 NA
ATOM     23  C   UNL     1      -8.351  18.148  66.887  0.00  0.00    +0.221 A 
ATOM     24  N   UNL     1      -9.338  18.560  66.054  0.00  0.00    -0.201 NA
ATOM     25  C   UNL     1     -10.223  17.533  66.066  0.00  0.00    +0.197 A 
ENDBRANCH  20  21
ENDBRANCH   1  20
TORSDOF 5
ENDMDL
MODEL 2
REMARK VINA RESULT:      -6.7      2.653      5.582
REMARK  Name = 
REMARK  5 active torsions:
REMARK  status: ('A' for Active; 'I' for Inactive)
REMARK    1  A    between atoms: N_5  and  C_6
REMARK    2  A    between atoms: C_6  and  C_8
REMARK    3  A    between atoms: C_8  and  C_10
REMARK    4  A    between atoms: C_8  and  C_16
REMARK    5  A    between atoms: C_10  and  N_11
REMARK                            x       y       z     vdW  Elec       q    Type
REMARK                         _______ _______ _______ _____ _____    ______ ____
ROOT
ATOM      1  C   UNL     1     -10.586  14.898  68.416  0.00  0.00    +0.183 C 
ATOM      2  O   UNL     1      -9.612  13.971  68.368  0.00  0.00    -0.218 OA
ENDROOT
BRANCH   1   3
ATOM      3  C   UNL     1     -11.589  14.577  69.462  0.00  0.00    +0.036 A 
ATOM      4  C   UNL     1     -12.006  13.270  69.677  0.00  0.00    +0.141 A 
ATOM      5  F   UNL     1     -11.892  12.353  68.696  0.00  0.00    -0.204 F 
ATOM      6  C   UNL     1     -12.486  12.983  70.943  0.00  0.00    +0.059 A 
ATOM      7  C   UNL     1     -12.958  14.038  71.715  0.00  0.00    +0.142 A 
ATOM      8  F   UNL     1     -13.570  13.799  72.896  0.00  0.00    -0.204 F 
ATOM      9  C   UNL     1     -13.019  15.329  71.204  0.00  0.00    +0.030 A 
ATOM     10  C   UNL     1     -12.324  15.605  70.041  0.00  0.00    +0.003 A 
ENDBRANCH   1   3
BRANCH   1  11
ATOM     11  C   UNL     1      -9.906  16.312  68.983  0.00  0.00    +0.092 C 
ATOM     12  C   UNL     1      -8.411  15.584  69.132  0.00  0.00    +0.020 C 
BRANCH  11  17
ATOM     13  C   UNL     1      -9.135  20.642  67.494  0.00  0.00    -0.009 C 
ATOM     14  C   UNL     1      -8.896  19.661  67.272  0.00  0.00    -0.041 C 
ATOM     15  C   UNL     1      -9.793  18.900  66.339  0.00  0.00    +0.039 C 
ATOM     16  C   UNL     1     -10.492  17.890  67.245  0.00  0.00    +0.077 C 
ATOM     17  N   UNL     1      -9.538  16.858  67.524  0.00  0.00    -0.271 NA
ATOM     18  C   UNL     1      -8.216  17.398  67.774  0.00  0.00    +0.077 C 
ATOM     19  C   UNL     1      -8.263  18.806  68.329  0.00  0.00    +0.039 C 
ENDBRANCH  11  17
ENDBRANCH   1  11
BRANCH   1  20
ATOM     20  C   UNL     1     -11.190  15.373  67.152  0.00  0.00    +0.165 C 
BRANCH  20  21
ATOM     21  N   UNL     1     -11.399  14.331  66.194  0.00  0.00    -0.227 N 
ATOM     22  N   UNL     1     -10.514  13.794  65.363  0.00  0.00    -0.145 NA
ATOM     23  C   UNL     1     -11.213  13.169  64.387  0.00  0.00    +0.221 A 
ATOM     24  N   UNL     1     -12.536  13.353  64.615  0.00  0.00    -0.201 NA
ATOM     25  C   UNL     1     -12.590  13.748  65.911  0.00  0.00    +0.197 A 
ENDBRANCH  20  21
ENDBRANCH   1  20
TORSDOF 5
ENDMDL
MODEL 3
REMARK VINA RESULT:      -6.6      2.886      5.101
REMARK  Name = 
REMARK  5 active torsions:
REMARK  status: ('A' for Active; 'I' for Inactive)
REMARK    1  A    between atoms: N_5  and  C_6
REMARK    2  A    between atoms: C_6  and  C_8
REMARK    3  A    between atoms: C_8  and  C_10
REMARK    4  A    between atoms: C_8  and  C_16
REMARK    5  A    between atoms: C_10  and  N_11
REMARK                            x       y       z     vdW  Elec       q    Type
REMARK                         _______ _______ _______ _____ _____    ______ ____
ROOT
ATOM      1  C   UNL     1     -10.869  13.370  67.353  0.00  0.00    +0.183 C 
ATOM      2  O   UNL     1      -9.918  12.993  66.480  0.00  0.00    -0.218 OA
ENDROOT
BRANCH   1   3
ATOM      3  C   UNL     1     -11.220  12.266  68.282  0.00  0.00    +0.036 A 
ATOM      4  C   UNL     1     -11.076  10.938  67.903  0.00  0.00    +0.141 A 
ATOM      5  F   UNL     1     -11.070  10.604  66.597  0.00  0.00    -0.204 F 
ATOM      6  C   UNL     1     -10.900  10.025  68.929  0.00  0.00    +0.059 A 
ATOM      7  C   UNL     1     -11.341  10.380  70.198  0.00  0.00    +0.142 A 
ATOM      8  F   UNL     1     -11.328   9.476  71.203  0.00  0.00    -0.204 F 
ATOM      9  C   UNL     1     -12.008  11.580  70.416  0.00  0.00    +0.030 A 
ATOM     10  C   UNL     1     -11.955  12.546  69.428  0.00  0.00    +0.003 A 
ENDBRANCH   1   3
BRANCH   1  11
ATOM     11  C   UNL     1     -10.195  14.504  68.372  0.00  0.00    +0.092 C 
ATOM     12  C   UNL     1      -8.699  13.770  68.271  0.00  0.00    +0.020 C 
BRANCH  11  17
ATOM     13  C   UNL     1      -9.080  19.011  68.501  0.00  0.00    -0.009 C 
ATOM     14  C   UNL     1      -8.937  18.164  67.926  0.00  0.00    -0.041 C 
ATOM     15  C   UNL     1      -9.926  17.862  66.837  0.00  0.00    +0.039 C 
ATOM     16  C   UNL     1     -10.685  16.646  67.358  0.00  0.00    +0.077 C 
ATOM     17  N   UNL     1      -9.821  15.516  67.189  0.00  0.00    -0.271 NA
ATOM     18  C   UNL     1      -8.449  15.829  67.537  0.00  0.00    +0.077 C 
ATOM     19  C   UNL     1      -8.353  16.937  68.564  0.00  0.00    +0.039 C 
ENDBRANCH  11  17
ENDBRANCH   1  11
BRANCH   1  20
ATOM     20  C   UNL     1     -12.048  14.113  66.857  0.00  0.00    +0.165 C 
BRANCH  20  21
ATOM     21  N   UNL     1     -12.441  13.739  65.533  0.00  0.00    -0.227 N 
ATOM     22  N   UNL     1     -12.895  12.564  65.116  0.00  0.00    -0.145 NA
ATOM     23  C   UNL     1     -12.744  12.533  63.772  0.00  0.00    +0.221 A 
ATOM     24  N   UNL     1     -12.166  13.692  63.373  0.00  0.00    -0.201 NA
ATOM     25  C   UNL     1     -12.341  14.522  64.431  0.00  0.00    +0.197 A 
ENDBRANCH  20  21
ENDBRANCH   1  20
TORSDOF 5
ENDMDL
MODEL 4
REMARK VINA RESULT:      -6.5      2.670      6.155
REMARK  Name = 
REMARK  5 active torsions:
REMARK  status: ('A' for Active; 'I' for Inactive)
REMARK    1  A    between atoms: N_5  and  C_6
REMARK    2  A    between atoms: C_6  and  C_8
REMARK    3  A    between atoms: C_8  and  C_10
REMARK    4  A    between atoms: C_8  and  C_16
REMARK    5  A    between atoms: C_10  and  N_11
REMARK                            x       y       z     vdW  Elec       q    Type
REMARK                         _______ _______ _______ _____ _____    ______ ____
ROOT
ATOM      1  C   UNL     1     -10.294  16.028  68.134  0.00  0.00    +0.183 C 
ATOM      2  O   UNL     1      -9.444  15.098  68.607  0.00  0.00    -0.218 OA
ENDROOT
BRANCH   1   3
ATOM      3  C   UNL     1      -9.656  17.368  68.081  0.00  0.00    +0.036 A 
ATOM      4  C   UNL     1      -8.372  17.569  68.570  0.00  0.00    +0.141 A 
ATOM      5  F   UNL     1      -7.859  16.728  69.490  0.00  0.00    -0.204 F 
ATOM      6  C   UNL     1      -7.671  18.631  68.026  0.00  0.00    +0.059 A 
ATOM      7  C   UNL     1      -8.399  19.658  67.437  0.00  0.00    +0.142 A 
ATOM      8  F   UNL     1      -7.778  20.785  67.022  0.00  0.00    -0.204 F 
ATOM      9  C   UNL     1      -9.789  19.658  67.463  0.00  0.00    +0.030 A 
ATOM     10  C   UNL     1     -10.436  18.485  67.804  0.00  0.00    +0.003 A 
ENDBRANCH   1   3
BRANCH   1  11
ATOM     11  C   UNL     1     -10.562  15.688  66.523  0.00  0.00    +0.092 C 
ATOM     12  C   UNL     1      -8.925  15.533  66.238  0.00  0.00    +0.020 C 
BRANCH  11  17
ATOM     13  C   UNL     1     -12.273  12.374  63.755  0.00  0.00    -0.009 C 
ATOM     14  C   UNL     1     -11.604  12.507  64.532  0.00  0.00    -0.041 C 
ATOM     15  C   UNL     1     -12.108  12.375  65.941  0.00  0.00    +0.039 C 
ATOM     16  C   UNL     1     -12.080  13.804  66.475  0.00  0.00    +0.077 C 
ATOM     17  N   UNL     1     -10.710  14.112  66.759  0.00  0.00    -0.271 NA
ATOM     18  C   UNL     1      -9.819  13.610  65.731  0.00  0.00    +0.077 C 
ATOM     19  C   UNL     1     -10.496  13.508  64.380  0.00  0.00    +0.039 C 
ENDBRANCH  11  17
ENDBRANCH   1  11
BRANCH   1  20
ATOM     20  C   UNL     1     -11.682  16.060  68.642  0.00  0.00    +0.165 C 
BRANCH  20  21
ATOM     21  N   UNL     1     -11.832  15.451  69.927  0.00  0.00    -0.227 N 
ATOM     22  N   UNL     1     -12.259  14.226  70.208  0.00  0.00    -0.145 NA
ATOM     23  C   UNL     1     -12.629  14.220  71.509  0.00  0.00    +0.221 A 
ATOM     24  N   UNL     1     -12.450  15.465  72.016  0.00  0.00    -0.201 NA
ATOM     25  C   UNL     1     -11.630  16.065  71.119  0.00  0.00    +0.197 A 
ENDBRANCH  20  21
ENDBRANCH   1  20
TORSDOF 5
ENDMDL
MODEL 5
REMARK VINA RESULT:      -6.4      2.271      6.055
REMARK  Name = 
REMARK  5 active torsions:
REMARK  status: ('A' for Active; 'I' for Inactive)
REMARK    1  A    between atoms: N_5  and  C_6
REMARK    2  A    between atoms: C_6  and  C_8
REMARK    3  A    between atoms: C_8  and  C_10
REMARK    4  A    between atoms: C_8  and  C_16
REMARK    5  A    between atoms: C_10  and  N_11
REMARK                            x       y       z     vdW  Elec       q    Type
REMARK                         _______ _______ _______ _____ _____    ______ ____
ROOT
ATOM      1  C   UNL     1     -10.082  15.713  67.842  0.00  0.00    +0.183 C 
ATOM      2  O   UNL     1      -9.187  15.214  68.713  0.00  0.00    -0.218 OA
ENDROOT
BRANCH   1   3
ATOM      3  C   UNL     1      -9.821  17.147  67.559  0.00  0.00    +0.036 A 
ATOM      4  C   UNL     1     -10.372  17.769  66.446  0.00  0.00    +0.141 A 
ATOM      5  F   UNL     1     -10.751  17.036  65.380  0.00  0.00    -0.204 F 
ATOM      6  C   UNL     1     -10.538  19.140  66.532  0.00  0.00    +0.059 A 
ATOM      7  C   UNL     1      -9.752  19.835  67.444  0.00  0.00    +0.142 A 
ATOM      8  F   UNL     1      -9.767  21.186  67.469  0.00  0.00    -0.204 F 
ATOM      9  C   UNL     1      -8.776  19.185  68.191  0.00  0.00    +0.030 A 
ATOM     10  C   UNL     1      -8.804  17.804  68.241  0.00  0.00    +0.003 A 
ENDBRANCH   1   3
BRANCH   1  11
ATOM     11  C   UNL     1      -9.800  14.993  66.365  0.00  0.00    +0.092 C 
ATOM     12  C   UNL     1      -8.602  14.029  67.014  0.00  0.00    +0.020 C 
BRANCH  11  17
ATOM     13  C   UNL     1     -11.785  12.102  63.319  0.00  0.00    -0.009 C 
ATOM     14  C   UNL     1     -11.545  12.172  64.322  0.00  0.00    -0.041 C 
ATOM     15  C   UNL     1     -12.551  12.776  65.258  0.00  0.00    +0.039 C 
ATOM     16  C   UNL     1     -11.937  14.120  65.639  0.00  0.00    +0.077 C 
ATOM     17  N   UNL     1     -10.895  13.846  66.583  0.00  0.00    -0.271 NA
ATOM     18  C   UNL     1     -10.125  12.675  66.212  0.00  0.00    +0.077 C 
ATOM     19  C   UNL     1     -10.121  12.438  64.716  0.00  0.00    +0.039 C 
ENDBRANCH  11  17
ENDBRANCH   1  11
BRANCH   1  20
ATOM     20  C   UNL     1     -11.517  15.404  68.028  0.00  0.00    +0.165 C 
BRANCH  20  21
ATOM     21  N   UNL     1     -11.917  15.368  69.401  0.00  0.00    -0.227 N 
ATOM     22  N   UNL     1     -11.886  16.354  70.289  0.00  0.00    -0.145 NA
ATOM     23  C   UNL     1     -11.953  15.787  71.516  0.00  0.00    +0.221 A 
ATOM     24  N   UNL     1     -11.996  14.441  71.370  0.00  0.00    -0.201 NA
ATOM     25  C   UNL     1     -12.339  14.266  70.070  0.00  0.00    +0.197 A 
ENDBRANCH  20  21
ENDBRANCH   1  20
TORSDOF 5
ENDMDL
MODEL 6
REMARK VINA RESULT:      -6.4      3.007      4.283
REMARK  Name = 
REMARK  5 active torsions:
REMARK  status: ('A' for Active; 'I' for Inactive)
REMARK    1  A    between atoms: N_5  and  C_6
REMARK    2  A    between atoms: C_6  and  C_8
REMARK    3  A    between atoms: C_8  and  C_10
REMARK    4  A    between atoms: C_8  and  C_16
REMARK    5  A    between atoms: C_10  and  N_11
REMARK                            x       y       z     vdW  Elec       q    Type
REMARK                         _______ _______ _______ _____ _____    ______ ____
ROOT
ATOM      1  C   UNL     1     -10.452  13.004  67.234  0.00  0.00    +0.183 C 
ATOM      2  O   UNL     1      -9.628  13.276  66.207  0.00  0.00    -0.218 OA
ENDROOT
BRANCH   1   3
ATOM      3  C   UNL     1     -10.115  11.704  67.868  0.00  0.00    +0.036 A 
ATOM      4  C   UNL     1      -8.798  11.360  68.142  0.00  0.00    +0.141 A 
ATOM      5  F   UNL     1      -7.792  11.939  67.457  0.00  0.00    -0.204 F 
ATOM      6  C   UNL     1      -8.605  10.448  69.165  0.00  0.00    +0.059 A 
ATOM      7  C   UNL     1      -9.663   9.613  69.501  0.00  0.00    +0.142 A 
ATOM      8  F   UNL     1      -9.486   8.609  70.389  0.00  0.00    -0.204 F 
ATOM      9  C   UNL     1     -10.853   9.638  68.782  0.00  0.00    +0.030 A 
ATOM     10  C   UNL     1     -11.081  10.706  67.935  0.00  0.00    +0.003 A 
ENDBRANCH   1   3
BRANCH   1  11
ATOM     11  C   UNL     1     -10.120  14.098  68.448  0.00  0.00    +0.092 C 
ATOM     12  C   UNL     1     -10.104  15.365  67.361  0.00  0.00    +0.020 C 
BRANCH  11  17
ATOM     13  C   UNL     1     -12.093  15.888  72.252  0.00  0.00    -0.009 C 
ATOM     14  C   UNL     1     -12.259  15.775  71.238  0.00  0.00    -0.041 C 
ATOM     15  C   UNL     1     -12.974  14.543  70.762  0.00  0.00    +0.039 C 
ATOM     16  C   UNL     1     -11.887  13.735  70.061  0.00  0.00    +0.077 C 
ATOM     17  N   UNL     1     -11.660  14.361  68.792  0.00  0.00    -0.271 NA
ATOM     18  C   UNL     1     -11.661  15.808  68.897  0.00  0.00    +0.077 C 
ATOM     19  C   UNL     1     -11.234  16.287  70.268  0.00  0.00    +0.039 C 
ENDBRANCH  11  17
ENDBRANCH   1  11
BRANCH   1  20
ATOM     20  C   UNL     1     -11.906  13.214  67.066  0.00  0.00    +0.165 C 
BRANCH  20  21
ATOM     21  N   UNL     1     -12.336  13.151  65.704  0.00  0.00    -0.227 N 
ATOM     22  N   UNL     1     -12.411  12.084  64.917  0.00  0.00    -0.145 NA
ATOM     23  C   UNL     1     -12.460  12.531  63.642  0.00  0.00    +0.221 A 
ATOM     24  N   UNL     1     -12.385  13.884  63.654  0.00  0.00    -0.201 NA
ATOM     25  C   UNL     1     -12.679  14.214  64.935  0.00  0.00    +0.197 A 
ENDBRANCH  20  21
ENDBRANCH   1  20
TORSDOF 5
ENDMDL
MODEL 7
REMARK VINA RESULT:      -6.3      2.066      5.135
REMARK  Name = 
REMARK  5 active torsions:
REMARK  status: ('A' for Active; 'I' for Inactive)
REMARK    1  A    between atoms: N_5  and  C_6
REMARK    2  A    between atoms: C_6  and  C_8
REMARK    3  A    between atoms: C_8  and  C_10
REMARK    4  A    between atoms: C_8  and  C_16
REMARK    5  A    between atoms: C_10  and  N_11
REMARK                            x       y       z     vdW  Elec       q    Type
REMARK                         _______ _______ _______ _____ _____    ______ ____
ROOT
ATOM      1  C   UNL     1     -10.524  14.779  67.898  0.00  0.00    +0.183 C 
ATOM      2  O   UNL     1     -11.670  15.058  67.251  0.00  0.00    -0.218 OA
ENDROOT
BRANCH   1   3
ATOM      3  C   UNL     1      -9.981  13.458  67.493  0.00  0.00    +0.036 A 
ATOM      4  C   UNL     1     -10.824  12.428  67.096  0.00  0.00    +0.141 A 
ATOM      5  F   UNL     1     -12.113  12.420  67.489  0.00  0.00    -0.204 F 
ATOM      6  C   UNL     1     -10.271  11.475  66.259  0.00  0.00    +0.059 A 
ATOM      7  C   UNL     1      -8.889  11.328  66.263  0.00  0.00    +0.142 A 
ATOM      8  F   UNL     1      -8.307  10.318  65.578  0.00  0.00    -0.204 F 
ATOM      9  C   UNL     1      -8.092  12.061  67.136  0.00  0.00    +0.030 A 
ATOM     10  C   UNL     1      -8.655  13.149  67.777  0.00  0.00    +0.003 A 
ENDBRANCH   1   3
BRANCH   1  11
ATOM     11  C   UNL     1      -9.362  15.838  67.338  0.00  0.00    +0.092 C 
ATOM     12  C   UNL     1      -9.889  15.653  65.765  0.00  0.00    +0.020 C 
BRANCH  11  17
ATOM     13  C   UNL     1      -8.229  20.339  67.490  0.00  0.00    -0.009 C 
ATOM     14  C   UNL     1      -9.021  19.717  67.259  0.00  0.00    -0.041 C 
ATOM     15  C   UNL     1      -9.982  19.344  68.351  0.00  0.00    +0.039 C 
ATOM     16  C   UNL     1      -9.687  17.870  68.611  0.00  0.00    +0.077 C 
ATOM     17  N   UNL     1     -10.281  17.133  67.535  0.00  0.00    -0.271 NA
ATOM     18  C   UNL     1     -10.083  17.790  66.258  0.00  0.00    +0.077 C 
ATOM     19  C   UNL     1      -8.828  18.638  66.233  0.00  0.00    +0.039 C 
ENDBRANCH  11  17
ENDBRANCH   1  11
BRANCH   1  20
ATOM     20  C   UNL     1     -10.441  15.026  69.354  0.00  0.00    +0.165 C 
BRANCH  20  21
ATOM     21  N   UNL     1     -11.698  14.901  70.025  0.00  0.00    -0.227 N 
ATOM     22  N   UNL     1     -12.534  15.868  70.382  0.00  0.00    -0.145 NA
ATOM     23  C   UNL     1     -13.357  15.355  71.325  0.00  0.00    +0.221 A 
ATOM     24  N   UNL     1     -12.997  14.070  71.562  0.00  0.00    -0.201 NA
ATOM     25  C   UNL     1     -12.230  13.745  70.493  0.00  0.00    +0.197 A 
ENDBRANCH  20  21
ENDBRANCH   1  20
TORSDOF 5
ENDMDL
MODEL 8
REMARK VINA RESULT:      -6.1      2.377      4.188
REMARK  Name = 
REMARK  5 active torsions:
REMARK  status: ('A' for Active; 'I' for Inactive)
REMARK    1  A    between atoms: N_5  and  C_6
REMARK    2  A    between atoms: C_6  and  C_8
REMARK    3  A    between atoms: C_8  and  C_10
REMARK    4  A    between atoms: C_8  and  C_16
REMARK    5  A    between atoms: C_10  and  N_11
REMARK                            x       y       z     vdW  Elec       q    Type
REMARK                         _______ _______ _______ _____ _____    ______ ____
ROOT
ATOM      1  C   UNL     1     -10.663  14.655  67.796  0.00  0.00    +0.183 C 
ATOM      2  O   UNL     1     -11.639  15.512  67.448  0.00  0.00    -0.218 OA
ENDROOT
BRANCH   1   3
ATOM      3  C   UNL     1      -9.340  15.108  67.294  0.00  0.00    +0.036 A 
ATOM      4  C   UNL     1      -9.239  15.898  66.157  0.00  0.00    +0.141 A 
ATOM      5  F   UNL     1     -10.226  15.895  65.240  0.00  0.00    -0.204 F 
ATOM      6  C   UNL     1      -8.109  16.693  66.065  0.00  0.00    +0.059 A 
ATOM      7  C   UNL     1      -6.990  16.322  66.801  0.00  0.00    +0.142 A 
ATOM      8  F   UNL     1      -5.818  16.975  66.637  0.00  0.00    -0.204 F 
ATOM      9  C   UNL     1      -6.978  15.147  67.543  0.00  0.00    +0.030 A 
ATOM     10  C   UNL     1      -8.183  14.516  67.788  0.00  0.00    +0.003 A 
ENDBRANCH   1   3
BRANCH   1  11
ATOM     11  C   UNL     1     -10.477  14.751  69.451  0.00  0.00    +0.092 C 
ATOM     12  C   UNL     1     -10.486  16.420  69.398  0.00  0.00    +0.020 C 
BRANCH  11  17
ATOM     13  C   UNL     1     -12.783  14.668  73.481  0.00  0.00    -0.009 C 
ATOM     14  C   UNL     1     -12.897  14.959  72.496  0.00  0.00    -0.041 C 
ATOM     15  C   UNL     1     -13.448  13.965  71.515  0.00  0.00    +0.039 C 
ATOM     16  C   UNL     1     -12.249  13.610  70.640  0.00  0.00    +0.077 C 
ATOM     17  N   UNL     1     -12.050  14.713  69.746  0.00  0.00    -0.271 NA
ATOM     18  C   UNL     1     -12.220  15.987  70.416  0.00  0.00    +0.077 C 
ATOM     19  C   UNL     1     -11.903  15.909  71.895  0.00  0.00    +0.039 C 
ENDBRANCH  11  17
ENDBRANCH   1  11
BRANCH   1  20
ATOM     20  C   UNL     1     -10.886  13.202  67.629  0.00  0.00    +0.165 C 
BRANCH  20  21
ATOM     21  N   UNL     1     -11.046  12.804  66.265  0.00  0.00    -0.227 N 
ATOM     22  N   UNL     1     -10.119  12.350  65.430  0.00  0.00    -0.145 NA
ATOM     23  C   UNL     1     -10.606  12.495  64.176  0.00  0.00    +0.221 A 
ATOM     24  N   UNL     1     -11.831  13.070  64.251  0.00  0.00    -0.201 NA
ATOM     25  C   UNL     1     -12.192  12.898  65.546  0.00  0.00    +0.197 A 
ENDBRANCH  20  21
ENDBRANCH   1  20
TORSDOF 5
ENDMDL
MODEL 9
REMARK VINA RESULT:      -6.0      2.532      4.407
REMARK  Name = 
REMARK  5 active torsions:
REMARK  status: ('A' for Active; 'I' for Inactive)
REMARK    1  A    between atoms: N_5  and  C_6
REMARK    2  A    between atoms: C_6  and  C_8
REMARK    3  A    between atoms: C_8  and  C_10
REMARK    4  A    between atoms: C_8  and  C_16
REMARK    5  A    between atoms: C_10  and  N_11
REMARK                            x       y       z     vdW  Elec       q    Type
REMARK                         _______ _______ _______ _____ _____    ______ ____
ROOT
ATOM      1  C   UNL     1     -10.103  15.606  67.864  0.00  0.00    +0.183 C 
ATOM      2  O   UNL     1     -10.139  14.917  66.709  0.00  0.00    -0.218 OA
ENDROOT
BRANCH   1   3
ATOM      3  C   UNL     1      -9.874  17.054  67.624  0.00  0.00    +0.036 A 
ATOM      4  C   UNL     1     -10.386  17.683  66.497  0.00  0.00    +0.141 A 
ATOM      5  F   UNL     1     -10.687  16.963  65.398  0.00  0.00    -0.204 F 
ATOM      6  C   UNL     1     -10.600  19.046  66.604  0.00  0.00    +0.059 A 
ATOM      7  C   UNL     1      -9.884  19.744  67.570  0.00  0.00    +0.142 A 
ATOM      8  F   UNL     1      -9.943  21.093  67.621  0.00  0.00    -0.204 F 
ATOM      9  C   UNL     1      -8.927  19.108  68.352  0.00  0.00    +0.030 A 
ATOM     10  C   UNL     1      -8.914  17.726  68.372  0.00  0.00    +0.003 A 
ENDBRANCH   1   3
BRANCH   1  11
ATOM     11  C   UNL     1     -11.641  15.583  68.510  0.00  0.00    +0.092 C 
ATOM     12  C   UNL     1     -11.854  13.990  68.057  0.00  0.00    +0.020 C 
BRANCH  11  17
ATOM     13  C   UNL     1     -13.859  15.655  72.589  0.00  0.00    -0.009 C 
ATOM     14  C   UNL     1     -13.097  15.159  72.097  0.00  0.00    -0.041 C 
ATOM     15  C   UNL     1     -11.701  15.699  72.209  0.00  0.00    +0.039 C 
ATOM     16  C   UNL     1     -11.413  16.263  70.821  0.00  0.00    +0.077 C 
ATOM     17  N   UNL     1     -11.148  15.143  69.967  0.00  0.00    -0.271 NA
ATOM     18  C   UNL     1     -12.052  14.040  70.227  0.00  0.00    +0.077 C 
ATOM     19  C   UNL     1     -13.385  14.504  70.777  0.00  0.00    +0.039 C 
ENDBRANCH  11  17
ENDBRANCH   1  11
BRANCH   1  20
ATOM     20  C   UNL     1      -9.321  15.069  68.998  0.00  0.00    +0.165 C 
BRANCH  20  21
ATOM     21  N   UNL     1      -8.225  14.244  68.594  0.00  0.00    -0.227 N 
ATOM     22  N   UNL     1      -6.991  14.619  68.278  0.00  0.00    -0.145 NA
ATOM     23  C   UNL     1      -6.433  13.606  67.577  0.00  0.00    +0.221 A 
ATOM     24  N   UNL     1      -7.350  12.616  67.442  0.00  0.00    -0.201 NA
ATOM     25  C   UNL     1      -8.281  12.906  68.383  0.00  0.00    +0.197 A 
ENDBRANCH  20  21
ENDBRANCH   1  20
TORSDOF 5
ENDMDL
