MODEL 1
REMARK VINA RESULT:      -7.3      0.000      0.000
REMARK  Name = 
REMARK  6 active torsions:
REMARK  status: ('A' for Active; 'I' for Inactive)
REMARK    1  A    between atoms: C_2  and  N_3
REMARK    2  A    between atoms: N_3  and  C_4
REMARK    3  A    between atoms: N_3  and  C_6
REMARK    4  A    between atoms: C_6  and  C_7
REMARK    5  A    between atoms: C_7  and  N_8
REMARK    6  A    between atoms: C_16  and  C_17
REMARK                            x       y       z     vdW  Elec       q    Type
REMARK                         _______ _______ _______ _____ _____    ______ ____
ROOT
ATOM      1  N   UNL     1     -11.524  13.916  67.053  0.00  0.00    -0.256 N 
ATOM      2  C   UNL     1     -11.681  12.748  66.240  0.00  0.00    +0.254 C 
ATOM      3  O   UNL     1     -12.261  12.878  65.138  0.00  0.00    -0.272 OA
ATOM      4  C   UNL     1     -11.144  11.403  66.613  0.00  0.00    +0.210 C 
ATOM      5  N   UNL     1     -11.751  10.916  67.846  0.00  0.00    -0.260 NA
ATOM      6  C   UNL     1     -11.692  11.441  69.032  0.00  0.00    +0.080 C 
ATOM      7  C   UNL     1     -11.627  12.867  69.379  0.00  0.00    +0.032 A 
ATOM      8  C   UNL     1     -12.190  13.047  70.638  0.00  0.00    +0.014 A 
ATOM      9  C   UNL     1     -12.501  14.333  71.056  0.00  0.00    +0.058 A 
ATOM     10 CL   UNL     1     -13.770  14.617  72.236  0.00  0.00    -0.082 Cl
ATOM     11  C   UNL     1     -11.949  15.367  70.309  0.00  0.00    +0.013 A 
ATOM     12  C   UNL     1     -11.628  15.208  68.966  0.00  0.00    +0.016 A 
ATOM     13  C   UNL     1     -11.515  13.925  68.485  0.00  0.00    +0.055 A 
ENDROOT
BRANCH   6  14
ATOM     14  C   UNL     1     -11.929  10.492  70.117  0.00  0.00    +0.045 A 
ATOM     15  C   UNL     1     -10.853   9.753  70.589  0.00  0.00    +0.142 A 
ATOM     16  F   UNL     1      -9.853   9.384  69.734  0.00  0.00    -0.204 F 
ATOM     17  C   UNL     1     -11.083   9.060  71.771  0.00  0.00    +0.030 A 
ATOM     18  C   UNL     1     -12.364   8.706  72.175  0.00  0.00    +0.002 A 
ATOM     19  C   UNL     1     -13.456   9.241  71.503  0.00  0.00    +0.000 A 
ATOM     20  C   UNL     1     -13.193  10.317  70.664  0.00  0.00    +0.004 A 
ENDBRANCH   6  14
BRANCH   1  21
ATOM     21  C   UNL     1     -11.630  15.165  66.348  0.00  0.00    +0.116 C 
BRANCH  21  22
ATOM     22  C   UNL     1     -10.472  15.440  65.430  0.00  0.00    +0.094 C 
BRANCH  22  23
ATOM     23  N   UNL     1      -9.748  16.636  65.757  0.00  0.00    -0.271 NA
BRANCH  23  24
ATOM     24  C   UNL     1      -8.390  16.404  66.173  0.00  0.00    +0.072 C 
ATOM     25  C   UNL     1      -8.346  16.236  67.681  0.00  0.00    +0.019 C 
ENDBRANCH  23  24
BRANCH  23  27
ATOM     26  C   UNL     1     -10.394  18.978  66.159  0.00  0.00    +0.019 C 
ATOM     27  C   UNL     1     -10.461  17.542  66.615  0.00  0.00    +0.072 C 
ENDBRANCH  23  27
ENDBRANCH  22  23
ENDBRANCH  21  22
ENDBRANCH   1  21
TORSDOF 6
ENDMDL
MODEL 2
REMARK VINA RESULT:      -6.9      2.631      7.217
REMARK  Name = 
REMARK  6 active torsions:
REMARK  status: ('A' for Active; 'I' for Inactive)
REMARK    1  A    between atoms: C_2  and  N_3
REMARK    2  A    between atoms: N_3  and  C_4
REMARK    3  A    between atoms: N_3  and  C_6
REMARK    4  A    between atoms: C_6  and  C_7
REMARK    5  A    between atoms: C_7  and  N_8
REMARK    6  A    between atoms: C_16  and  C_17
REMARK                            x       y       z     vdW  Elec       q    Type
REMARK                         _______ _______ _______ _____ _____    ______ ____
ROOT
ATOM      1  N   UNL     1     -11.311  10.327  69.948  0.00  0.00    -0.256 N 
ATOM      2  C   UNL     1     -10.479   9.691  68.971  0.00  0.00    +0.254 C 
ATOM      3  O   UNL     1      -9.563   8.943  69.383  0.00  0.00    -0.272 OA
ATOM      4  C   UNL     1     -10.679   9.833  67.496  0.00  0.00    +0.210 C 
ATOM      5  N   UNL     1     -10.524  11.220  67.073  0.00  0.00    -0.260 NA
ATOM      6  C   UNL     1     -11.231  12.251  67.425  0.00  0.00    +0.080 C 
ATOM      7  C   UNL     1     -11.869  12.498  68.725  0.00  0.00    +0.032 A 
ATOM      8  C   UNL     1     -11.968  13.871  68.920  0.00  0.00    +0.014 A 
ATOM      9  C   UNL     1     -12.271  14.348  70.188  0.00  0.00    +0.058 A 
ATOM     10 CL   UNL     1     -11.764  15.951  70.695  0.00  0.00    -0.082 Cl
ATOM     11  C   UNL     1     -12.750  13.410  71.094  0.00  0.00    +0.013 A 
ATOM     12  C   UNL     1     -12.416  12.064  70.997  0.00  0.00    +0.016 A 
ATOM     13  C   UNL     1     -11.918  11.615  69.796  0.00  0.00    +0.055 A 
ENDROOT
BRANCH   6  14
ATOM     14  C   UNL     1     -11.187  13.357  66.472  0.00  0.00    +0.045 A 
ATOM     15  C   UNL     1     -12.217  13.465  65.547  0.00  0.00    +0.142 A 
ATOM     16  F   UNL     1     -12.822  12.339  65.066  0.00  0.00    -0.204 F 
ATOM     17  C   UNL     1     -12.254  14.662  64.840  0.00  0.00    +0.030 A 
ATOM     18  C   UNL     1     -11.122  15.451  64.677  0.00  0.00    +0.002 A 
ATOM     19  C   UNL     1      -9.982  15.158  65.414  0.00  0.00    +0.000 A 
ATOM     20  C   UNL     1     -10.147  14.277  66.475  0.00  0.00    +0.004 A 
ENDBRANCH   6  14
BRANCH   1  21
ATOM     21  C   UNL     1     -11.311   9.703  71.244  0.00  0.00    +0.116 C 
BRANCH  21  22
ATOM     22  C   UNL     1     -12.245   8.529  71.348  0.00  0.00    +0.094 C 
BRANCH  22  23
ATOM     23  N   UNL     1     -11.773   7.494  72.225  0.00  0.00    -0.271 NA
BRANCH  23  24
ATOM     24  C   UNL     1     -10.544   7.814  72.901  0.00  0.00    +0.072 C 
ATOM     25  C   UNL     1     -10.235   6.735  73.924  0.00  0.00    +0.019 C 
ENDBRANCH  23  24
BRANCH  23  27
ATOM     26  C   UNL     1     -11.385   6.166  70.187  0.00  0.00    +0.019 C 
ATOM     27  C   UNL     1     -11.779   6.180  71.643  0.00  0.00    +0.072 C 
ENDBRANCH  23  27
ENDBRANCH  22  23
ENDBRANCH  21  22
ENDBRANCH   1  21
TORSDOF 6
ENDMDL
MODEL 3
REMARK VINA RESULT:      -6.9      2.670      5.098
REMARK  Name = 
REMARK  6 active torsions:
REMARK  status: ('A' for Active; 'I' for Inactive)
REMARK    1  A    between atoms: C_2  and  N_3
REMARK    2  A    between atoms: N_3  and  C_4
REMARK    3  A    between atoms: N_3  and  C_6
REMARK    4  A    between atoms: C_6  and  C_7
REMARK    5  A    between atoms: C_7  and  N_8
REMARK    6  A    between atoms: C_16  and  C_17
REMARK                            x       y       z     vdW  Elec       q    Type
REMARK                         _______ _______ _______ _____ _____    ______ ____
ROOT
ATOM      1  N   UNL     1     -10.480  13.890  66.818  0.00  0.00    -0.256 N 
ATOM      2  C   UNL     1     -10.040  15.246  66.943  0.00  0.00    +0.254 C 
ATOM      3  O   UNL     1      -8.909  15.537  66.491  0.00  0.00    -0.272 OA
ATOM      4  C   UNL     1     -10.877  16.336  67.534  0.00  0.00    +0.210 C 
ATOM      5  N   UNL     1     -11.193  16.059  68.931  0.00  0.00    -0.260 NA
ATOM      6  C   UNL     1     -11.868  15.063  69.420  0.00  0.00    +0.080 C 
ATOM      7  C   UNL     1     -11.922  13.684  68.915  0.00  0.00    +0.032 A 
ATOM      8  C   UNL     1     -12.195  12.830  69.978  0.00  0.00    +0.014 A 
ATOM      9  C   UNL     1     -12.013  11.465  69.804  0.00  0.00    +0.058 A 
ATOM     10 CL   UNL     1     -11.663  10.419  71.172  0.00  0.00    -0.082 Cl
ATOM     11  C   UNL     1     -11.863  11.031  68.493  0.00  0.00    +0.013 A 
ATOM     12  C   UNL     1     -11.346  11.860  67.504  0.00  0.00    +0.016 A 
ATOM     13  C   UNL     1     -11.333  13.213  67.748  0.00  0.00    +0.055 A 
ENDROOT
BRANCH   6  14
ATOM     14  C   UNL     1     -12.455  15.326  70.730  0.00  0.00    +0.045 A 
ATOM     15  C   UNL     1     -11.602  15.643  71.779  0.00  0.00    +0.142 A 
ATOM     16  F   UNL     1     -10.351  15.096  71.828  0.00  0.00    -0.204 F 
ATOM     17  C   UNL     1     -12.225  16.122  72.925  0.00  0.00    +0.030 A 
ATOM     18  C   UNL     1     -13.555  15.839  73.209  0.00  0.00    +0.002 A 
ATOM     19  C   UNL     1     -14.345  15.252  72.228  0.00  0.00    +0.000 A 
ATOM     20  C   UNL     1     -13.826  15.257  70.939  0.00  0.00    +0.004 A 
ENDBRANCH   6  14
BRANCH   1  21
ATOM     21  C   UNL     1      -9.802  13.123  65.807  0.00  0.00    +0.116 C 
BRANCH  21  22
ATOM     22  C   UNL     1     -10.358  13.323  64.424  0.00  0.00    +0.094 C 
BRANCH  22  23
ATOM     23  N   UNL     1     -10.416  12.117  63.646  0.00  0.00    -0.271 NA
BRANCH  23  24
ATOM     24  C   UNL     1     -11.747  11.607  63.456  0.00  0.00    +0.072 C 
ATOM     25  C   UNL     1     -12.747  12.556  64.092  0.00  0.00    +0.019 C 
ENDBRANCH  23  24
BRANCH  23  27
ATOM     26  C   UNL     1      -9.392   9.948  63.088  0.00  0.00    +0.019 C 
ATOM     27  C   UNL     1      -9.470  11.111  64.045  0.00  0.00    +0.072 C 
ENDBRANCH  23  27
ENDBRANCH  22  23
ENDBRANCH  21  22
ENDBRANCH   1  21
TORSDOF 6
ENDMDL
MODEL 4
REMARK VINA RESULT:      -6.8      2.741      7.237
REMARK  Name = 
REMARK  6 active torsions:
REMARK  status: ('A' for Active; 'I' for Inactive)
REMARK    1  A    between atoms: C_2  and  N_3
REMARK    2  A    between atoms: N_3  and  C_4
REMARK    3  A    between atoms: N_3  and  C_6
REMARK    4  A    between atoms: C_6  and  C_7
REMARK    5  A    between atoms: C_7  and  N_8
REMARK    6  A    between atoms: C_16  and  C_17
REMARK                            x       y       z     vdW  Elec       q    Type
REMARK                         _______ _______ _______ _____ _____    ______ ____
ROOT
ATOM      1  N   UNL     1     -10.784   9.578  69.160  0.00  0.00    -0.256 N 
ATOM      2  C   UNL     1      -9.967   9.158  68.062  0.00  0.00    +0.254 C 
ATOM      3  O   UNL     1      -8.970   8.445  68.316  0.00  0.00    -0.272 OA
ATOM      4  C   UNL     1     -10.272   9.481  66.634  0.00  0.00    +0.210 C 
ATOM      5  N   UNL     1     -10.256  10.921  66.404  0.00  0.00    -0.260 NA
ATOM      6  C   UNL     1     -11.020  11.828  66.934  0.00  0.00    +0.080 C 
ATOM      7  C   UNL     1     -11.593  11.838  68.287  0.00  0.00    +0.032 A 
ATOM      8  C   UNL     1     -11.789  13.157  68.679  0.00  0.00    +0.014 A 
ATOM      9  C   UNL     1     -12.049  13.428  70.015  0.00  0.00    +0.058 A 
ATOM     10 CL   UNL     1     -11.643  14.986  70.717  0.00  0.00    -0.082 Cl
ATOM     11  C   UNL     1     -12.393  12.336  70.803  0.00  0.00    +0.013 A 
ATOM     12  C   UNL     1     -11.958  11.051  70.501  0.00  0.00    +0.016 A 
ATOM     13  C   UNL     1     -11.502  10.816  69.224  0.00  0.00    +0.055 A 
ENDROOT
BRANCH   6  14
ATOM     14  C   UNL     1     -11.127  13.052  66.146  0.00  0.00    +0.045 A 
ATOM     15  C   UNL     1     -12.248  13.221  65.345  0.00  0.00    +0.142 A 
ATOM     16  F   UNL     1     -12.844  12.134  64.770  0.00  0.00    -0.204 F 
ATOM     17  C   UNL     1     -12.415  14.497  64.820  0.00  0.00    +0.030 A 
ATOM     18  C   UNL     1     -11.345  15.370  64.664  0.00  0.00    +0.002 A 
ATOM     19  C   UNL     1     -10.123  15.052  65.243  0.00  0.00    +0.000 A 
ATOM     20  C   UNL     1     -10.138  14.027  66.181  0.00  0.00    +0.004 A 
ENDBRANCH   6  14
BRANCH   1  21
ATOM     21  C   UNL     1     -10.652   8.786  70.354  0.00  0.00    +0.116 C 
BRANCH  21  22
ATOM     22  C   UNL     1     -11.448   7.511  70.322  0.00  0.00    +0.094 C 
BRANCH  22  23
ATOM     23  N   UNL     1     -12.150   7.240  71.546  0.00  0.00    -0.271 NA
BRANCH  23  24
ATOM     24  C   UNL     1     -13.578   7.391  71.447  0.00  0.00    +0.072 C 
ATOM     25  C   UNL     1     -14.005   8.645  72.188  0.00  0.00    +0.019 C 
ENDBRANCH  23  24
BRANCH  23  27
ATOM     26  C   UNL     1     -10.620   7.001  73.460  0.00  0.00    +0.019 C 
ATOM     27  C   UNL     1     -11.587   7.878  72.704  0.00  0.00    +0.072 C 
ENDBRANCH  23  27
ENDBRANCH  22  23
ENDBRANCH  21  22
ENDBRANCH   1  21
TORSDOF 6
ENDMDL
MODEL 5
REMARK VINA RESULT:      -6.4      3.596      5.170
REMARK  Name = 
REMARK  6 active torsions:
REMARK  status: ('A' for Active; 'I' for Inactive)
REMARK    1  A    between atoms: C_2  and  N_3
REMARK    2  A    between atoms: N_3  and  C_4
REMARK    3  A    between atoms: N_3  and  C_6
REMARK    4  A    between atoms: C_6  and  C_7
REMARK    5  A    between atoms: C_7  and  N_8
REMARK    6  A    between atoms: C_16  and  C_17
REMARK                            x       y       z     vdW  Elec       q    Type
REMARK                         _______ _______ _______ _____ _____    ______ ____
ROOT
ATOM      1  N   UNL     1     -11.730  11.788  69.942  0.00  0.00    -0.256 N 
ATOM      2  C   UNL     1     -10.909  11.829  68.770  0.00  0.00    +0.254 C 
ATOM      3  O   UNL     1     -11.228  12.629  67.861  0.00  0.00    -0.272 OA
ATOM      4  C   UNL     1      -9.670  11.009  68.599  0.00  0.00    +0.210 C 
ATOM      5  N   UNL     1      -9.973   9.583  68.626  0.00  0.00    -0.260 NA
ATOM      6  C   UNL     1     -10.485   8.889  69.598  0.00  0.00    +0.080 C 
ATOM      7  C   UNL     1     -11.471   9.332  70.592  0.00  0.00    +0.032 A 
ATOM      8  C   UNL     1     -12.202   8.229  71.019  0.00  0.00    +0.014 A 
ATOM      9  C   UNL     1     -13.372   8.436  71.737  0.00  0.00    +0.058 A 
ATOM     10 CL   UNL     1     -14.664   7.247  71.723  0.00  0.00    -0.082 Cl
ATOM     11  C   UNL     1     -13.562   9.720  72.234  0.00  0.00    +0.013 A 
ATOM     12  C   UNL     1     -13.004  10.833  71.618  0.00  0.00    +0.016 A 
ATOM     13  C   UNL     1     -11.966  10.622  70.739  0.00  0.00    +0.055 A 
ENDROOT
BRANCH   6  14
ATOM     14  C   UNL     1     -10.185   7.462  69.533  0.00  0.00    +0.045 A 
ATOM     15  C   UNL     1      -9.289   6.938  70.455  0.00  0.00    +0.142 A 
ATOM     16  F   UNL     1      -8.255   7.705  70.912  0.00  0.00    -0.204 F 
ATOM     17  C   UNL     1      -9.235   5.550  70.506  0.00  0.00    +0.030 A 
ATOM     18  C   UNL     1      -9.622   4.762  69.429  0.00  0.00    +0.002 A 
ATOM     19  C   UNL     1     -10.282   5.356  68.360  0.00  0.00    +0.000 A 
ATOM     20  C   UNL     1     -10.766   6.640  68.575  0.00  0.00    +0.004 A 
ENDBRANCH   6  14
BRANCH   1  21
ATOM     21  C   UNL     1     -12.543  12.956  70.155  0.00  0.00    +0.116 C 
BRANCH  21  22
ATOM     22  C   UNL     1     -11.817  14.077  70.845  0.00  0.00    +0.094 C 
BRANCH  22  23
ATOM     23  N   UNL     1     -12.688  14.990  71.532  0.00  0.00    -0.271 NA
BRANCH  23  24
ATOM     24  C   UNL     1     -12.026  15.798  72.522  0.00  0.00    +0.072 C 
ATOM     25  C   UNL     1     -12.405  15.308  73.908  0.00  0.00    +0.019 C 
ENDBRANCH  23  24
BRANCH  23  27
ATOM     26  C   UNL     1     -15.148  15.082  71.472  0.00  0.00    +0.019 C 
ATOM     27  C   UNL     1     -13.911  14.400  72.001  0.00  0.00    +0.072 C 
ENDBRANCH  23  27
ENDBRANCH  22  23
ENDBRANCH  21  22
ENDBRANCH   1  21
TORSDOF 6
ENDMDL
MODEL 6
REMARK VINA RESULT:      -6.4      3.770      8.060
REMARK  Name = 
REMARK  6 active torsions:
REMARK  status: ('A' for Active; 'I' for Inactive)
REMARK    1  A    between atoms: C_2  and  N_3
REMARK    2  A    between atoms: N_3  and  C_4
REMARK    3  A    between atoms: N_3  and  C_6
REMARK    4  A    between atoms: C_6  and  C_7
REMARK    5  A    between atoms: C_7  and  N_8
REMARK    6  A    between atoms: C_16  and  C_17
REMARK                            x       y       z     vdW  Elec       q    Type
REMARK                         _______ _______ _______ _____ _____    ______ ____
ROOT
ATOM      1  N   UNL     1     -10.149  15.773  66.025  0.00  0.00    -0.256 N 
ATOM      2  C   UNL     1     -10.659  16.915  65.328  0.00  0.00    +0.254 C 
ATOM      3  O   UNL     1     -11.178  16.729  64.204  0.00  0.00    -0.272 OA
ATOM      4  C   UNL     1     -10.650  18.300  65.893  0.00  0.00    +0.210 C 
ATOM      5  N   UNL     1      -9.288  18.761  66.139  0.00  0.00    -0.260 NA
ATOM      6  C   UNL     1      -8.404  18.259  66.946  0.00  0.00    +0.080 C 
ATOM      7  C   UNL     1      -8.214  16.846  67.301  0.00  0.00    +0.032 A 
ATOM      8  C   UNL     1      -6.881  16.645  67.640  0.00  0.00    +0.014 A 
ATOM      9  C   UNL     1      -6.400  15.346  67.734  0.00  0.00    +0.058 A 
ATOM     10 CL   UNL     1      -4.700  14.991  67.475  0.00  0.00    -0.082 Cl
ATOM     11  C   UNL     1      -7.361  14.343  67.777  0.00  0.00    +0.013 A 
ATOM     12  C   UNL     1      -8.613  14.504  67.197  0.00  0.00    +0.016 A 
ATOM     13  C   UNL     1      -9.023  15.785  66.909  0.00  0.00    +0.055 A 
ENDROOT
BRANCH   6  14
ATOM     14  C   UNL     1      -7.372  19.204  67.362  0.00  0.00    +0.045 A 
ATOM     15  C   UNL     1      -7.309  19.558  68.704  0.00  0.00    +0.142 A 
ATOM     16  F   UNL     1      -8.455  19.620  69.445  0.00  0.00    -0.204 F 
ATOM     17  C   UNL     1      -6.167  20.255  69.080  0.00  0.00    +0.030 A 
ATOM     18  C   UNL     1      -5.416  20.979  68.162  0.00  0.00    +0.002 A 
ATOM     19  C   UNL     1      -5.679  20.830  66.806  0.00  0.00    +0.000 A 
ATOM     20  C   UNL     1      -6.476  19.749  66.451  0.00  0.00    +0.004 A 
ENDBRANCH   6  14
BRANCH   1  21
ATOM     21  C   UNL     1     -10.680  14.509  65.590  0.00  0.00    +0.116 C 
BRANCH  21  22
ATOM     22  C   UNL     1     -11.955  14.119  66.285  0.00  0.00    +0.094 C 
BRANCH  22  23
ATOM     23  N   UNL     1     -11.988  12.744  66.699  0.00  0.00    -0.271 NA
BRANCH  23  24
ATOM     24  C   UNL     1     -11.708  12.546  68.097  0.00  0.00    +0.072 C 
ATOM     25  C   UNL     1     -11.982  13.834  68.853  0.00  0.00    +0.019 C 
ENDBRANCH  23  24
BRANCH  23  27
ATOM     26  C   UNL     1     -10.432  10.839  66.588  0.00  0.00    +0.019 C 
ATOM     27  C   UNL     1     -11.262  11.851  65.839  0.00  0.00    +0.072 C 
ENDBRANCH  23  27
ENDBRANCH  22  23
ENDBRANCH  21  22
ENDBRANCH   1  21
TORSDOF 6
ENDMDL
MODEL 7
REMARK VINA RESULT:      -6.3      2.597      4.046
REMARK  Name = 
REMARK  6 active torsions:
REMARK  status: ('A' for Active; 'I' for Inactive)
REMARK    1  A    between atoms: C_2  and  N_3
REMARK    2  A    between atoms: N_3  and  C_4
REMARK    3  A    between atoms: N_3  and  C_6
REMARK    4  A    between atoms: C_6  and  C_7
REMARK    5  A    between atoms: C_7  and  N_8
REMARK    6  A    between atoms: C_16  and  C_17
REMARK                            x       y       z     vdW  Elec       q    Type
REMARK                         _______ _______ _______ _____ _____    ______ ____
ROOT
ATOM      1  N   UNL     1     -10.999  11.132  68.240  0.00  0.00    -0.256 N 
ATOM      2  C   UNL     1     -10.297  10.394  67.234  0.00  0.00    +0.254 C 
ATOM      3  O   UNL     1     -10.629  10.575  66.040  0.00  0.00    -0.272 OA
ATOM      4  C   UNL     1      -9.162   9.466  67.529  0.00  0.00    +0.210 C 
ATOM      5  N   UNL     1      -9.593   8.360  68.377  0.00  0.00    -0.260 NA
ATOM      6  C   UNL     1     -10.069   8.411  69.585  0.00  0.00    +0.080 C 
ATOM      7  C   UNL     1     -10.907   9.465  70.173  0.00  0.00    +0.032 A 
ATOM      8  C   UNL     1     -11.691   8.905  71.175  0.00  0.00    +0.014 A 
ATOM      9  C   UNL     1     -12.759   9.635  71.677  0.00  0.00    +0.058 A 
ATOM     10 CL   UNL     1     -14.152   8.830  72.383  0.00  0.00    -0.082 Cl
ATOM     11  C   UNL     1     -12.780  10.987  71.354  0.00  0.00    +0.013 A 
ATOM     12  C   UNL     1     -12.184  11.471  70.196  0.00  0.00    +0.016 A 
ATOM     13  C   UNL     1     -11.262  10.664  69.568  0.00  0.00    +0.055 A 
ENDROOT
BRANCH   6  14
ATOM     14  C   UNL     1      -9.911   7.173  70.341  0.00  0.00    +0.045 A 
ATOM     15  C   UNL     1     -10.600   6.048  69.908  0.00  0.00    +0.142 A 
ATOM     16  F   UNL     1     -11.821   6.185  69.311  0.00  0.00    -0.204 F 
ATOM     17  C   UNL     1     -10.220   4.853  70.509  0.00  0.00    +0.030 A 
ATOM     18  C   UNL     1      -9.608   4.823  71.756  0.00  0.00    +0.002 A 
ATOM     19  C   UNL     1      -9.166   6.013  72.321  0.00  0.00    +0.000 A 
ATOM     20  C   UNL     1      -9.104   7.109  71.470  0.00  0.00    +0.004 A 
ENDBRANCH   6  14
BRANCH   1  21
ATOM     21  C   UNL     1     -11.674  12.311  67.769  0.00  0.00    +0.116 C 
BRANCH  21  22
ATOM     22  C   UNL     1     -10.745  13.445  67.435  0.00  0.00    +0.094 C 
BRANCH  22  23
ATOM     23  N   UNL     1     -11.186  14.244  66.325  0.00  0.00    -0.271 NA
BRANCH  23  24
ATOM     24  C   UNL     1     -12.344  13.719  65.650  0.00  0.00    +0.072 C 
ATOM     25  C   UNL     1     -11.996  13.438  64.199  0.00  0.00    +0.019 C 
ENDBRANCH  23  24
BRANCH  23  27
ATOM     26  C   UNL     1      -9.278  15.760  65.974  0.00  0.00    +0.019 C 
ATOM     27  C   UNL     1     -10.135  14.644  65.431  0.00  0.00    +0.072 C 
ENDBRANCH  23  27
ENDBRANCH  22  23
ENDBRANCH  21  22
ENDBRANCH   1  21
TORSDOF 6
ENDMDL
MODEL 8
REMARK VINA RESULT:      -6.3      4.366      8.154
REMARK  Name = 
REMARK  6 active torsions:
REMARK  status: ('A' for Active; 'I' for Inactive)
REMARK    1  A    between atoms: C_2  and  N_3
REMARK    2  A    between atoms: N_3  and  C_4
REMARK    3  A    between atoms: N_3  and  C_6
REMARK    4  A    between atoms: C_6  and  C_7
REMARK    5  A    between atoms: C_7  and  N_8
REMARK    6  A    between atoms: C_16  and  C_17
REMARK                            x       y       z     vdW  Elec       q    Type
REMARK                         _______ _______ _______ _____ _____    ______ ____
ROOT
ATOM      1  N   UNL     1      -9.896  15.982  66.186  0.00  0.00    -0.256 N 
ATOM      2  C   UNL     1     -10.491  17.187  65.691  0.00  0.00    +0.254 C 
ATOM      3  O   UNL     1     -11.034  17.149  64.564  0.00  0.00    -0.272 OA
ATOM      4  C   UNL     1     -10.543  18.463  66.469  0.00  0.00    +0.210 C 
ATOM      5  N   UNL     1      -9.202  18.961  66.755  0.00  0.00    -0.260 NA
ATOM      6  C   UNL     1      -8.266  18.392  67.453  0.00  0.00    +0.080 C 
ATOM      7  C   UNL     1      -7.986  16.955  67.574  0.00  0.00    +0.032 A 
ATOM      8  C   UNL     1      -6.634  16.784  67.848  0.00  0.00    +0.014 A 
ATOM      9  C   UNL     1      -6.079  15.519  67.723  0.00  0.00    +0.058 A 
ATOM     10 CL   UNL     1      -4.370  15.312  67.374  0.00  0.00    -0.082 Cl
ATOM     11  C   UNL     1      -6.979  14.465  67.627  0.00  0.00    +0.013 A 
ATOM     12  C   UNL     1      -8.257  14.639  67.108  0.00  0.00    +0.016 A 
ATOM     13  C   UNL     1      -8.746  15.923  67.036  0.00  0.00    +0.055 A 
ENDROOT
BRANCH   6  14
ATOM     14  C   UNL     1      -7.277  19.321  67.992  0.00  0.00    +0.045 A 
ATOM     15  C   UNL     1      -6.481  20.024  67.097  0.00  0.00    +0.142 A 
ATOM     16  F   UNL     1      -6.120  19.449  65.911  0.00  0.00    -0.204 F 
ATOM     17  C   UNL     1      -5.743  21.063  67.650  0.00  0.00    +0.030 A 
ATOM     18  C   UNL     1      -5.413  21.089  68.999  0.00  0.00    +0.002 A 
ATOM     19  C   UNL     1      -6.013  20.178  69.860  0.00  0.00    +0.000 A 
ATOM     20  C   UNL     1      -7.118  19.499  69.360  0.00  0.00    +0.004 A 
ENDBRANCH   6  14
BRANCH   1  21
ATOM     21  C   UNL     1     -10.369  14.773  65.567  0.00  0.00    +0.116 C 
BRANCH  21  22
ATOM     22  C   UNL     1     -11.564  14.171  66.253  0.00  0.00    +0.094 C 
BRANCH  22  23
ATOM     23  N   UNL     1     -11.829  12.814  65.864  0.00  0.00    -0.271 NA
BRANCH  23  24
ATOM     24  C   UNL     1     -11.554  11.846  66.892  0.00  0.00    +0.072 C 
ATOM     25  C   UNL     1     -10.223  11.174  66.608  0.00  0.00    +0.019 C 
ENDBRANCH  23  24
BRANCH  23  27
ATOM     26  C   UNL     1     -12.355  12.142  63.554  0.00  0.00    +0.019 C 
ATOM     27  C   UNL     1     -11.294  12.453  64.581  0.00  0.00    +0.072 C 
ENDBRANCH  23  27
ENDBRANCH  22  23
ENDBRANCH  21  22
ENDBRANCH   1  21
TORSDOF 6
ENDMDL
MODEL 9
REMARK VINA RESULT:      -6.2      3.110      7.589
REMARK  Name = 
REMARK  6 active torsions:
REMARK  status: ('A' for Active; 'I' for Inactive)
REMARK    1  A    between atoms: C_2  and  N_3
REMARK    2  A    between atoms: N_3  and  C_4
REMARK    3  A    between atoms: N_3  and  C_6
REMARK    4  A    between atoms: C_6  and  C_7
REMARK    5  A    between atoms: C_7  and  N_8
REMARK    6  A    between atoms: C_16  and  C_17
REMARK                            x       y       z     vdW  Elec       q    Type
REMARK                         _______ _______ _______ _____ _____    ______ ____
ROOT
ATOM      1  N   UNL     1      -9.694   8.953  70.763  0.00  0.00    -0.256 N 
ATOM      2  C   UNL     1      -8.457   9.217  70.093  0.00  0.00    +0.254 C 
ATOM      3  O   UNL     1      -7.395   8.945  70.698  0.00  0.00    -0.272 OA
ATOM      4  C   UNL     1      -8.370   9.749  68.697  0.00  0.00    +0.210 C 
ATOM      5  N   UNL     1      -8.980  11.069  68.596  0.00  0.00    -0.260 NA
ATOM      6  C   UNL     1     -10.218  11.400  68.811  0.00  0.00    +0.080 C 
ATOM      7  C   UNL     1     -11.146  10.814  69.787  0.00  0.00    +0.032 A 
ATOM      8  C   UNL     1     -12.082  11.776  70.149  0.00  0.00    +0.014 A 
ATOM      9  C   UNL     1     -12.880  11.551  71.261  0.00  0.00    +0.058 A 
ATOM     10 CL   UNL     1     -13.554  12.890  72.176  0.00  0.00    -0.082 Cl
ATOM     11  C   UNL     1     -12.893  10.250  71.749  0.00  0.00    +0.013 A 
ATOM     12  C   UNL     1     -11.814   9.392  71.573  0.00  0.00    +0.016 A 
ATOM     13  C   UNL     1     -10.895   9.715  70.600  0.00  0.00    +0.055 A 
ENDROOT
BRANCH   6  14
ATOM     14  C   UNL     1     -10.631  12.629  68.140  0.00  0.00    +0.045 A 
ATOM     15  C   UNL     1     -11.542  12.533  67.097  0.00  0.00    +0.142 A 
ATOM     16  F   UNL     1     -11.537  11.431  66.289  0.00  0.00    -0.204 F 
ATOM     17  C   UNL     1     -12.082  13.739  66.668  0.00  0.00    +0.030 A 
ATOM     18  C   UNL     1     -11.430  14.948  66.875  0.00  0.00    +0.002 A 
ATOM     19  C   UNL     1     -10.325  14.984  67.717  0.00  0.00    +0.000 A 
ATOM     20  C   UNL     1     -10.129  13.868  68.519  0.00  0.00    +0.004 A 
ENDBRANCH   6  14
BRANCH   1  21
ATOM     21  C   UNL     1      -9.610   8.004  71.840  0.00  0.00    +0.116 C 
BRANCH  21  22
ATOM     22  C   UNL     1      -9.398   6.588  71.382  0.00  0.00    +0.094 C 
BRANCH  22  23
ATOM     23  N   UNL     1     -10.615   5.835  71.256  0.00  0.00    -0.271 NA
BRANCH  23  24
ATOM     24  C   UNL     1     -11.327   6.073  70.028  0.00  0.00    +0.072 C 
ATOM     25  C   UNL     1     -10.413   5.780  68.852  0.00  0.00    +0.019 C 
ENDBRANCH  23  24
BRANCH  23  27
ATOM     26  C   UNL     1     -11.235   4.712  73.358  0.00  0.00    +0.019 C 
ATOM     27  C   UNL     1     -11.456   5.873  72.421  0.00  0.00    +0.072 C 
ENDBRANCH  23  27
ENDBRANCH  22  23
ENDBRANCH  21  22
ENDBRANCH   1  21
TORSDOF 6
ENDMDL
