MODEL 1
REMARK VINA RESULT:      -9.0      0.000      0.000
REMARK  Name = 
REMARK  13 active torsions:
REMARK  status: ('A' for Active; 'I' for Inactive)
REMARK    1  A    between atoms: C_6  and  C_7
REMARK    2  A    between atoms: C_7  and  N_8
REMARK    3  A    between atoms: N_11  and  C_12
REMARK    4  A    between atoms: C_15  and  C_16
REMARK    5  A    between atoms: N_18  and  S_19
REMARK    6  A    between atoms: S_19  and  C_22
REMARK    7  A    between atoms: C_25  and  N_26
REMARK    8  A    between atoms: N_26  and  C_27
REMARK    9  A    between atoms: C_27  and  C_28
REMARK   10  A    between atoms: C_34  and  N_35
REMARK   11  A    between atoms: C_39  and  O_40
REMARK   12  A    between atoms: O_40  and  C_41
REMARK   13  A    between atoms: C_53  and  C_54
REMARK                            x       y       z     vdW  Elec       q    Type
REMARK                         _______ _______ _______ _____ _____    ______ ____
ROOT
ATOM      1  C   UNL     1      -9.378  16.464  67.034  0.00  0.00    +0.051 A 
ATOM      2  C   UNL     1     -10.639  16.334  67.602  0.00  0.00    +0.052 A 
ATOM      3  C   UNL     1     -11.293  15.109  67.570  0.00  0.00    +0.151 A 
ATOM      4  C   UNL     1     -10.734  14.003  66.942  0.00  0.00    +0.091 A 
ATOM      5  C   UNL     1      -9.707  14.288  66.050  0.00  0.00    +0.009 A 
ATOM      6  C   UNL     1      -9.068  15.520  66.062  0.00  0.00    +0.015 A 
ENDROOT
BRANCH   1  10
ATOM      7  N   UNL     1      -7.384  19.096  65.824  0.00  0.00    -0.266 NA
ATOM      8  C   UNL     1      -6.982  17.717  65.755  0.00  0.00    +0.094 C 
ATOM      9  C   UNL     1      -7.006  17.029  67.110  0.00  0.00    +0.108 C 
ATOM     10  N   UNL     1      -8.349  17.253  67.644  0.00  0.00    -0.305 N 
ATOM     11  C   UNL     1      -8.685  18.657  67.868  0.00  0.00    +0.108 C 
ATOM     12  C   UNL     1      -8.635  19.311  66.496  0.00  0.00    +0.094 C 
BRANCH   7  13
ATOM     13  C   UNL     1      -6.363  19.971  66.343  0.00  0.00    +0.095 C 
BRANCH  13  18
ATOM     14  C   UNL     1      -3.441  19.292  62.093  0.00  0.00    +0.000 C 
ATOM     15  C   UNL     1      -4.262  20.366  62.766  0.00  0.00    +0.004 C 
ATOM     16  C   UNL     1      -3.600  20.922  63.996  0.00  0.00    +0.026 C 
ATOM     17  C   UNL     1      -4.339  20.631  65.241  0.00  0.00    -0.029 C 
ATOM     18  C   UNL     1      -5.669  20.715  65.261  0.00  0.00    -0.032 C 
ATOM     19  C   UNL     1      -6.368  20.771  63.939  0.00  0.00    +0.023 C 
ATOM     20  C   UNL     1      -5.639  19.819  63.024  0.00  0.00    +0.005 C 
ATOM     21  C   UNL     1      -4.416  21.513  61.779  0.00  0.00    +0.000 C 
BRANCH  17  22
ATOM     22  C   UNL     1      -3.618  19.887  66.282  0.00  0.00    -0.004 A 
ATOM     23  C   UNL     1      -3.366  20.394  67.530  0.00  0.00    +0.001 A 
ATOM     24  C   UNL     1      -3.235  19.533  68.612  0.00  0.00    +0.011 A 
ATOM     25  C   UNL     1      -3.424  18.169  68.433  0.00  0.00    +0.058 A 
ATOM     26 CL   UNL     1      -3.540  17.060  69.783  0.00  0.00    -0.082 Cl
ATOM     27  C   UNL     1      -3.171  17.699  67.150  0.00  0.00    +0.011 A 
ATOM     28  C   UNL     1      -3.350  18.555  66.070  0.00  0.00    +0.001 A 
ENDBRANCH  17  22
ENDBRANCH  13  18
ENDBRANCH   7  13
ENDBRANCH   1  10
BRANCH   4  29
ATOM     29  C   UNL     1     -10.853  12.650  67.503  0.00  0.00    +0.289 C 
ATOM     30  N   UNL     1      -9.632  11.929  67.702  0.00  0.00    -0.055 NA
ATOM     31  O   UNL     1     -11.806  11.960  67.029  0.00  0.00    -0.267 OA
BRANCH  30  32
ATOM     32  S   UNL     1      -9.566  10.217  67.831  0.00  0.00    +0.096 S 
ATOM     33  O   UNL     1     -10.410   9.541  66.801  0.00  0.00    -0.148 OA
ATOM     34  O   UNL     1      -8.139   9.794  67.629  0.00  0.00    -0.148 OA
BRANCH  32  35
ATOM     35  C   UNL     1     -10.012   9.781  69.454  0.00  0.00    +0.133 A 
ATOM     36  C   UNL     1      -8.988   9.399  70.311  0.00  0.00    +0.097 A 
ATOM     37  C   UNL     1      -9.261   8.781  71.502  0.00  0.00    +0.306 A 
ATOM     38  C   UNL     1     -10.579   8.707  71.930  0.00  0.00    +0.135 A 
ATOM     39  C   UNL     1     -11.537   9.377  71.192  0.00  0.00    +0.024 A 
ATOM     40  C   UNL     1     -11.236  10.044  70.014  0.00  0.00    +0.022 A 
BRANCH  37  41
ATOM     41  N   UNL     1      -8.251   8.141  72.289  0.00  0.00    +0.082 N 
ATOM     42  O   UNL     1      -7.284   7.365  71.678  0.00  0.00    -0.576 OA
ATOM     43  O   UNL     1      -7.898   8.725  73.343  0.00  0.00    +0.042 OA
ENDBRANCH  37  41
BRANCH  38  44
ATOM     44  N   UNL     1     -11.008   7.671  72.821  0.00  0.00    -0.232 NA
BRANCH  44  45
ATOM     45  C   UNL     1     -11.160   6.303  72.338  0.00  0.00    +0.113 C 
BRANCH  45  46
ATOM     46  C   UNL     1     -11.013   5.320  73.476  0.00  0.00    +0.027 C 
ATOM     47  C   UNL     1     -10.065   5.845  74.518  0.00  0.00    +0.034 C 
ATOM     48  C   UNL     1      -8.751   5.093  74.534  0.00  0.00    +0.142 C 
ATOM     49  O   UNL     1      -8.423   4.778  73.213  0.00  0.00    -0.354 OA
ATOM     50  C   UNL     1      -9.204   3.740  72.738  0.00  0.00    +0.142 C 
ATOM     51  C   UNL     1     -10.672   3.935  73.001  0.00  0.00    +0.034 C 
ENDBRANCH  45  46
ENDBRANCH  44  45
ENDBRANCH  38  44
ENDBRANCH  32  35
ENDBRANCH  30  32
ENDBRANCH   4  29
BRANCH   3  52
ATOM     52  O   UNL     1     -12.353  14.829  68.437  0.00  0.00    -0.452 OA
BRANCH  52  53
ATOM     53  C   UNL     1     -12.203  14.725  69.805  0.00  0.00    +0.164 A 
ATOM     54  C   UNL     1     -12.008  15.822  70.631  0.00  0.00    +0.042 A 
ATOM     55  C   UNL     1     -12.123  15.628  71.999  0.00  0.00    +0.040 A 
ATOM     56  C   UNL     1     -12.601  14.431  72.506  0.00  0.00    +0.163 A 
ATOM     57  N   UNL     1     -12.988  14.618  73.790  0.00  0.00    -0.225 NA
ATOM     58  C   UNL     1     -12.530  15.808  74.227  0.00  0.00    +0.101 A 
ATOM     59  N   UNL     1     -12.635  13.357  71.694  0.00  0.00    -0.222 NA
ATOM     60  C   UNL     1     -12.039  16.464  73.107  0.00  0.00    +0.024 A 
ATOM     61  C   UNL     1     -12.486  13.489  70.373  0.00  0.00    +0.138 A 
ENDBRANCH  52  53
ENDBRANCH   3  52
TORSDOF 13
ENDMDL
MODEL 2
REMARK VINA RESULT:      -9.0      3.617     13.613
REMARK  Name = 
REMARK  13 active torsions:
REMARK  status: ('A' for Active; 'I' for Inactive)
REMARK    1  A    between atoms: C_6  and  C_7
REMARK    2  A    between atoms: C_7  and  N_8
REMARK    3  A    between atoms: N_11  and  C_12
REMARK    4  A    between atoms: C_15  and  C_16
REMARK    5  A    between atoms: N_18  and  S_19
REMARK    6  A    between atoms: S_19  and  C_22
REMARK    7  A    between atoms: C_25  and  N_26
REMARK    8  A    between atoms: N_26  and  C_27
REMARK    9  A    between atoms: C_27  and  C_28
REMARK   10  A    between atoms: C_34  and  N_35
REMARK   11  A    between atoms: C_39  and  O_40
REMARK   12  A    between atoms: O_40  and  C_41
REMARK   13  A    between atoms: C_53  and  C_54
REMARK                            x       y       z     vdW  Elec       q    Type
REMARK                         _______ _______ _______ _____ _____    ______ ____
ROOT
ATOM      1  C   UNL     1     -10.690   8.912  70.429  0.00  0.00    +0.051 A 
ATOM      2  C   UNL     1     -11.575   9.977  70.533  0.00  0.00    +0.052 A 
ATOM      3  C   UNL     1     -11.413  11.098  69.729  0.00  0.00    +0.151 A 
ATOM      4  C   UNL     1     -10.351  11.205  68.838  0.00  0.00    +0.091 A 
ATOM      5  C   UNL     1      -9.293  10.335  69.073  0.00  0.00    +0.009 A 
ATOM      6  C   UNL     1      -9.445   9.227  69.898  0.00  0.00    +0.015 A 
ENDROOT
BRANCH   1  10
ATOM      7  N   UNL     1     -10.408   6.472  72.946  0.00  0.00    -0.266 NA
ATOM      8  C   UNL     1      -9.438   6.626  71.897  0.00  0.00    +0.094 C 
ATOM      9  C   UNL     1     -10.056   6.558  70.509  0.00  0.00    +0.108 C 
ATOM     10  N   UNL     1     -11.130   7.549  70.506  0.00  0.00    -0.305 N 
ATOM     11  C   UNL     1     -12.199   7.289  71.467  0.00  0.00    +0.108 C 
ATOM     12  C   UNL     1     -11.539   7.351  72.835  0.00  0.00    +0.094 C 
BRANCH   7  13
ATOM     13  C   UNL     1     -10.832   5.109  73.147  0.00  0.00    +0.095 C 
BRANCH  13  18
ATOM     14  C   UNL     1      -6.808   2.409  75.036  0.00  0.00    +0.000 C 
ATOM     15  C   UNL     1      -7.952   3.264  75.527  0.00  0.00    +0.004 C 
ATOM     16  C   UNL     1      -9.282   2.571  75.428  0.00  0.00    +0.026 C 
ATOM     17  C   UNL     1     -10.205   3.210  74.467  0.00  0.00    -0.029 C 
ATOM     18  C   UNL     1     -10.285   4.539  74.404  0.00  0.00    -0.032 C 
ATOM     19  C   UNL     1      -9.194   5.319  75.068  0.00  0.00    +0.023 C 
ATOM     20  C   UNL     1      -7.907   4.579  74.798  0.00  0.00    +0.005 C 
ATOM     21  C   UNL     1      -7.706   3.561  76.998  0.00  0.00    +0.000 C 
BRANCH  17  22
ATOM     22  C   UNL     1     -10.699   2.374  73.365  0.00  0.00    -0.004 A 
ATOM     23  C   UNL     1      -9.956   2.085  72.251  0.00  0.00    +0.001 A 
ATOM     24  C   UNL     1     -10.180   0.901  71.560  0.00  0.00    +0.011 A 
ATOM     25  C   UNL     1     -11.112  -0.011  72.040  0.00  0.00    +0.058 A 
ATOM     26 CL   UNL     1     -11.257  -1.627  71.383  0.00  0.00    -0.082 Cl
ATOM     27  C   UNL     1     -12.130   0.534  72.812  0.00  0.00    +0.011 A 
ATOM     28  C   UNL     1     -11.881   1.694  73.537  0.00  0.00    +0.001 A 
ENDBRANCH  17  22
ENDBRANCH  13  18
ENDBRANCH   7  13
ENDBRANCH   1  10
BRANCH   4  29
ATOM     29  C   UNL     1     -10.514  11.805  67.507  0.00  0.00    +0.289 C 
ATOM     30  N   UNL     1      -9.891  13.078  67.296  0.00  0.00    -0.055 NA
ATOM     31  O   UNL     1     -11.677  11.695  67.013  0.00  0.00    -0.267 OA
BRANCH  30  32
ATOM     32  S   UNL     1     -10.377  14.164  66.057  0.00  0.00    +0.096 S 
ATOM     33  O   UNL     1     -10.170  13.594  64.694  0.00  0.00    -0.148 OA
ATOM     34  O   UNL     1     -11.842  14.444  66.239  0.00  0.00    -0.148 OA
BRANCH  32  35
ATOM     35  C   UNL     1      -9.530  15.664  66.293  0.00  0.00    +0.133 A 
ATOM     36  C   UNL     1     -10.298  16.792  66.551  0.00  0.00    +0.097 A 
ATOM     37  C   UNL     1      -9.755  18.046  66.475  0.00  0.00    +0.306 A 
ATOM     38  C   UNL     1      -8.381  18.171  66.317  0.00  0.00    +0.135 A 
ATOM     39  C   UNL     1      -7.617  17.021  66.376  0.00  0.00    +0.024 A 
ATOM     40  C   UNL     1      -8.179  15.760  66.507  0.00  0.00    +0.022 A 
BRANCH  37  41
ATOM     41  N   UNL     1     -10.553  19.235  66.474  0.00  0.00    +0.082 N 
ATOM     42  O   UNL     1     -10.387  20.181  67.467  0.00  0.00    -0.576 OA
ATOM     43  O   UNL     1     -10.915  19.675  65.354  0.00  0.00    +0.042 OA
ENDBRANCH  37  41
BRANCH  38  44
ATOM     44  N   UNL     1      -7.812  19.337  65.711  0.00  0.00    -0.232 NA
BRANCH  44  45
ATOM     45  C   UNL     1      -6.415  19.338  65.291  0.00  0.00    +0.113 C 
BRANCH  45  46
ATOM     46  C   UNL     1      -5.681  20.512  65.897  0.00  0.00    +0.027 C 
ATOM     47  C   UNL     1      -4.255  20.151  66.206  0.00  0.00    +0.034 C 
ATOM     48  C   UNL     1      -4.000  20.032  67.694  0.00  0.00    +0.142 C 
ATOM     49  O   UNL     1      -5.134  19.464  68.278  0.00  0.00    -0.354 OA
ATOM     50  C   UNL     1      -6.167  20.380  68.358  0.00  0.00    +0.142 C 
ATOM     51  C   UNL     1      -6.414  21.109  67.065  0.00  0.00    +0.034 C 
ENDBRANCH  45  46
ENDBRANCH  44  45
ENDBRANCH  38  44
ENDBRANCH  32  35
ENDBRANCH  30  32
ENDBRANCH   4  29
BRANCH   3  52
ATOM     52  O   UNL     1     -12.460  11.999  69.518  0.00  0.00    -0.452 OA
BRANCH  52  53
ATOM     53  C   UNL     1     -12.597  13.177  70.224  0.00  0.00    +0.164 A 
ATOM     54  C   UNL     1     -12.902  13.216  71.577  0.00  0.00    +0.042 A 
ATOM     55  C   UNL     1     -12.766  14.430  72.233  0.00  0.00    +0.040 A 
ATOM     56  C   UNL     1     -12.166  15.510  71.606  0.00  0.00    +0.163 A 
ATOM     57  N   UNL     1     -11.799  16.416  72.542  0.00  0.00    -0.225 NA
ATOM     58  C   UNL     1     -12.376  16.104  73.719  0.00  0.00    +0.101 A 
ATOM     59  N   UNL     1     -12.024  15.477  70.267  0.00  0.00    -0.222 NA
ATOM     60  C   UNL     1     -12.933  14.845  73.549  0.00  0.00    +0.024 A 
ATOM     61  C   UNL     1     -12.187  14.340  69.585  0.00  0.00    +0.138 A 
ENDBRANCH  52  53
ENDBRANCH   3  52
TORSDOF 13
ENDMDL
MODEL 3
REMARK VINA RESULT:      -8.9      1.829      2.396
REMARK  Name = 
REMARK  13 active torsions:
REMARK  status: ('A' for Active; 'I' for Inactive)
REMARK    1  A    between atoms: C_6  and  C_7
REMARK    2  A    between atoms: C_7  and  N_8
REMARK    3  A    between atoms: N_11  and  C_12
REMARK    4  A    between atoms: C_15  and  C_16
REMARK    5  A    between atoms: N_18  and  S_19
REMARK    6  A    between atoms: S_19  and  C_22
REMARK    7  A    between atoms: C_25  and  N_26
REMARK    8  A    between atoms: N_26  and  C_27
REMARK    9  A    between atoms: C_27  and  C_28
REMARK   10  A    between atoms: C_34  and  N_35
REMARK   11  A    between atoms: C_39  and  O_40
REMARK   12  A    between atoms: O_40  and  C_41
REMARK   13  A    between atoms: C_53  and  C_54
REMARK                            x       y       z     vdW  Elec       q    Type
REMARK                         _______ _______ _______ _____ _____    ______ ____
ROOT
ATOM      1  C   UNL     1      -9.798  16.669  66.971  0.00  0.00    +0.051 A 
ATOM      2  C   UNL     1     -10.943  16.215  67.615  0.00  0.00    +0.052 A 
ATOM      3  C   UNL     1     -11.433  14.944  67.346  0.00  0.00    +0.151 A 
ATOM      4  C   UNL     1     -10.829  14.115  66.409  0.00  0.00    +0.091 A 
ATOM      5  C   UNL     1      -9.977  14.755  65.516  0.00  0.00    +0.009 A 
ATOM      6  C   UNL     1      -9.505  16.036  65.769  0.00  0.00    +0.015 A 
ENDROOT
BRANCH   1  10
ATOM      7  N   UNL     1      -7.665  19.247  65.889  0.00  0.00    -0.266 NA
ATOM      8  C   UNL     1      -7.286  17.860  65.869  0.00  0.00    +0.094 C 
ATOM      9  C   UNL     1      -7.429  17.191  67.226  0.00  0.00    +0.108 C 
ATOM     10  N   UNL     1      -8.804  17.447  67.650  0.00  0.00    -0.305 N 
ATOM     11  C   UNL     1      -9.130  18.860  67.831  0.00  0.00    +0.108 C 
ATOM     12  C   UNL     1      -8.960  19.495  66.459  0.00  0.00    +0.094 C 
BRANCH   7  13
ATOM     13  C   UNL     1      -6.671  20.110  66.476  0.00  0.00    +0.095 C 
BRANCH  13  18
ATOM     14  C   UNL     1      -3.335  18.944  62.659  0.00  0.00    +0.000 C 
ATOM     15  C   UNL     1      -4.141  20.117  63.165  0.00  0.00    +0.004 C 
ATOM     16  C   UNL     1      -3.585  20.703  64.433  0.00  0.00    +0.026 C 
ATOM     17  C   UNL     1      -4.486  20.548  65.594  0.00  0.00    -0.029 C 
ATOM     18  C   UNL     1      -5.798  20.730  65.447  0.00  0.00    -0.032 C 
ATOM     19  C   UNL     1      -6.331  20.749  64.048  0.00  0.00    +0.023 C 
ATOM     20  C   UNL     1      -5.578  19.689  63.284  0.00  0.00    +0.005 C 
ATOM     21  C   UNL     1      -4.086  21.205  62.103  0.00  0.00    +0.000 C 
BRANCH  17  22
ATOM     22  C   UNL     1      -3.953  19.824  66.755  0.00  0.00    -0.004 A 
ATOM     23  C   UNL     1      -3.859  20.376  68.006  0.00  0.00    +0.001 A 
ATOM     24  C   UNL     1      -3.920  19.559  69.127  0.00  0.00    +0.011 A 
ATOM     25  C   UNL     1      -4.142  18.196  68.975  0.00  0.00    +0.058 A 
ATOM     26 CL   UNL     1      -4.497  17.153  70.336  0.00  0.00    -0.082 Cl
ATOM     27  C   UNL     1      -3.731  17.661  67.761  0.00  0.00    +0.011 A 
ATOM     28  C   UNL     1      -3.716  18.475  66.634  0.00  0.00    +0.001 A 
ENDBRANCH  17  22
ENDBRANCH  13  18
ENDBRANCH   7  13
ENDBRANCH   1  10
BRANCH   4  29
ATOM     29  C   UNL     1     -10.696  12.667  66.626  0.00  0.00    +0.289 C 
ATOM     30  N   UNL     1      -9.417  12.090  66.338  0.00  0.00    -0.055 NA
ATOM     31  O   UNL     1     -11.689  11.979  66.239  0.00  0.00    -0.267 OA
BRANCH  30  32
ATOM     32  S   UNL     1      -9.197  10.417  66.015  0.00  0.00    +0.096 S 
ATOM     33  O   UNL     1     -10.190   9.897  65.029  0.00  0.00    -0.148 OA
ATOM     34  O   UNL     1      -7.819  10.235  65.444  0.00  0.00    -0.148 OA
BRANCH  32  35
ATOM     35  C   UNL     1      -9.246   9.565  67.530  0.00  0.00    +0.133 A 
ATOM     36  C   UNL     1      -8.653   8.310  67.571  0.00  0.00    +0.097 A 
ATOM     37  C   UNL     1      -8.880   7.458  68.618  0.00  0.00    +0.306 A 
ATOM     38  C   UNL     1      -9.562   7.932  69.730  0.00  0.00    +0.135 A 
ATOM     39  C   UNL     1      -9.865   9.280  69.776  0.00  0.00    +0.024 A 
ATOM     40  C   UNL     1      -9.581  10.143  68.728  0.00  0.00    +0.022 A 
BRANCH  37  41
ATOM     41  N   UNL     1      -8.509   6.076  68.584  0.00  0.00    +0.082 N 
ATOM     42  O   UNL     1      -9.340   5.150  67.983  0.00  0.00    -0.576 OA
ATOM     43  O   UNL     1      -7.280   5.819  68.537  0.00  0.00    +0.042 OA
ENDBRANCH  37  41
BRANCH  38  44
ATOM     44  N   UNL     1     -10.290   7.042  70.584  0.00  0.00    -0.232 NA
BRANCH  44  45
ATOM     45  C   UNL     1     -11.721   6.839  70.386  0.00  0.00    +0.113 C 
BRANCH  45  46
ATOM     46  C   UNL     1     -12.459   6.958  71.699  0.00  0.00    +0.027 C 
ATOM     47  C   UNL     1     -13.946   6.919  71.483  0.00  0.00    +0.034 C 
ATOM     48  C   UNL     1     -14.599   8.264  71.716  0.00  0.00    +0.142 C 
ATOM     49  O   UNL     1     -13.729   9.250  71.244  0.00  0.00    -0.354 OA
ATOM     50  C   UNL     1     -12.662   9.429  72.106  0.00  0.00    +0.142 C 
ATOM     51  C   UNL     1     -12.004   8.138  72.510  0.00  0.00    +0.034 C 
ENDBRANCH  45  46
ENDBRANCH  44  45
ENDBRANCH  38  44
ENDBRANCH  32  35
ENDBRANCH  30  32
ENDBRANCH   4  29
BRANCH   3  52
ATOM     52  O   UNL     1     -12.320  14.308  68.220  0.00  0.00    -0.452 OA
BRANCH  52  53
ATOM     53  C   UNL     1     -12.168  14.318  69.591  0.00  0.00    +0.164 A 
ATOM     54  C   UNL     1     -12.049  15.486  70.330  0.00  0.00    +0.042 A 
ATOM     55  C   UNL     1     -12.155  15.390  71.710  0.00  0.00    +0.040 A 
ATOM     56  C   UNL     1     -12.556  14.206  72.307  0.00  0.00    +0.163 A 
ATOM     57  N   UNL     1     -12.958  14.465  73.573  0.00  0.00    -0.225 NA
ATOM     58  C   UNL     1     -12.580  15.712  73.918  0.00  0.00    +0.101 A 
ATOM     59  N   UNL     1     -12.516  13.073  71.579  0.00  0.00    -0.222 NA
ATOM     60  C   UNL     1     -12.130  16.311  72.750  0.00  0.00    +0.024 A 
ATOM     61  C   UNL     1     -12.371  13.113  70.252  0.00  0.00    +0.138 A 
ENDBRANCH  52  53
ENDBRANCH   3  52
TORSDOF 13
ENDMDL
MODEL 4
REMARK VINA RESULT:      -8.8      3.224     13.219
REMARK  Name = 
REMARK  13 active torsions:
REMARK  status: ('A' for Active; 'I' for Inactive)
REMARK    1  A    between atoms: C_6  and  C_7
REMARK    2  A    between atoms: C_7  and  N_8
REMARK    3  A    between atoms: N_11  and  C_12
REMARK    4  A    between atoms: C_15  and  C_16
REMARK    5  A    between atoms: N_18  and  S_19
REMARK    6  A    between atoms: S_19  and  C_22
REMARK    7  A    between atoms: C_25  and  N_26
REMARK    8  A    between atoms: N_26  and  C_27
REMARK    9  A    between atoms: C_27  and  C_28
REMARK   10  A    between atoms: C_34  and  N_35
REMARK   11  A    between atoms: C_39  and  O_40
REMARK   12  A    between atoms: O_40  and  C_41
REMARK   13  A    between atoms: C_53  and  C_54
REMARK                            x       y       z     vdW  Elec       q    Type
REMARK                         _______ _______ _______ _____ _____    ______ ____
ROOT
ATOM      1  C   UNL     1     -10.728   9.019  71.291  0.00  0.00    +0.051 A 
ATOM      2  C   UNL     1     -10.491   9.731  70.122  0.00  0.00    +0.052 A 
ATOM      3  C   UNL     1     -11.324  10.786  69.770  0.00  0.00    +0.151 A 
ATOM      4  C   UNL     1     -12.428  11.129  70.542  0.00  0.00    +0.091 A 
ATOM      5  C   UNL     1     -12.852  10.151  71.433  0.00  0.00    +0.009 A 
ATOM      6  C   UNL     1     -12.032   9.081  71.768  0.00  0.00    +0.015 A 
ENDROOT
BRANCH   1  10
ATOM      7  N   UNL     1      -9.275   5.855  71.791  0.00  0.00    -0.266 NA
ATOM      8  C   UNL     1     -10.369   6.346  72.585  0.00  0.00    +0.094 C 
ATOM      9  C   UNL     1     -10.071   7.691  73.229  0.00  0.00    +0.108 C 
ATOM     10  N   UNL     1      -9.660   8.570  72.136  0.00  0.00    -0.305 N 
ATOM     11  C   UNL     1      -8.447   8.148  71.440  0.00  0.00    +0.108 C 
ATOM     12  C   UNL     1      -8.780   6.797  70.826  0.00  0.00    +0.094 C 
BRANCH   7  13
ATOM     13  C   UNL     1      -8.197   5.300  72.570  0.00  0.00    +0.095 C 
BRANCH  13  18
ATOM     14  C   UNL     1     -10.962   1.317  74.453  0.00  0.00    +0.000 C 
ATOM     15  C   UNL     1      -9.893   1.590  73.422  0.00  0.00    +0.004 C 
ATOM     16  C   UNL     1      -8.549   1.868  74.034  0.00  0.00    +0.026 C 
ATOM     17  C   UNL     1      -8.071   3.246  73.798  0.00  0.00    -0.029 C 
ATOM     18  C   UNL     1      -8.248   3.817  72.607  0.00  0.00    -0.032 C 
ATOM     19  C   UNL     1      -9.218   3.161  71.675  0.00  0.00    +0.023 C 
ATOM     20  C   UNL     1     -10.377   2.691  72.518  0.00  0.00    +0.005 C 
ATOM     21  C   UNL     1      -9.749   0.341  72.566  0.00  0.00    +0.000 C 
BRANCH  17  22
ATOM     22  C   UNL     1      -7.780   4.061  74.985  0.00  0.00    -0.004 A 
ATOM     23  C   UNL     1      -6.513   4.435  75.348  0.00  0.00    +0.001 A 
ATOM     24  C   UNL     1      -6.318   5.610  76.062  0.00  0.00    +0.011 A 
ATOM     25  C   UNL     1      -7.402   6.432  76.347  0.00  0.00    +0.058 A 
ATOM     26 CL   UNL     1      -7.202   8.043  77.000  0.00  0.00    -0.082 Cl
ATOM     27  C   UNL     1      -8.631   5.787  76.412  0.00  0.00    +0.011 A 
ATOM     28  C   UNL     1      -8.832   4.637  75.658  0.00  0.00    +0.001 A 
ENDBRANCH  17  22
ENDBRANCH  13  18
ENDBRANCH   7  13
ENDBRANCH   1  10
BRANCH   4  29
ATOM     29  C   UNL     1     -12.811  12.530  70.766  0.00  0.00    +0.289 C 
ATOM     30  N   UNL     1     -12.007  13.526  70.122  0.00  0.00    -0.055 NA
ATOM     31  O   UNL     1     -13.142  12.806  71.959  0.00  0.00    -0.267 OA
BRANCH  30  32
ATOM     32  S   UNL     1     -11.940  15.159  70.650  0.00  0.00    +0.096 S 
ATOM     33  O   UNL     1     -13.288  15.694  71.004  0.00  0.00    -0.148 OA
ATOM     34  O   UNL     1     -11.071  15.212  71.875  0.00  0.00    -0.148 OA
BRANCH  32  35
ATOM     35  C   UNL     1     -11.150  16.093  69.415  0.00  0.00    +0.133 A 
ATOM     36  C   UNL     1     -11.302  15.666  68.102  0.00  0.00    +0.097 A 
ATOM     37  C   UNL     1     -10.506  16.159  67.104  0.00  0.00    +0.306 A 
ATOM     38  C   UNL     1      -9.668  17.230  67.385  0.00  0.00    +0.135 A 
ATOM     39  C   UNL     1      -9.776  17.826  68.628  0.00  0.00    +0.024 A 
ATOM     40  C   UNL     1     -10.627  17.346  69.612  0.00  0.00    +0.022 A 
BRANCH  37  41
ATOM     41  N   UNL     1     -10.445  15.569  65.801  0.00  0.00    +0.082 N 
ATOM     42  O   UNL     1     -10.868  16.284  64.697  0.00  0.00    -0.576 OA
ATOM     43  O   UNL     1      -9.524  14.740  65.596  0.00  0.00    +0.042 OA
ENDBRANCH  37  41
BRANCH  38  44
ATOM     44  N   UNL     1      -8.474  17.451  66.626  0.00  0.00    -0.232 NA
BRANCH  44  45
ATOM     45  C   UNL     1      -7.942  18.800  66.470  0.00  0.00    +0.113 C 
BRANCH  45  46
ATOM     46  C   UNL     1      -6.529  18.877  66.999  0.00  0.00    +0.027 C 
ATOM     47  C   UNL     1      -6.494  19.563  68.336  0.00  0.00    +0.034 C 
ATOM     48  C   UNL     1      -5.870  20.940  68.263  0.00  0.00    +0.142 C 
ATOM     49  O   UNL     1      -6.260  21.522  67.054  0.00  0.00    -0.354 OA
ATOM     50  C   UNL     1      -5.572  20.969  65.989  0.00  0.00    +0.142 C 
ATOM     51  C   UNL     1      -5.572  19.465  66.001  0.00  0.00    +0.034 C 
ENDBRANCH  45  46
ENDBRANCH  44  45
ENDBRANCH  38  44
ENDBRANCH  32  35
ENDBRANCH  30  32
ENDBRANCH   4  29
BRANCH   3  52
ATOM     52  O   UNL     1     -10.920  11.753  68.845  0.00  0.00    -0.452 OA
BRANCH  52  53
ATOM     53  C   UNL     1     -11.119  11.627  67.486  0.00  0.00    +0.164 A 
ATOM     54  C   UNL     1     -12.021  12.408  66.778  0.00  0.00    +0.042 A 
ATOM     55  C   UNL     1     -11.957  12.372  65.392  0.00  0.00    +0.040 A 
ATOM     56  C   UNL     1     -10.909  11.732  64.750  0.00  0.00    +0.163 A 
ATOM     57  N   UNL     1     -10.851  12.161  63.467  0.00  0.00    -0.225 NA
ATOM     58  C   UNL     1     -11.976  12.841  63.170  0.00  0.00    +0.101 A 
ATOM     59  N   UNL     1     -10.151  10.873  65.457  0.00  0.00    -0.222 NA
ATOM     60  C   UNL     1     -12.642  13.022  64.373  0.00  0.00    +0.024 A 
ATOM     61  C   UNL     1     -10.210  10.840  66.791  0.00  0.00    +0.138 A 
ENDBRANCH  52  53
ENDBRANCH   3  52
TORSDOF 13
ENDMDL
MODEL 5
REMARK VINA RESULT:      -8.8      3.886      6.766
REMARK  Name = 
REMARK  13 active torsions:
REMARK  status: ('A' for Active; 'I' for Inactive)
REMARK    1  A    between atoms: C_6  and  C_7
REMARK    2  A    between atoms: C_7  and  N_8
REMARK    3  A    between atoms: N_11  and  C_12
REMARK    4  A    between atoms: C_15  and  C_16
REMARK    5  A    between atoms: N_18  and  S_19
REMARK    6  A    between atoms: S_19  and  C_22
REMARK    7  A    between atoms: C_25  and  N_26
REMARK    8  A    between atoms: N_26  and  C_27
REMARK    9  A    between atoms: C_27  and  C_28
REMARK   10  A    between atoms: C_34  and  N_35
REMARK   11  A    between atoms: C_39  and  O_40
REMARK   12  A    between atoms: O_40  and  C_41
REMARK   13  A    between atoms: C_53  and  C_54
REMARK                            x       y       z     vdW  Elec       q    Type
REMARK                         _______ _______ _______ _____ _____    ______ ____
ROOT
ATOM      1  C   UNL     1      -6.760  10.702  67.682  0.00  0.00    +0.051 A 
ATOM      2  C   UNL     1      -7.282  10.579  66.400  0.00  0.00    +0.052 A 
ATOM      3  C   UNL     1      -7.463   9.321  65.841  0.00  0.00    +0.151 A 
ATOM      4  C   UNL     1      -7.093   8.165  66.518  0.00  0.00    +0.091 A 
ATOM      5  C   UNL     1      -6.213   8.356  67.576  0.00  0.00    +0.009 A 
ATOM      6  C   UNL     1      -6.011   9.617  68.121  0.00  0.00    +0.015 A 
ENDROOT
BRANCH   1  10
ATOM      7  N   UNL     1      -7.479  14.129  67.352  0.00  0.00    -0.266 NA
ATOM      8  C   UNL     1      -6.195  13.638  67.773  0.00  0.00    +0.094 C 
ATOM      9  C   UNL     1      -6.285  12.714  68.977  0.00  0.00    +0.108 C 
ATOM     10  N   UNL     1      -7.249  11.679  68.610  0.00  0.00    -0.305 N 
ATOM     11  C   UNL     1      -8.598  12.173  68.346  0.00  0.00    +0.108 C 
ATOM     12  C   UNL     1      -8.464  13.102  67.150  0.00  0.00    +0.094 C 
BRANCH   7  13
ATOM     13  C   UNL     1      -7.998  15.183  68.187  0.00  0.00    +0.095 C 
BRANCH  13  18
ATOM     14  C   UNL     1     -10.041  19.956  68.514  0.00  0.00    +0.000 C 
ATOM     15  C   UNL     1      -9.643  18.944  67.467  0.00  0.00    +0.004 C 
ATOM     16  C   UNL     1     -10.586  17.776  67.395  0.00  0.00    +0.026 C 
ATOM     17  C   UNL     1      -9.964  16.495  67.789  0.00  0.00    -0.029 C 
ATOM     18  C   UNL     1      -8.722  16.209  67.396  0.00  0.00    -0.032 C 
ATOM     19  C   UNL     1      -7.901  17.340  66.860  0.00  0.00    +0.023 C 
ATOM     20  C   UNL     1      -8.214  18.544  67.713  0.00  0.00    +0.005 C 
ATOM     21  C   UNL     1      -9.684  19.640  66.115  0.00  0.00    +0.000 C 
BRANCH  17  22
ATOM     22  C   UNL     1     -10.581  15.774  68.910  0.00  0.00    -0.004 A 
ATOM     23  C   UNL     1     -10.661  16.284  70.179  0.00  0.00    +0.001 A 
ATOM     24  C   UNL     1     -11.696  15.891  71.017  0.00  0.00    +0.011 A 
ATOM     25  C   UNL     1     -12.681  15.035  70.541  0.00  0.00    +0.058 A 
ATOM     26 CL   UNL     1     -14.147  14.710  71.440  0.00  0.00    -0.082 Cl
ATOM     27  C   UNL     1     -12.287  14.200  69.503  0.00  0.00    +0.011 A 
ATOM     28  C   UNL     1     -11.281  14.621  68.642  0.00  0.00    +0.001 A 
ENDBRANCH  17  22
ENDBRANCH  13  18
ENDBRANCH   7  13
ENDBRANCH   1  10
BRANCH   4  29
ATOM     29  C   UNL     1      -7.906   6.942  66.463  0.00  0.00    +0.289 C 
ATOM     30  N   UNL     1      -8.665   6.623  67.636  0.00  0.00    -0.055 NA
ATOM     31  O   UNL     1      -7.337   5.950  65.913  0.00  0.00    -0.267 OA
BRANCH  30  32
ATOM     32  S   UNL     1      -9.233   5.038  67.980  0.00  0.00    +0.096 S 
ATOM     33  O   UNL     1     -10.169   4.534  66.932  0.00  0.00    -0.148 OA
ATOM     34  O   UNL     1      -8.043   4.124  68.035  0.00  0.00    -0.148 OA
BRANCH  32  35
ATOM     35  C   UNL     1      -9.947   5.055  69.565  0.00  0.00    +0.133 A 
ATOM     36  C   UNL     1     -10.981   5.955  69.786  0.00  0.00    +0.097 A 
ATOM     37  C   UNL     1     -11.411   6.236  71.055  0.00  0.00    +0.306 A 
ATOM     38  C   UNL     1     -10.929   5.472  72.109  0.00  0.00    +0.135 A 
ATOM     39  C   UNL     1     -10.137   4.380  71.806  0.00  0.00    +0.024 A 
ATOM     40  C   UNL     1      -9.751   4.078  70.508  0.00  0.00    +0.022 A 
BRANCH  37  41
ATOM     41  N   UNL     1     -12.281   7.334  71.350  0.00  0.00    +0.082 N 
ATOM     42  O   UNL     1     -11.935   8.615  70.964  0.00  0.00    -0.576 OA
ATOM     43  O   UNL     1     -13.512   7.089  71.391  0.00  0.00    +0.042 OA
ENDBRANCH  37  41
BRANCH  38  44
ATOM     44  N   UNL     1     -10.885   5.996  73.440  0.00  0.00    -0.232 NA
BRANCH  44  45
ATOM     45  C   UNL     1      -9.800   5.623  74.341  0.00  0.00    +0.113 C 
BRANCH  45  46
ATOM     46  C   UNL     1      -8.858   6.786  74.546  0.00  0.00    +0.027 C 
ATOM     47  C   UNL     1      -9.180   7.910  73.602  0.00  0.00    +0.034 C 
ATOM     48  C   UNL     1      -8.135   8.071  72.518  0.00  0.00    +0.142 C 
ATOM     49  O   UNL     1      -7.698   6.795  72.154  0.00  0.00    -0.354 OA
ATOM     50  C   UNL     1      -6.860   6.261  73.117  0.00  0.00    +0.142 C 
ATOM     51  C   UNL     1      -7.414   6.371  74.511  0.00  0.00    +0.034 C 
ENDBRANCH  45  46
ENDBRANCH  44  45
ENDBRANCH  38  44
ENDBRANCH  32  35
ENDBRANCH  30  32
ENDBRANCH   4  29
BRANCH   3  52
ATOM     52  O   UNL     1      -8.317   9.126  64.751  0.00  0.00    -0.452 OA
BRANCH  52  53
ATOM     53  C   UNL     1      -9.362   9.974  64.450  0.00  0.00    +0.164 A 
ATOM     54  C   UNL     1     -10.234  10.472  65.408  0.00  0.00    +0.042 A 
ATOM     55  C   UNL     1     -11.081  11.504  65.035  0.00  0.00    +0.040 A 
ATOM     56  C   UNL     1     -10.926  12.139  63.813  0.00  0.00    +0.163 A 
ATOM     57  N   UNL     1     -11.579  13.325  63.847  0.00  0.00    -0.225 NA
ATOM     58  C   UNL     1     -12.378  13.367  64.932  0.00  0.00    +0.101 A 
ATOM     59  N   UNL     1     -10.181  11.538  62.866  0.00  0.00    -0.222 NA
ATOM     60  C   UNL     1     -12.034  12.265  65.702  0.00  0.00    +0.024 A 
ATOM     61  C   UNL     1      -9.382  10.511  63.169  0.00  0.00    +0.138 A 
ENDBRANCH  52  53
ENDBRANCH   3  52
TORSDOF 13
ENDMDL
MODEL 6
REMARK VINA RESULT:      -8.8      5.293     12.429
REMARK  Name = 
REMARK  13 active torsions:
REMARK  status: ('A' for Active; 'I' for Inactive)
REMARK    1  A    between atoms: C_6  and  C_7
REMARK    2  A    between atoms: C_7  and  N_8
REMARK    3  A    between atoms: N_11  and  C_12
REMARK    4  A    between atoms: C_15  and  C_16
REMARK    5  A    between atoms: N_18  and  S_19
REMARK    6  A    between atoms: S_19  and  C_22
REMARK    7  A    between atoms: C_25  and  N_26
REMARK    8  A    between atoms: N_26  and  C_27
REMARK    9  A    between atoms: C_27  and  C_28
REMARK   10  A    between atoms: C_34  and  N_35
REMARK   11  A    between atoms: C_39  and  O_40
REMARK   12  A    between atoms: O_40  and  C_41
REMARK   13  A    between atoms: C_53  and  C_54
REMARK                            x       y       z     vdW  Elec       q    Type
REMARK                         _______ _______ _______ _____ _____    ______ ____
ROOT
ATOM      1  C   UNL     1      -8.250   6.640  67.017  0.00  0.00    +0.051 A 
ATOM      2  C   UNL     1      -7.953   7.622  67.955  0.00  0.00    +0.052 A 
ATOM      3  C   UNL     1      -7.998   8.963  67.595  0.00  0.00    +0.151 A 
ATOM      4  C   UNL     1      -8.294   9.357  66.296  0.00  0.00    +0.091 A 
ATOM      5  C   UNL     1      -8.163   8.364  65.333  0.00  0.00    +0.009 A 
ATOM      6  C   UNL     1      -8.093   7.024  65.690  0.00  0.00    +0.015 A 
ENDROOT
BRANCH   1  10
ATOM      7  N   UNL     1      -9.244   5.279  70.103  0.00  0.00    -0.266 NA
ATOM      8  C   UNL     1      -8.018   4.913  69.448  0.00  0.00    +0.094 C 
ATOM      9  C   UNL     1      -8.236   4.420  68.026  0.00  0.00    +0.108 C 
ATOM     10  N   UNL     1      -9.002   5.469  67.357  0.00  0.00    -0.305 N 
ATOM     11  C   UNL     1     -10.322   5.717  67.933  0.00  0.00    +0.108 C 
ATOM     12  C   UNL     1     -10.062   6.192  69.354  0.00  0.00    +0.094 C 
BRANCH   7  13
ATOM     13  C   UNL     1     -10.016   4.150  70.559  0.00  0.00    +0.095 C 
BRANCH  13  18
ATOM     14  C   UNL     1      -7.629   4.187  75.180  0.00  0.00    +0.000 C 
ATOM     15  C   UNL     1      -8.983   4.489  74.582  0.00  0.00    +0.004 C 
ATOM     16  C   UNL     1      -9.735   3.249  74.186  0.00  0.00    +0.026 C 
ATOM     17  C   UNL     1      -9.951   3.135  72.729  0.00  0.00    -0.029 C 
ATOM     18  C   UNL     1     -10.280   4.214  72.019  0.00  0.00    -0.032 C 
ATOM     19  C   UNL     1     -10.084   5.546  72.673  0.00  0.00    +0.023 C 
ATOM     20  C   UNL     1      -8.794   5.460  73.449  0.00  0.00    +0.005 C 
ATOM     21  C   UNL     1      -9.808   5.197  75.644  0.00  0.00    +0.000 C 
BRANCH  17  22
ATOM     22  C   UNL     1      -9.417   1.937  72.070  0.00  0.00    -0.004 A 
ATOM     23  C   UNL     1     -10.210   0.969  71.512  0.00  0.00    +0.001 A 
ATOM     24  C   UNL     1      -9.733   0.213  70.449  0.00  0.00    +0.011 A 
ATOM     25  C   UNL     1      -8.480   0.488  69.915  0.00  0.00    +0.058 A 
ATOM     26 CL   UNL     1      -7.927  -0.233  68.420  0.00  0.00    -0.082 Cl
ATOM     27  C   UNL     1      -7.580   1.078  70.794  0.00  0.00    +0.011 A 
ATOM     28  C   UNL     1      -8.065   1.870  71.828  0.00  0.00    +0.001 A 
ENDBRANCH  17  22
ENDBRANCH  13  18
ENDBRANCH   7  13
ENDBRANCH   1  10
BRANCH   4  29
ATOM     29  C   UNL     1      -9.126  10.535  66.015  0.00  0.00    +0.289 C 
ATOM     30  N   UNL     1     -10.033  10.430  64.910  0.00  0.00    -0.055 NA
ATOM     31  O   UNL     1      -8.522  11.647  66.102  0.00  0.00    -0.267 OA
BRANCH  30  32
ATOM     32  S   UNL     1     -10.683  11.799  64.100  0.00  0.00    +0.096 S 
ATOM     33  O   UNL     1      -9.759  12.325  63.052  0.00  0.00    -0.148 OA
ATOM     34  O   UNL     1     -11.963  11.376  63.437  0.00  0.00    -0.148 OA
BRANCH  32  35
ATOM     35  C   UNL     1     -11.089  12.992  65.297  0.00  0.00    +0.133 A 
ATOM     36  C   UNL     1     -10.593  14.275  65.108  0.00  0.00    +0.097 A 
ATOM     37  C   UNL     1     -10.622  15.197  66.119  0.00  0.00    +0.306 A 
ATOM     38  C   UNL     1     -11.321  14.896  67.279  0.00  0.00    +0.135 A 
ATOM     39  C   UNL     1     -12.061  13.729  67.303  0.00  0.00    +0.024 A 
ATOM     40  C   UNL     1     -12.064  12.828  66.248  0.00  0.00    +0.022 A 
BRANCH  37  41
ATOM     41  N   UNL     1      -9.898  16.431  66.060  0.00  0.00    +0.082 N 
ATOM     42  O   UNL     1      -8.542  16.427  65.797  0.00  0.00    -0.576 OA
ATOM     43  O   UNL     1     -10.529  17.441  65.660  0.00  0.00    +0.042 OA
ENDBRANCH  37  41
BRANCH  38  44
ATOM     44  N   UNL     1     -10.979  15.509  68.527  0.00  0.00    -0.232 NA
BRANCH  44  45
ATOM     45  C   UNL     1     -11.998  15.710  69.551  0.00  0.00    +0.113 C 
BRANCH  45  46
ATOM     46  C   UNL     1     -11.671  14.905  70.788  0.00  0.00    +0.027 C 
ATOM     47  C   UNL     1     -12.533  13.676  70.871  0.00  0.00    +0.034 C 
ATOM     48  C   UNL     1     -13.567  13.770  71.973  0.00  0.00    +0.142 C 
ATOM     49  O   UNL     1     -14.018  15.091  72.025  0.00  0.00    -0.354 OA
ATOM     50  C   UNL     1     -13.074  15.918  72.609  0.00  0.00    +0.142 C 
ATOM     51  C   UNL     1     -11.694  15.737  72.039  0.00  0.00    +0.034 C 
ENDBRANCH  45  46
ENDBRANCH  44  45
ENDBRANCH  38  44
ENDBRANCH  32  35
ENDBRANCH  30  32
ENDBRANCH   4  29
BRANCH   3  52
ATOM     52  O   UNL     1      -8.090   9.971  68.560  0.00  0.00    -0.452 OA
BRANCH  52  53
ATOM     53  C   UNL     1      -8.983   9.931  69.611  0.00  0.00    +0.164 A 
ATOM     54  C   UNL     1     -10.309  10.316  69.492  0.00  0.00    +0.042 A 
ATOM     55  C   UNL     1     -11.169   9.999  70.534  0.00  0.00    +0.040 A 
ATOM     56  C   UNL     1     -10.759   9.162  71.559  0.00  0.00    +0.163 A 
ATOM     57  N   UNL     1     -11.849   8.695  72.211  0.00  0.00    -0.225 NA
ATOM     58  C   UNL     1     -12.934   9.403  71.835  0.00  0.00    +0.101 A 
ATOM     59  N   UNL     1      -9.440   8.935  71.714  0.00  0.00    -0.222 NA
ATOM     60  C   UNL     1     -12.529  10.176  70.756  0.00  0.00    +0.024 A 
ATOM     61  C   UNL     1      -8.568   9.264  70.757  0.00  0.00    +0.138 A 
ENDBRANCH  52  53
ENDBRANCH   3  52
TORSDOF 13
ENDMDL
MODEL 7
REMARK VINA RESULT:      -8.8      5.111     12.782
REMARK  Name = 
REMARK  13 active torsions:
REMARK  status: ('A' for Active; 'I' for Inactive)
REMARK    1  A    between atoms: C_6  and  C_7
REMARK    2  A    between atoms: C_7  and  N_8
REMARK    3  A    between atoms: N_11  and  C_12
REMARK    4  A    between atoms: C_15  and  C_16
REMARK    5  A    between atoms: N_18  and  S_19
REMARK    6  A    between atoms: S_19  and  C_22
REMARK    7  A    between atoms: C_25  and  N_26
REMARK    8  A    between atoms: N_26  and  C_27
REMARK    9  A    between atoms: C_27  and  C_28
REMARK   10  A    between atoms: C_34  and  N_35
REMARK   11  A    between atoms: C_39  and  O_40
REMARK   12  A    between atoms: O_40  and  C_41
REMARK   13  A    between atoms: C_53  and  C_54
REMARK                            x       y       z     vdW  Elec       q    Type
REMARK                         _______ _______ _______ _____ _____    ______ ____
ROOT
ATOM      1  C   UNL     1      -8.833   6.531  66.991  0.00  0.00    +0.051 A 
ATOM      2  C   UNL     1      -8.445   7.422  67.984  0.00  0.00    +0.052 A 
ATOM      3  C   UNL     1      -8.332   8.777  67.697  0.00  0.00    +0.151 A 
ATOM      4  C   UNL     1      -8.558   9.270  66.418  0.00  0.00    +0.091 A 
ATOM      5  C   UNL     1      -8.523   8.320  65.404  0.00  0.00    +0.009 A 
ATOM      6  C   UNL     1      -8.610   6.964  65.689  0.00  0.00    +0.015 A 
ENDROOT
BRANCH   1  10
ATOM      7  N   UNL     1      -8.805   4.009  69.441  0.00  0.00    -0.266 NA
ATOM      8  C   UNL     1      -8.189   3.851  68.152  0.00  0.00    +0.094 C 
ATOM      9  C   UNL     1      -9.152   4.113  67.005  0.00  0.00    +0.108 C 
ATOM     10  N   UNL     1      -9.718   5.436  67.258  0.00  0.00    -0.305 N 
ATOM     11  C   UNL     1     -10.487   5.540  68.497  0.00  0.00    +0.108 C 
ATOM     12  C   UNL     1      -9.496   5.257  69.615  0.00  0.00    +0.094 C 
BRANCH   7  13
ATOM     13  C   UNL     1      -9.642   2.899  69.823  0.00  0.00    +0.095 C 
BRANCH  13  18
ATOM     14  C   UNL     1     -10.028  -1.159  73.054  0.00  0.00    +0.000 C 
ATOM     15  C   UNL     1      -9.092  -0.609  72.004  0.00  0.00    +0.004 C 
ATOM     16  C   UNL     1      -8.332   0.599  72.476  0.00  0.00    +0.026 C 
ATOM     17  C   UNL     1      -8.675   1.832  71.739  0.00  0.00    -0.029 C 
ATOM     18  C   UNL     1      -8.854   1.791  70.419  0.00  0.00    -0.032 C 
ATOM     19  C   UNL     1      -9.029   0.441  69.798  0.00  0.00    +0.023 C 
ATOM     20  C   UNL     1      -9.880  -0.365  70.746  0.00  0.00    +0.005 C 
ATOM     21  C   UNL     1      -8.069  -1.689  71.687  0.00  0.00    +0.000 C 
BRANCH  17  22
ATOM     22  C   UNL     1      -9.188   2.958  72.531  0.00  0.00    -0.004 A 
ATOM     23  C   UNL     1     -10.469   3.016  73.013  0.00  0.00    +0.001 A 
ATOM     24  C   UNL     1     -10.738   3.732  74.173  0.00  0.00    +0.011 A 
ATOM     25  C   UNL     1      -9.696   4.329  74.872  0.00  0.00    +0.058 A 
ATOM     26 CL   UNL     1      -9.917   5.012  76.468  0.00  0.00    -0.082 Cl
ATOM     27  C   UNL     1      -8.584   4.658  74.108  0.00  0.00    +0.011 A 
ATOM     28  C   UNL     1      -8.296   3.907  72.974  0.00  0.00    +0.001 A 
ENDBRANCH  17  22
ENDBRANCH  13  18
ENDBRANCH   7  13
ENDBRANCH   1  10
BRANCH   4  29
ATOM     29  C   UNL     1      -9.249  10.547  66.191  0.00  0.00    +0.289 C 
ATOM     30  N   UNL     1     -10.242  10.565  65.159  0.00  0.00    -0.055 NA
ATOM     31  O   UNL     1      -8.499  11.570  66.223  0.00  0.00    -0.267 OA
BRANCH  30  32
ATOM     32  S   UNL     1     -10.767  12.008  64.389  0.00  0.00    +0.096 S 
ATOM     33  O   UNL     1      -9.770  12.514  63.399  0.00  0.00    -0.148 OA
ATOM     34  O   UNL     1     -12.046  11.704  63.663  0.00  0.00    -0.148 OA
BRANCH  32  35
ATOM     35  C   UNL     1     -11.137  13.174  65.624  0.00  0.00    +0.133 A 
ATOM     36  C   UNL     1     -10.618  14.452  65.466  0.00  0.00    +0.097 A 
ATOM     37  C   UNL     1     -10.619  15.346  66.503  0.00  0.00    +0.306 A 
ATOM     38  C   UNL     1     -11.311  15.025  67.662  0.00  0.00    +0.135 A 
ATOM     39  C   UNL     1     -12.074  13.872  67.661  0.00  0.00    +0.024 A 
ATOM     40  C   UNL     1     -12.105  13.002  66.581  0.00  0.00    +0.022 A 
BRANCH  37  41
ATOM     41  N   UNL     1      -9.872  16.567  66.471  0.00  0.00    +0.082 N 
ATOM     42  O   UNL     1     -10.506  17.773  66.696  0.00  0.00    -0.576 OA
ATOM     43  O   UNL     1      -8.669  16.506  66.829  0.00  0.00    +0.042 OA
ENDBRANCH  37  41
BRANCH  38  44
ATOM     44  N   UNL     1     -10.944  15.596  68.923  0.00  0.00    -0.232 NA
BRANCH  44  45
ATOM     45  C   UNL     1     -11.965  15.879  69.926  0.00  0.00    +0.113 C 
BRANCH  45  46
ATOM     46  C   UNL     1     -11.705  15.084  71.185  0.00  0.00    +0.027 C 
ATOM     47  C   UNL     1     -12.386  13.746  71.123  0.00  0.00    +0.034 C 
ATOM     48  C   UNL     1     -13.568  13.656  72.065  0.00  0.00    +0.142 C 
ATOM     49  O   UNL     1     -14.205  14.899  72.071  0.00  0.00    -0.354 OA
ATOM     50  C   UNL     1     -13.482  15.827  72.798  0.00  0.00    +0.142 C 
ATOM     51  C   UNL     1     -12.023  15.861  72.432  0.00  0.00    +0.034 C 
ENDBRANCH  45  46
ENDBRANCH  44  45
ENDBRANCH  38  44
ENDBRANCH  32  35
ENDBRANCH  30  32
ENDBRANCH   4  29
BRANCH   3  52
ATOM     52  O   UNL     1      -8.327   9.737  68.713  0.00  0.00    -0.452 OA
BRANCH  52  53
ATOM     53  C   UNL     1      -9.233   9.739  69.755  0.00  0.00    +0.164 A 
ATOM     54  C   UNL     1     -10.530  10.211  69.629  0.00  0.00    +0.042 A 
ATOM     55  C   UNL     1     -11.421   9.934  70.656  0.00  0.00    +0.040 A 
ATOM     56  C   UNL     1     -11.076   9.057  71.672  0.00  0.00    +0.163 A 
ATOM     57  N   UNL     1     -12.202   8.652  72.305  0.00  0.00    -0.225 NA
ATOM     58  C   UNL     1     -13.234   9.434  71.929  0.00  0.00    +0.101 A 
ATOM     59  N   UNL     1      -9.777   8.743  71.837  0.00  0.00    -0.222 NA
ATOM     60  C   UNL     1     -12.769  10.195  70.866  0.00  0.00    +0.024 A 
ATOM     61  C   UNL     1      -8.875   9.029  70.895  0.00  0.00    +0.138 A 
ENDBRANCH  52  53
ENDBRANCH   3  52
TORSDOF 13
ENDMDL
MODEL 8
REMARK VINA RESULT:      -8.7      3.933      9.445
REMARK  Name = 
REMARK  13 active torsions:
REMARK  status: ('A' for Active; 'I' for Inactive)
REMARK    1  A    between atoms: C_6  and  C_7
REMARK    2  A    between atoms: C_7  and  N_8
REMARK    3  A    between atoms: N_11  and  C_12
REMARK    4  A    between atoms: C_15  and  C_16
REMARK    5  A    between atoms: N_18  and  S_19
REMARK    6  A    between atoms: S_19  and  C_22
REMARK    7  A    between atoms: C_25  and  N_26
REMARK    8  A    between atoms: N_26  and  C_27
REMARK    9  A    between atoms: C_27  and  C_28
REMARK   10  A    between atoms: C_34  and  N_35
REMARK   11  A    between atoms: C_39  and  O_40
REMARK   12  A    between atoms: O_40  and  C_41
REMARK   13  A    between atoms: C_53  and  C_54
REMARK                            x       y       z     vdW  Elec       q    Type
REMARK                         _______ _______ _______ _____ _____    ______ ____
ROOT
ATOM      1  C   UNL     1      -9.009   9.022  67.764  0.00  0.00    +0.051 A 
ATOM      2  C   UNL     1      -9.509   8.624  68.997  0.00  0.00    +0.052 A 
ATOM      3  C   UNL     1      -8.637   8.333  70.039  0.00  0.00    +0.151 A 
ATOM      4  C   UNL     1      -7.259   8.387  69.870  0.00  0.00    +0.091 A 
ATOM      5  C   UNL     1      -6.825   8.371  68.550  0.00  0.00    +0.009 A 
ATOM      6  C   UNL     1      -7.699   8.637  67.504  0.00  0.00    +0.015 A 
ENDROOT
BRANCH   1  10
ATOM      7  N   UNL     1      -9.987  12.313  68.529  0.00  0.00    -0.266 NA
ATOM      8  C   UNL     1     -10.865  11.184  68.675  0.00  0.00    +0.094 C 
ATOM      9  C   UNL     1     -11.003  10.377  67.394  0.00  0.00    +0.108 C 
ATOM     10  N   UNL     1      -9.640  10.047  66.985  0.00  0.00    -0.305 N 
ATOM     11  C   UNL     1      -8.802  11.204  66.676  0.00  0.00    +0.108 C 
ATOM     12  C   UNL     1      -8.701  11.990  67.974  0.00  0.00    +0.094 C 
BRANCH   7  13
ATOM     13  C   UNL     1     -10.584  13.425  67.834  0.00  0.00    +0.095 C 
BRANCH  13  18
ATOM     14  C   UNL     1     -10.532  18.563  67.022  0.00  0.00    +0.000 C 
ATOM     15  C   UNL     1      -9.648  17.479  67.591  0.00  0.00    +0.004 C 
ATOM     16  C   UNL     1      -9.058  16.591  66.531  0.00  0.00    +0.026 C 
ATOM     17  C   UNL     1      -9.537  15.195  66.602  0.00  0.00    -0.029 C 
ATOM     18  C   UNL     1      -9.677  14.600  67.787  0.00  0.00    -0.032 C 
ATOM     19  C   UNL     1      -9.665  15.480  68.997  0.00  0.00    +0.023 C 
ATOM     20  C   UNL     1     -10.430  16.727  68.632  0.00  0.00    +0.005 C 
ATOM     21  C   UNL     1      -8.490  18.158  68.306  0.00  0.00    +0.000 C 
BRANCH  17  22
ATOM     22  C   UNL     1     -10.206  14.660  65.410  0.00  0.00    -0.004 A 
ATOM     23  C   UNL     1      -9.724  13.599  64.690  0.00  0.00    +0.001 A 
ATOM     24  C   UNL     1     -10.603  12.784  63.988  0.00  0.00    +0.011 A 
ATOM     25  C   UNL     1     -11.971  13.012  64.073  0.00  0.00    +0.058 A 
ATOM     26 CL   UNL     1     -13.144  11.878  63.441  0.00  0.00    -0.082 Cl
ATOM     27  C   UNL     1     -12.335  14.320  64.365  0.00  0.00    +0.011 A 
ATOM     28  C   UNL     1     -11.469  15.114  65.108  0.00  0.00    +0.001 A 
ENDBRANCH  17  22
ENDBRANCH  13  18
ENDBRANCH   7  13
ENDBRANCH   1  10
BRANCH   4  29
ATOM     29  C   UNL     1      -6.369   8.904  70.919  0.00  0.00    +0.289 C 
ATOM     30  N   UNL     1      -6.208  10.327  70.980  0.00  0.00    -0.055 NA
ATOM     31  O   UNL     1      -5.300   8.242  71.084  0.00  0.00    -0.267 OA
BRANCH  30  32
ATOM     32  S   UNL     1      -4.865  11.085  71.737  0.00  0.00    +0.096 S 
ATOM     33  O   UNL     1      -4.768  10.744  73.187  0.00  0.00    -0.148 OA
ATOM     34  O   UNL     1      -3.618  10.604  71.051  0.00  0.00    -0.148 OA
BRANCH  32  35
ATOM     35  C   UNL     1      -4.984  12.796  71.456  0.00  0.00    +0.133 A 
ATOM     36  C   UNL     1      -5.225  13.210  70.152  0.00  0.00    +0.097 A 
ATOM     37  C   UNL     1      -5.060  14.518  69.787  0.00  0.00    +0.306 A 
ATOM     38  C   UNL     1      -4.827  15.464  70.775  0.00  0.00    +0.135 A 
ATOM     39  C   UNL     1      -4.903  15.054  72.093  0.00  0.00    +0.024 A 
ATOM     40  C   UNL     1      -5.124  13.732  72.449  0.00  0.00    +0.022 A 
BRANCH  37  41
ATOM     41  N   UNL     1      -5.042  14.942  68.419  0.00  0.00    +0.082 N 
ATOM     42  O   UNL     1      -4.057  14.485  67.565  0.00  0.00    -0.576 OA
ATOM     43  O   UNL     1      -6.152  15.194  67.888  0.00  0.00    +0.042 OA
ENDBRANCH  37  41
BRANCH  38  44
ATOM     44  N   UNL     1      -4.136  16.684  70.481  0.00  0.00    -0.232 NA
BRANCH  44  45
ATOM     45  C   UNL     1      -4.872  17.940  70.382  0.00  0.00    +0.113 C 
BRANCH  45  46
ATOM     46  C   UNL     1      -4.038  18.988  69.682  0.00  0.00    +0.027 C 
ATOM     47  C   UNL     1      -3.436  19.944  70.673  0.00  0.00    +0.034 C 
ATOM     48  C   UNL     1      -4.074  21.316  70.612  0.00  0.00    +0.142 C 
ATOM     49  O   UNL     1      -5.438  21.143  70.366  0.00  0.00    -0.354 OA
ATOM     50  C   UNL     1      -5.667  20.792  69.047  0.00  0.00    +0.142 C 
ATOM     51  C   UNL     1      -4.786  19.670  68.571  0.00  0.00    +0.034 C 
ENDBRANCH  45  46
ENDBRANCH  44  45
ENDBRANCH  38  44
ENDBRANCH  32  35
ENDBRANCH  30  32
ENDBRANCH   4  29
BRANCH   3  52
ATOM     52  O   UNL     1      -9.074   8.309  71.367  0.00  0.00    -0.452 OA
BRANCH  52  53
ATOM     53  C   UNL     1     -10.359   7.966  71.733  0.00  0.00    +0.164 A 
ATOM     54  C   UNL     1     -11.362   8.901  71.940  0.00  0.00    +0.042 A 
ATOM     55  C   UNL     1     -12.664   8.436  72.055  0.00  0.00    +0.040 A 
ATOM     56  C   UNL     1     -12.968   7.112  71.781  0.00  0.00    +0.163 A 
ATOM     57  N   UNL     1     -14.302   7.000  71.577  0.00  0.00    -0.225 NA
ATOM     58  C   UNL     1     -14.914   8.133  71.975  0.00  0.00    +0.101 A 
ATOM     59  N   UNL     1     -11.963   6.218  71.733  0.00  0.00    -0.222 NA
ATOM     60  C   UNL     1     -13.900   9.048  72.222  0.00  0.00    +0.024 A 
ATOM     61  C   UNL     1     -10.690   6.618  71.665  0.00  0.00    +0.138 A 
ENDBRANCH  52  53
ENDBRANCH   3  52
TORSDOF 13
ENDMDL
MODEL 9
REMARK VINA RESULT:      -8.7      3.658     12.194
REMARK  Name = 
REMARK  13 active torsions:
REMARK  status: ('A' for Active; 'I' for Inactive)
REMARK    1  A    between atoms: C_6  and  C_7
REMARK    2  A    between atoms: C_7  and  N_8
REMARK    3  A    between atoms: N_11  and  C_12
REMARK    4  A    between atoms: C_15  and  C_16
REMARK    5  A    between atoms: N_18  and  S_19
REMARK    6  A    between atoms: S_19  and  C_22
REMARK    7  A    between atoms: C_25  and  N_26
REMARK    8  A    between atoms: N_26  and  C_27
REMARK    9  A    between atoms: C_27  and  C_28
REMARK   10  A    between atoms: C_34  and  N_35
REMARK   11  A    between atoms: C_39  and  O_40
REMARK   12  A    between atoms: O_40  and  C_41
REMARK   13  A    between atoms: C_53  and  C_54
REMARK                            x       y       z     vdW  Elec       q    Type
REMARK                         _______ _______ _______ _____ _____    ______ ____
ROOT
ATOM      1  C   UNL     1      -9.775  10.444  67.228  0.00  0.00    +0.051 A 
ATOM      2  C   UNL     1      -9.394  11.493  68.056  0.00  0.00    +0.052 A 
ATOM      3  C   UNL     1      -9.305  12.782  67.548  0.00  0.00    +0.151 A 
ATOM      4  C   UNL     1      -9.549  13.054  66.207  0.00  0.00    +0.091 A 
ATOM      5  C   UNL     1      -9.506  11.950  65.364  0.00  0.00    +0.009 A 
ATOM      6  C   UNL     1      -9.569  10.658  65.870  0.00  0.00    +0.015 A 
ENDROOT
BRANCH   1  10
ATOM      7  N   UNL     1      -9.133   7.314  68.697  0.00  0.00    -0.266 NA
ATOM      8  C   UNL     1      -9.269   7.497  67.277  0.00  0.00    +0.094 C 
ATOM      9  C   UNL     1     -10.579   8.166  66.893  0.00  0.00    +0.108 C 
ATOM     10  N   UNL     1     -10.641   9.396  67.681  0.00  0.00    -0.305 N 
ATOM     11  C   UNL     1     -10.671   9.189  69.127  0.00  0.00    +0.108 C 
ATOM     12  C   UNL     1      -9.356   8.506  69.467  0.00  0.00    +0.094 C 
BRANCH   7  13
ATOM     13  C   UNL     1      -9.906   6.214  69.216  0.00  0.00    +0.095 C 
BRANCH  13  18
ATOM     14  C   UNL     1     -10.092   1.651  71.707  0.00  0.00    +0.000 C 
ATOM     15  C   UNL     1      -9.080   2.578  71.077  0.00  0.00    +0.004 C 
ATOM     16  C   UNL     1      -8.837   3.817  71.892  0.00  0.00    +0.026 C 
ATOM     17  C   UNL     1      -9.274   5.057  71.218  0.00  0.00    -0.029 C 
ATOM     18  C   UNL     1      -9.053   5.219  69.913  0.00  0.00    -0.032 C 
ATOM     19  C   UNL     1      -8.677   4.000  69.130  0.00  0.00    +0.023 C 
ATOM     20  C   UNL     1      -9.514   2.866  69.666  0.00  0.00    +0.005 C 
ATOM     21  C   UNL     1      -7.759   1.828  70.993  0.00  0.00    +0.000 C 
BRANCH  17  22
ATOM     22  C   UNL     1     -10.272   5.877  71.917  0.00  0.00    -0.004 A 
ATOM     23  C   UNL     1      -9.944   6.940  72.716  0.00  0.00    +0.001 A 
ATOM     24  C   UNL     1     -10.839   7.992  72.869  0.00  0.00    +0.011 A 
ATOM     25  C   UNL     1     -12.033   7.988  72.159  0.00  0.00    +0.058 A 
ATOM     26 CL   UNL     1     -13.080   9.390  72.091  0.00  0.00    -0.082 Cl
ATOM     27  C   UNL     1     -12.507   6.732  71.805  0.00  0.00    +0.011 A 
ATOM     28  C   UNL     1     -11.600   5.697  71.610  0.00  0.00    +0.001 A 
ENDBRANCH  17  22
ENDBRANCH  13  18
ENDBRANCH   7  13
ENDBRANCH   1  10
BRANCH   4  29
ATOM     29  C   UNL     1     -10.261  14.266  65.779  0.00  0.00    +0.289 C 
ATOM     30  N   UNL     1      -9.552  15.504  65.903  0.00  0.00    -0.055 NA
ATOM     31  O   UNL     1     -11.481  14.316  66.124  0.00  0.00    -0.267 OA
BRANCH  30  32
ATOM     32  S   UNL     1     -10.338  17.030  65.970  0.00  0.00    +0.096 S 
ATOM     33  O   UNL     1     -11.097  17.329  64.720  0.00  0.00    -0.148 OA
ATOM     34  O   UNL     1     -11.306  17.000  67.119  0.00  0.00    -0.148 OA
BRANCH  32  35
ATOM     35  C   UNL     1      -9.141  18.238  66.333  0.00  0.00    +0.133 A 
ATOM     36  C   UNL     1      -7.825  17.948  65.997  0.00  0.00    +0.097 A 
ATOM     37  C   UNL     1      -6.791  18.700  66.487  0.00  0.00    +0.306 A 
ATOM     38  C   UNL     1      -7.082  19.870  67.174  0.00  0.00    +0.135 A 
ATOM     39  C   UNL     1      -8.401  20.283  67.217  0.00  0.00    +0.024 A 
ATOM     40  C   UNL     1      -9.433  19.535  66.670  0.00  0.00    +0.022 A 
BRANCH  37  41
ATOM     41  N   UNL     1      -5.423  18.291  66.385  0.00  0.00    +0.082 N 
ATOM     42  O   UNL     1      -5.102  16.947  66.346  0.00  0.00    -0.576 OA
ATOM     43  O   UNL     1      -4.647  19.057  65.761  0.00  0.00    +0.042 OA
ENDBRANCH  37  41
BRANCH  38  44
ATOM     44  N   UNL     1      -6.170  20.404  68.140  0.00  0.00    -0.232 NA
BRANCH  44  45
ATOM     45  C   UNL     1      -6.348  20.113  69.559  0.00  0.00    +0.113 C 
BRANCH  45  46
ATOM     46  C   UNL     1      -5.108  19.461  70.125  0.00  0.00    +0.027 C 
ATOM     47  C   UNL     1      -4.991  19.722  71.600  0.00  0.00    +0.034 C 
ATOM     48  C   UNL     1      -3.869  20.685  71.928  0.00  0.00    +0.142 C 
ATOM     49  O   UNL     1      -3.825  21.650  70.920  0.00  0.00    -0.354 OA
ATOM     50  C   UNL     1      -3.271  21.136  69.760  0.00  0.00    +0.142 C 
ATOM     51  C   UNL     1      -3.867  19.816  69.354  0.00  0.00    +0.034 C 
ENDBRANCH  45  46
ENDBRANCH  44  45
ENDBRANCH  38  44
ENDBRANCH  32  35
ENDBRANCH  30  32
ENDBRANCH   4  29
BRANCH   3  52
ATOM     52  O   UNL     1      -9.308  13.897  68.391  0.00  0.00    -0.452 OA
BRANCH  52  53
ATOM     53  C   UNL     1     -10.370  14.221  69.211  0.00  0.00    +0.164 A 
ATOM     54  C   UNL     1     -11.295  13.288  69.655  0.00  0.00    +0.042 A 
ATOM     55  C   UNL     1     -12.163  13.671  70.667  0.00  0.00    +0.040 A 
ATOM     56  C   UNL     1     -11.982  14.871  71.337  0.00  0.00    +0.163 A 
ATOM     57  N   UNL     1     -12.677  14.836  72.498  0.00  0.00    -0.225 NA
ATOM     58  C   UNL     1     -13.518  13.783  72.487  0.00  0.00    +0.101 A 
ATOM     59  N   UNL     1     -11.180  15.800  70.784  0.00  0.00    -0.222 NA
ATOM     60  C   UNL     1     -13.167  13.026  71.379  0.00  0.00    +0.024 A 
ATOM     61  C   UNL     1     -10.358  15.489  69.778  0.00  0.00    +0.138 A 
ENDBRANCH  52  53
ENDBRANCH   3  52
TORSDOF 13
ENDMDL
