MODEL 1
REMARK VINA RESULT:      -7.1      0.000      0.000
REMARK  Name = 
REMARK  10 active torsions:
REMARK  status: ('A' for Active; 'I' for Inactive)
REMARK    1  A    between atoms: C_2  and  N_5
REMARK    2  A    between atoms: N_8  and  C_9
REMARK    3  A    between atoms: C_9  and  C_10
REMARK    4  A    between atoms: C_9  and  C_34
REMARK    5  A    between atoms: C_16  and  C_17
REMARK    6  A    between atoms: N_19  and  C_20
REMARK    7  A    between atoms: C_20  and  C_21
REMARK    8  A    between atoms: C_20  and  C_26
REMARK    9  A    between atoms: C_21  and  C_22
REMARK   10  A    between atoms: C_26  and  C_28
REMARK                            x       y       z     vdW  Elec       q    Type
REMARK                         _______ _______ _______ _____ _____    ______ ____
ROOT
ATOM      1  C   UNL     1      -7.955  17.753  66.666  0.00  0.00    +0.246 C 
ATOM      2  N   UNL     1      -7.609  16.778  67.600  0.00  0.00    -0.272 N 
ATOM      3  C   UNL     1      -8.026  15.276  67.653  0.00  0.00    +0.153 C 
ATOM      4  C   UNL     1      -7.548  15.190  69.299  0.00  0.00    +0.029 C 
ATOM      5  C   UNL     1      -6.104  14.319  69.081  0.00  0.00    +0.004 C 
ATOM      6  C   UNL     1      -5.498  14.036  70.420  0.00  0.00    +0.000 C 
ATOM      7  C   UNL     1      -5.916  13.613  67.893  0.00  0.00    +0.000 C 
ATOM      8  C   UNL     1      -6.086  16.020  69.075  0.00  0.00    +0.022 C 
ATOM      9  C   UNL     1      -6.253  16.203  67.455  0.00  0.00    +0.094 C 
ATOM     10  O   UNL     1      -8.843  17.801  65.847  0.00  0.00    -0.273 OA
ENDROOT
BRANCH   3  11
ATOM     11  C   UNL     1      -9.547  15.499  68.124  0.00  0.00    +0.260 C 
ATOM     12  N   UNL     1     -10.303  14.820  67.114  0.00  0.00    -0.198 NA
ATOM     13  O   UNL     1      -9.993  16.633  68.240  0.00  0.00    -0.272 OA
BRANCH  12  14
ATOM     14  C   UNL     1     -11.841  14.594  67.355  0.00  0.00    +0.161 C 
BRANCH  14  15
ATOM     15  C   UNL     1     -11.789  13.235  66.473  0.00  0.00    +0.249 C 
ATOM     16  O   UNL     1     -12.061  12.183  67.065  0.00  0.00    -0.285 OA
BRANCH  15  17
ATOM     17  C   UNL     1     -12.522  13.365  65.199  0.00  0.00    +0.321 C 
ATOM     18  O   UNL     1     -13.178  12.407  64.763  0.00  0.00    -0.263 OA
ATOM     19  N   UNL     1     -12.520  14.568  64.442  0.00  0.00    -0.081 NA
ENDBRANCH  15  17
ENDBRANCH  14  15
BRANCH  14  20
ATOM     20  C   UNL     1     -11.641  13.792  68.777  0.00  0.00    +0.030 C 
BRANCH  20  21
ATOM     21  C   UNL     1     -12.661  14.264  69.737  0.00  0.00    +0.002 C 
ATOM     22  C   UNL     1     -12.302  13.681  71.106  0.00  0.00    +0.000 C 
ATOM     23  C   UNL     1     -11.484  14.956  71.304  0.00  0.00    +0.000 C 
ATOM     24  C   UNL     1     -12.476  15.623  70.355  0.00  0.00    +0.000 C 
ENDBRANCH  20  21
ENDBRANCH  14  20
ENDBRANCH  12  14
ENDBRANCH   3  11
BRANCH   1  25
ATOM     25  C   UNL     1      -6.749  18.836  66.634  0.00  0.00    +0.173 C 
BRANCH  25  28
ATOM     26  N   UNL     1      -5.989  20.824  63.519  0.00  0.00    -0.191 NA
ATOM     27  C   UNL     1      -6.159  19.770  64.476  0.00  0.00    +0.340 C 
ATOM     28  N   UNL     1      -7.268  19.659  65.383  0.00  0.00    -0.180 NA
ATOM     29  O   UNL     1      -5.770  18.663  63.991  0.00  0.00    -0.249 OA
BRANCH  26  31
ATOM     30  C   UNL     1      -4.696  20.330  62.392  0.00  0.00    +0.022 C 
ATOM     31  C   UNL     1      -4.780  20.812  62.682  0.00  0.00    +0.080 C 
ATOM     32  C   UNL     1      -4.881  21.874  61.586  0.00  0.00    +0.022 C 
ATOM     33  C   UNL     1      -3.590  21.120  63.592  0.00  0.00    +0.022 C 
ENDBRANCH  26  31
ENDBRANCH  25  28
BRANCH  25  34
ATOM     34  C   UNL     1      -7.408  19.848  67.742  0.00  0.00    +0.027 C 
ATOM     35  C   UNL     1      -8.740  20.262  67.208  0.00  0.00    +0.002 C 
ATOM     36  C   UNL     1      -6.474  21.048  67.577  0.00  0.00    +0.002 C 
ATOM     37  C   UNL     1      -7.321  19.350  69.086  0.00  0.00    +0.002 C 
ENDBRANCH  25  34
ENDBRANCH   1  25
TORSDOF 10
ENDMDL
MODEL 2
REMARK VINA RESULT:      -6.8      2.330      3.273
REMARK  Name = 
REMARK  10 active torsions:
REMARK  status: ('A' for Active; 'I' for Inactive)
REMARK    1  A    between atoms: C_2  and  N_5
REMARK    2  A    between atoms: N_8  and  C_9
REMARK    3  A    between atoms: C_9  and  C_10
REMARK    4  A    between atoms: C_9  and  C_34
REMARK    5  A    between atoms: C_16  and  C_17
REMARK    6  A    between atoms: N_19  and  C_20
REMARK    7  A    between atoms: C_20  and  C_21
REMARK    8  A    between atoms: C_20  and  C_26
REMARK    9  A    between atoms: C_21  and  C_22
REMARK   10  A    between atoms: C_26  and  C_28
REMARK                            x       y       z     vdW  Elec       q    Type
REMARK                         _______ _______ _______ _____ _____    ______ ____
ROOT
ATOM      1  C   UNL     1      -8.767  16.334  66.723  0.00  0.00    +0.246 C 
ATOM      2  N   UNL     1      -8.209  15.368  67.559  0.00  0.00    -0.272 N 
ATOM      3  C   UNL     1      -7.840  13.886  67.240  0.00  0.00    +0.153 C 
ATOM      4  C   UNL     1      -7.764  13.532  68.917  0.00  0.00    +0.029 C 
ATOM      5  C   UNL     1      -6.072  13.452  69.065  0.00  0.00    +0.004 C 
ATOM      6  C   UNL     1      -5.722  13.072  70.469  0.00  0.00    +0.000 C 
ATOM      7  C   UNL     1      -5.302  13.271  67.915  0.00  0.00    +0.000 C 
ATOM      8  C   UNL     1      -6.885  14.924  69.325  0.00  0.00    +0.022 C 
ATOM      9  C   UNL     1      -6.752  15.483  67.791  0.00  0.00    +0.094 C 
ATOM     10  O   UNL     1      -9.356  16.242  65.672  0.00  0.00    -0.273 OA
ENDROOT
BRANCH   3  11
ATOM     11  C   UNL     1      -9.338  13.303  67.202  0.00  0.00    +0.260 C 
ATOM     12  N   UNL     1      -9.435  12.739  65.888  0.00  0.00    -0.198 NA
ATOM     13  O   UNL     1     -10.292  14.051  67.370  0.00  0.00    -0.272 OA
BRANCH  12  14
ATOM     14  C   UNL     1     -10.679  11.839  65.550  0.00  0.00    +0.161 C 
BRANCH  14  15
ATOM     15  C   UNL     1     -10.743  12.472  64.059  0.00  0.00    +0.249 C 
ATOM     16  O   UNL     1     -10.193  11.822  63.160  0.00  0.00    -0.285 OA
BRANCH  15  17
ATOM     17  C   UNL     1     -12.106  12.896  63.687  0.00  0.00    +0.321 C 
ATOM     18  O   UNL     1     -12.909  12.068  63.232  0.00  0.00    -0.263 OA
ATOM     19  N   UNL     1     -12.553  14.236  63.844  0.00  0.00    -0.081 NA
ENDBRANCH  15  17
ENDBRANCH  14  15
BRANCH  14  20
ATOM     20  C   UNL     1      -9.786  10.545  65.066  0.00  0.00    +0.030 C 
BRANCH  20  21
ATOM     21  C   UNL     1     -10.137   9.383  65.910  0.00  0.00    +0.002 C 
ATOM     22  C   UNL     1      -8.862   8.556  66.097  0.00  0.00    +0.000 C 
ATOM     23  C   UNL     1      -8.624   9.420  67.335  0.00  0.00    +0.000 C 
ATOM     24  C   UNL     1     -10.142   9.568  67.402  0.00  0.00    +0.000 C 
ENDBRANCH  20  21
ENDBRANCH  14  20
ENDBRANCH  12  14
ENDBRANCH   3  11
BRANCH   1  25
ATOM     25  C   UNL     1      -8.269  17.779  67.263  0.00  0.00    +0.173 C 
BRANCH  25  28
ATOM     26  N   UNL     1      -6.555  20.039  64.776  0.00  0.00    -0.191 NA
ATOM     27  C   UNL     1      -6.927  18.930  65.604  0.00  0.00    +0.340 C 
ATOM     28  N   UNL     1      -8.279  18.517  65.859  0.00  0.00    -0.180 NA
ATOM     29  O   UNL     1      -6.108  17.970  65.456  0.00  0.00    -0.249 OA
BRANCH  26  31
ATOM     30  C   UNL     1      -4.790  19.904  64.547  0.00  0.00    +0.022 C 
ATOM     31  C   UNL     1      -5.125  20.353  64.640  0.00  0.00    +0.080 C 
ATOM     32  C   UNL     1      -4.888  21.233  63.412  0.00  0.00    +0.022 C 
ATOM     33  C   UNL     1      -4.697  21.102  65.903  0.00  0.00    +0.022 C 
ENDBRANCH  26  31
ENDBRANCH  25  28
BRANCH  25  34
ATOM     34  C   UNL     1      -9.757  18.311  67.702  0.00  0.00    +0.027 C 
ATOM     35  C   UNL     1     -10.343  18.987  66.507  0.00  0.00    +0.002 C 
ATOM     36  C   UNL     1      -9.354  19.414  68.681  0.00  0.00    +0.002 C 
ATOM     37  C   UNL     1     -10.534  17.316  68.389  0.00  0.00    +0.002 C 
ENDBRANCH  25  34
ENDBRANCH   1  25
TORSDOF 10
ENDMDL
MODEL 3
REMARK VINA RESULT:      -6.7      3.447      6.127
REMARK  Name = 
REMARK  10 active torsions:
REMARK  status: ('A' for Active; 'I' for Inactive)
REMARK    1  A    between atoms: C_2  and  N_5
REMARK    2  A    between atoms: N_8  and  C_9
REMARK    3  A    between atoms: C_9  and  C_10
REMARK    4  A    between atoms: C_9  and  C_34
REMARK    5  A    between atoms: C_16  and  C_17
REMARK    6  A    between atoms: N_19  and  C_20
REMARK    7  A    between atoms: C_20  and  C_21
REMARK    8  A    between atoms: C_20  and  C_26
REMARK    9  A    between atoms: C_21  and  C_22
REMARK   10  A    between atoms: C_26  and  C_28
REMARK                            x       y       z     vdW  Elec       q    Type
REMARK                         _______ _______ _______ _____ _____    ______ ____
ROOT
ATOM      1  C   UNL     1     -10.797  13.878  67.515  0.00  0.00    +0.246 C 
ATOM      2  N   UNL     1     -11.585  14.022  68.656  0.00  0.00    -0.272 N 
ATOM      3  C   UNL     1     -11.451  13.314  70.039  0.00  0.00    +0.153 C 
ATOM      4  C   UNL     1     -13.058  13.764  70.438  0.00  0.00    +0.029 C 
ATOM      5  C   UNL     1     -12.690  15.006  71.539  0.00  0.00    +0.004 C 
ATOM      6  C   UNL     1     -13.963  15.543  72.114  0.00  0.00    +0.000 C 
ATOM      7  C   UNL     1     -11.414  15.050  72.103  0.00  0.00    +0.000 C 
ATOM      8  C   UNL     1     -12.907  15.362  69.890  0.00  0.00    +0.022 C 
ATOM      9  C   UNL     1     -11.330  15.236  69.463  0.00  0.00    +0.094 C 
ATOM     10  O   UNL     1     -10.015  13.018  67.183  0.00  0.00    -0.273 OA
ENDROOT
BRANCH   3  11
ATOM     11  C   UNL     1     -11.987  11.868  69.585  0.00  0.00    +0.260 C 
ATOM     12  N   UNL     1     -10.887  11.002  69.892  0.00  0.00    -0.198 NA
ATOM     13  O   UNL     1     -12.316  11.673  68.422  0.00  0.00    -0.272 OA
BRANCH  12  14
ATOM     14  C   UNL     1     -11.116   9.448  69.824  0.00  0.00    +0.161 C 
BRANCH  14  15
ATOM     15  C   UNL     1      -9.808   9.287  68.880  0.00  0.00    +0.249 C 
ATOM     16  O   UNL     1      -8.887   8.591  69.328  0.00  0.00    -0.285 OA
BRANCH  15  17
ATOM     17  C   UNL     1     -10.158   8.925  67.493  0.00  0.00    +0.321 C 
ATOM     18  O   UNL     1     -10.087   9.776  66.594  0.00  0.00    -0.263 OA
ATOM     19  N   UNL     1     -10.567   7.612  67.133  0.00  0.00    -0.081 NA
ENDBRANCH  15  17
ENDBRANCH  14  15
BRANCH  14  20
ATOM     20  C   UNL     1     -10.278   9.125  71.202  0.00  0.00    +0.030 C 
BRANCH  20  21
ATOM     21  C   UNL     1     -11.173   8.428  72.150  0.00  0.00    +0.002 C 
ATOM     22  C   UNL     1     -11.718   7.189  71.435  0.00  0.00    +0.000 C 
ATOM     23  C   UNL     1     -10.500   6.466  72.008  0.00  0.00    +0.000 C 
ATOM     24  C   UNL     1     -10.555   7.485  73.145  0.00  0.00    +0.000 C 
ENDBRANCH  20  21
ENDBRANCH  14  20
ENDBRANCH  12  14
ENDBRANCH   3  11
BRANCH   1  25
ATOM     25  C   UNL     1     -10.875  15.276  66.698  0.00  0.00    +0.173 C 
BRANCH  25  28
ATOM     26  N   UNL     1      -7.753  17.209  65.838  0.00  0.00    -0.191 NA
ATOM     27  C   UNL     1      -8.832  16.569  66.531  0.00  0.00    +0.340 C 
ATOM     28  N   UNL     1      -9.374  15.282  66.191  0.00  0.00    -0.180 NA
ATOM     29  O   UNL     1      -8.749  16.787  67.779  0.00  0.00    -0.249 OA
BRANCH  26  31
ATOM     30  C   UNL     1      -7.096  18.557  66.806  0.00  0.00    +0.022 C 
ATOM     31  C   UNL     1      -7.334  18.544  66.290  0.00  0.00    +0.080 C 
ATOM     32  C   UNL     1      -6.235  19.093  65.380  0.00  0.00    +0.022 C 
ATOM     33  C   UNL     1      -8.560  19.455  66.228  0.00  0.00    +0.022 C 
ENDBRANCH  26  31
ENDBRANCH  25  28
BRANCH  25  34
ATOM     34  C   UNL     1     -11.478  14.625  65.319  0.00  0.00    +0.027 C 
ATOM     35  C   UNL     1     -10.372  13.840  64.694  0.00  0.00    +0.002 C 
ATOM     36  C   UNL     1     -11.640  15.898  64.487  0.00  0.00    +0.002 C 
ATOM     37  C   UNL     1     -12.759  14.000  65.500  0.00  0.00    +0.002 C 
ENDBRANCH  25  34
ENDBRANCH   1  25
TORSDOF 10
ENDMDL
MODEL 4
REMARK VINA RESULT:      -6.6      3.257      8.954
REMARK  Name = 
REMARK  10 active torsions:
REMARK  status: ('A' for Active; 'I' for Inactive)
REMARK    1  A    between atoms: C_2  and  N_5
REMARK    2  A    between atoms: N_8  and  C_9
REMARK    3  A    between atoms: C_9  and  C_10
REMARK    4  A    between atoms: C_9  and  C_34
REMARK    5  A    between atoms: C_16  and  C_17
REMARK    6  A    between atoms: N_19  and  C_20
REMARK    7  A    between atoms: C_20  and  C_21
REMARK    8  A    between atoms: C_20  and  C_26
REMARK    9  A    between atoms: C_21  and  C_22
REMARK   10  A    between atoms: C_26  and  C_28
REMARK                            x       y       z     vdW  Elec       q    Type
REMARK                         _______ _______ _______ _____ _____    ______ ____
ROOT
ATOM      1  C   UNL     1      -8.711  17.547  68.560  0.00  0.00    +0.246 C 
ATOM      2  N   UNL     1      -7.409  17.059  68.644  0.00  0.00    -0.272 N 
ATOM      3  C   UNL     1      -6.236  17.538  69.553  0.00  0.00    +0.153 C 
ATOM      4  C   UNL     1      -5.109  16.712  68.555  0.00  0.00    +0.029 C 
ATOM      5  C   UNL     1      -4.788  15.404  69.593  0.00  0.00    +0.004 C 
ATOM      6  C   UNL     1      -3.742  14.533  68.972  0.00  0.00    +0.000 C 
ATOM      7  C   UNL     1      -5.104  15.525  70.947  0.00  0.00    +0.000 C 
ATOM      8  C   UNL     1      -6.029  15.292  68.435  0.00  0.00    +0.022 C 
ATOM      9  C   UNL     1      -7.242  15.804  69.411  0.00  0.00    +0.094 C 
ATOM     10  O   UNL     1      -9.202  18.591  68.923  0.00  0.00    -0.273 OA
ENDROOT
BRANCH   3  11
ATOM     11  C   UNL     1      -5.906  18.901  68.767  0.00  0.00    +0.260 C 
ATOM     12  N   UNL     1      -5.072  19.615  69.688  0.00  0.00    -0.198 NA
ATOM     13  O   UNL     1      -6.816  19.643  68.418  0.00  0.00    -0.272 OA
BRANCH  12  14
ATOM     14  C   UNL     1      -4.329  20.904  69.181  0.00  0.00    +0.161 C 
BRANCH  14  15
ATOM     15  C   UNL     1      -3.209  20.725  70.338  0.00  0.00    +0.249 C 
ATOM     16  O   UNL     1      -2.141  21.331  70.170  0.00  0.00    -0.285 OA
BRANCH  15  17
ATOM     17  C   UNL     1      -3.761  20.932  71.690  0.00  0.00    +0.321 C 
ATOM     18  O   UNL     1      -3.622  20.055  72.557  0.00  0.00    -0.263 OA
ATOM     19  N   UNL     1      -4.447  22.122  72.056  0.00  0.00    -0.081 NA
ENDBRANCH  15  17
ENDBRANCH  14  15
BRANCH  14  20
ATOM     20  C   UNL     1      -3.430  20.111  68.055  0.00  0.00    +0.030 C 
BRANCH  20  21
ATOM     21  C   UNL     1      -3.317  20.961  66.851  0.00  0.00    +0.002 C 
ATOM     22  C   UNL     1      -3.153  20.028  65.648  0.00  0.00    +0.000 C 
ATOM     23  C   UNL     1      -4.679  20.061  65.564  0.00  0.00    +0.000 C 
ATOM     24  C   UNL     1      -4.586  21.444  66.203  0.00  0.00    +0.000 C 
ENDBRANCH  20  21
ENDBRANCH  14  20
ENDBRANCH  12  14
ENDBRANCH   3  11
BRANCH   1  25
ATOM     25  C   UNL     1      -9.654  16.319  68.081  0.00  0.00    +0.173 C 
BRANCH  25  28
ATOM     26  N   UNL     1     -12.805  15.919  70.117  0.00  0.00    -0.191 NA
ATOM     27  C   UNL     1     -11.445  16.094  69.701  0.00  0.00    +0.340 C 
ATOM     28  N   UNL     1     -11.025  16.921  68.602  0.00  0.00    -0.180 NA
ATOM     29  O   UNL     1     -10.673  16.137  70.709  0.00  0.00    -0.249 OA
BRANCH  26  31
ATOM     30  C   UNL     1     -12.838  15.169  71.737  0.00  0.00    +0.022 C 
ATOM     31  C   UNL     1     -13.073  15.013  71.243  0.00  0.00    +0.080 C 
ATOM     32  C   UNL     1     -14.569  14.983  71.558  0.00  0.00    +0.022 C 
ATOM     33  C   UNL     1     -12.605  13.617  70.830  0.00  0.00    +0.022 C 
ENDBRANCH  26  31
ENDBRANCH  25  28
BRANCH  25  34
ATOM     34  C   UNL     1      -9.851  16.853  66.544  0.00  0.00    +0.027 C 
ATOM     35  C   UNL     1     -10.622  15.801  65.817  0.00  0.00    +0.002 C 
ATOM     36  C   UNL     1      -8.405  16.757  66.055  0.00  0.00    +0.002 C 
ATOM     37  C   UNL     1     -10.295  18.217  66.471  0.00  0.00    +0.002 C 
ENDBRANCH  25  34
ENDBRANCH   1  25
TORSDOF 10
ENDMDL
MODEL 5
REMARK VINA RESULT:      -6.3      5.862     10.696
REMARK  Name = 
REMARK  10 active torsions:
REMARK  status: ('A' for Active; 'I' for Inactive)
REMARK    1  A    between atoms: C_2  and  N_5
REMARK    2  A    between atoms: N_8  and  C_9
REMARK    3  A    between atoms: C_9  and  C_10
REMARK    4  A    between atoms: C_9  and  C_34
REMARK    5  A    between atoms: C_16  and  C_17
REMARK    6  A    between atoms: N_19  and  C_20
REMARK    7  A    between atoms: C_20  and  C_21
REMARK    8  A    between atoms: C_20  and  C_26
REMARK    9  A    between atoms: C_21  and  C_22
REMARK   10  A    between atoms: C_26  and  C_28
REMARK                            x       y       z     vdW  Elec       q    Type
REMARK                         _______ _______ _______ _____ _____    ______ ____
ROOT
ATOM      1  C   UNL     1     -10.229   9.115  70.278  0.00  0.00    +0.246 C 
ATOM      2  N   UNL     1      -9.900   9.063  68.925  0.00  0.00    -0.272 N 
ATOM      3  C   UNL     1      -9.488  10.224  67.968  0.00  0.00    +0.153 C 
ATOM      4  C   UNL     1      -9.816   9.232  66.606  0.00  0.00    +0.029 C 
ATOM      5  C   UNL     1      -8.209   8.897  66.165  0.00  0.00    +0.004 C 
ATOM      6  C   UNL     1      -8.207   8.075  64.914  0.00  0.00    +0.000 C 
ATOM      7  C   UNL     1      -7.192   9.723  66.644  0.00  0.00    +0.000 C 
ATOM      8  C   UNL     1      -9.038   7.860  67.228  0.00  0.00    +0.022 C 
ATOM      9  C   UNL     1      -8.537   8.576  68.615  0.00  0.00    +0.094 C 
ATOM     10  O   UNL     1     -10.555  10.037  70.990  0.00  0.00    -0.273 OA
ENDROOT
BRANCH   3  11
ATOM     11  C   UNL     1     -10.943  10.889  67.811  0.00  0.00    +0.260 C 
ATOM     12  N   UNL     1     -10.778  12.178  68.417  0.00  0.00    -0.198 NA
ATOM     13  O   UNL     1     -11.921  10.352  68.315  0.00  0.00    -0.272 OA
BRANCH  12  14
ATOM     14  C   UNL     1     -11.923  13.241  68.238  0.00  0.00    +0.161 C 
BRANCH  14  15
ATOM     15  C   UNL     1     -11.067  14.320  69.093  0.00  0.00    +0.249 C 
ATOM     16  O   UNL     1      -9.968  14.646  68.625  0.00  0.00    -0.285 OA
BRANCH  15  17
ATOM     17  C   UNL     1     -11.874  15.490  69.489  0.00  0.00    +0.321 C 
ATOM     18  O   UNL     1     -11.776  16.552  68.857  0.00  0.00    -0.263 OA
ATOM     19  N   UNL     1     -12.789  15.447  70.576  0.00  0.00    -0.081 NA
ENDBRANCH  15  17
ENDBRANCH  14  15
BRANCH  14  20
ATOM     20  C   UNL     1     -11.368  13.800  66.795  0.00  0.00    +0.030 C 
BRANCH  20  21
ATOM     21  C   UNL     1     -12.468  13.749  65.809  0.00  0.00    +0.002 C 
ATOM     22  C   UNL     1     -12.021  14.552  64.585  0.00  0.00    +0.000 C 
ATOM     23  C   UNL     1     -11.457  13.229  64.068  0.00  0.00    +0.000 C 
ATOM     24  C   UNL     1     -12.547  12.555  64.898  0.00  0.00    +0.000 C 
ENDBRANCH  20  21
ENDBRANCH  14  20
ENDBRANCH  12  14
ENDBRANCH   3  11
BRANCH   1  25
ATOM     25  C   UNL     1      -9.852   7.675  70.920  0.00  0.00    +0.173 C 
BRANCH  25  28
ATOM     26  N   UNL     1      -8.570   7.736  74.467  0.00  0.00    -0.191 NA
ATOM     27  C   UNL     1      -8.774   7.982  73.070  0.00  0.00    +0.340 C 
ATOM     28  N   UNL     1     -10.060   8.085  72.437  0.00  0.00    -0.180 NA
ATOM     29  O   UNL     1      -7.911   8.804  72.632  0.00  0.00    -0.249 OA
BRANCH  26  31
ATOM     30  C   UNL     1      -6.853   8.068  74.826  0.00  0.00    +0.022 C 
ATOM     31  C   UNL     1      -7.187   7.627  74.956  0.00  0.00    +0.080 C 
ATOM     32  C   UNL     1      -7.165   7.603  76.485  0.00  0.00    +0.022 C 
ATOM     33  C   UNL     1      -6.609   6.321  74.410  0.00  0.00    +0.022 C 
ENDBRANCH  26  31
ENDBRANCH  25  28
BRANCH  25  34
ATOM     34  C   UNL     1     -11.347   7.024  70.752  0.00  0.00    +0.027 C 
ATOM     35  C   UNL     1     -12.317   8.032  71.274  0.00  0.00    +0.002 C 
ATOM     36  C   UNL     1     -11.259   5.913  71.799  0.00  0.00    +0.002 C 
ATOM     37  C   UNL     1     -11.572   6.449  69.455  0.00  0.00    +0.002 C 
ENDBRANCH  25  34
ENDBRANCH   1  25
TORSDOF 10
ENDMDL
MODEL 6
REMARK VINA RESULT:      -6.2      4.495      9.335
REMARK  Name = 
REMARK  10 active torsions:
REMARK  status: ('A' for Active; 'I' for Inactive)
REMARK    1  A    between atoms: C_2  and  N_5
REMARK    2  A    between atoms: N_8  and  C_9
REMARK    3  A    between atoms: C_9  and  C_10
REMARK    4  A    between atoms: C_9  and  C_34
REMARK    5  A    between atoms: C_16  and  C_17
REMARK    6  A    between atoms: N_19  and  C_20
REMARK    7  A    between atoms: C_20  and  C_21
REMARK    8  A    between atoms: C_20  and  C_26
REMARK    9  A    between atoms: C_21  and  C_22
REMARK   10  A    between atoms: C_26  and  C_28
REMARK                            x       y       z     vdW  Elec       q    Type
REMARK                         _______ _______ _______ _____ _____    ______ ____
ROOT
ATOM      1  C   UNL     1      -9.262  10.679  68.519  0.00  0.00    +0.246 C 
ATOM      2  N   UNL     1      -9.994  11.646  67.832  0.00  0.00    -0.272 N 
ATOM      3  C   UNL     1      -9.484  12.895  67.051  0.00  0.00    +0.153 C 
ATOM      4  C   UNL     1     -11.059  13.576  67.088  0.00  0.00    +0.029 C 
ATOM      5  C   UNL     1     -11.478  13.289  65.465  0.00  0.00    +0.004 C 
ATOM      6  C   UNL     1     -12.831  13.872  65.201  0.00  0.00    +0.000 C 
ATOM      7  C   UNL     1     -10.464  13.033  64.542  0.00  0.00    +0.000 C 
ATOM      8  C   UNL     1     -11.853  12.140  66.662  0.00  0.00    +0.022 C 
ATOM      9  C   UNL     1     -10.490  11.246  66.496  0.00  0.00    +0.094 C 
ATOM     10  O   UNL     1      -8.126  10.676  68.932  0.00  0.00    -0.273 OA
ENDROOT
BRANCH   3  11
ATOM     11  C   UNL     1      -9.086  13.789  68.327  0.00  0.00    +0.260 C 
ATOM     12  N   UNL     1      -9.472  15.112  67.930  0.00  0.00    -0.198 NA
ATOM     13  O   UNL     1      -7.925  13.828  68.711  0.00  0.00    -0.272 OA
BRANCH  12  14
ATOM     14  C   UNL     1      -9.475  16.248  69.017  0.00  0.00    +0.161 C 
BRANCH  14  15
ATOM     15  C   UNL     1      -9.813  17.350  67.878  0.00  0.00    +0.249 C 
ATOM     16  O   UNL     1     -10.667  18.199  68.168  0.00  0.00    -0.285 OA
BRANCH  15  17
ATOM     17  C   UNL     1      -8.597  17.955  67.304  0.00  0.00    +0.321 C 
ATOM     18  O   UNL     1      -7.766  18.499  68.047  0.00  0.00    -0.263 OA
ATOM     19  N   UNL     1      -8.322  17.930  65.909  0.00  0.00    -0.081 NA
ENDBRANCH  15  17
ENDBRANCH  14  15
BRANCH  14  20
ATOM     20  C   UNL     1     -11.055  16.044  69.425  0.00  0.00    +0.030 C 
BRANCH  20  21
ATOM     21  C   UNL     1     -11.127  15.261  70.677  0.00  0.00    +0.002 C 
ATOM     22  C   UNL     1     -11.944  16.079  71.680  0.00  0.00    +0.000 C 
ATOM     23  C   UNL     1     -13.157  15.341  71.114  0.00  0.00    +0.000 C 
ATOM     24  C   UNL     1     -12.190  14.205  70.791  0.00  0.00    +0.000 C 
ENDBRANCH  20  21
ENDBRANCH  14  20
ENDBRANCH  12  14
ENDBRANCH   3  11
BRANCH   1  25
ATOM     25  C   UNL     1     -10.128   9.309  68.488  0.00  0.00    +0.173 C 
BRANCH  25  28
ATOM     26  N   UNL     1      -8.496   6.069  67.453  0.00  0.00    -0.191 NA
ATOM     27  C   UNL     1      -9.023   7.402  67.478  0.00  0.00    +0.340 C 
ATOM     28  N   UNL     1      -8.902   8.309  68.586  0.00  0.00    -0.180 NA
ATOM     29  O   UNL     1      -8.898   7.951  66.340  0.00  0.00    -0.249 OA
BRANCH  26  31
ATOM     30  C   UNL     1      -8.621   5.516  65.761  0.00  0.00    +0.022 C 
ATOM     31  C   UNL     1      -8.731   5.253  66.253  0.00  0.00    +0.080 C 
ATOM     32  C   UNL     1      -7.787   4.051  66.233  0.00  0.00    +0.022 C 
ATOM     33  C   UNL     1     -10.181   4.770  66.304  0.00  0.00    +0.022 C 
ENDBRANCH  26  31
ENDBRANCH  25  28
BRANCH  25  34
ATOM     34  C   UNL     1     -10.449   9.283  70.095  0.00  0.00    +0.027 C 
ATOM     35  C   UNL     1      -9.144   9.083  70.792  0.00  0.00    +0.002 C 
ATOM     36  C   UNL     1     -11.203   7.955  70.182  0.00  0.00    +0.002 C 
ATOM     37  C   UNL     1     -11.308  10.353  70.519  0.00  0.00    +0.002 C 
ENDBRANCH  25  34
ENDBRANCH   1  25
TORSDOF 10
ENDMDL
MODEL 7
REMARK VINA RESULT:      -5.9      1.707      2.973
REMARK  Name = 
REMARK  10 active torsions:
REMARK  status: ('A' for Active; 'I' for Inactive)
REMARK    1  A    between atoms: C_2  and  N_5
REMARK    2  A    between atoms: N_8  and  C_9
REMARK    3  A    between atoms: C_9  and  C_10
REMARK    4  A    between atoms: C_9  and  C_34
REMARK    5  A    between atoms: C_16  and  C_17
REMARK    6  A    between atoms: N_19  and  C_20
REMARK    7  A    between atoms: C_20  and  C_21
REMARK    8  A    between atoms: C_20  and  C_26
REMARK    9  A    between atoms: C_21  and  C_22
REMARK   10  A    between atoms: C_26  and  C_28
REMARK                            x       y       z     vdW  Elec       q    Type
REMARK                         _______ _______ _______ _____ _____    ______ ____
ROOT
ATOM      1  C   UNL     1      -7.205  17.211  66.679  0.00  0.00    +0.246 C 
ATOM      2  N   UNL     1      -6.508  16.436  67.604  0.00  0.00    -0.272 N 
ATOM      3  C   UNL     1      -6.353  14.886  67.670  0.00  0.00    +0.153 C 
ATOM      4  C   UNL     1      -5.836  14.996  69.303  0.00  0.00    +0.029 C 
ATOM      5  C   UNL     1      -4.181  14.702  69.047  0.00  0.00    +0.004 C 
ATOM      6  C   UNL     1      -3.481  14.671  70.369  0.00  0.00    +0.000 C 
ATOM      7  C   UNL     1      -3.780  14.099  67.855  0.00  0.00    +0.000 C 
ATOM      8  C   UNL     1      -4.778  16.295  69.038  0.00  0.00    +0.022 C 
ATOM      9  C   UNL     1      -5.040  16.387  67.424  0.00  0.00    +0.094 C 
ATOM     10  O   UNL     1      -8.071  16.926  65.884  0.00  0.00    -0.273 OA
ENDROOT
BRANCH   3  11
ATOM     11  C   UNL     1      -7.840  14.550  68.182  0.00  0.00    +0.260 C 
ATOM     12  N   UNL     1      -8.514  14.149  66.982  0.00  0.00    -0.198 NA
ATOM     13  O   UNL     1      -8.511  15.416  68.728  0.00  0.00    -0.272 OA
BRANCH  12  14
ATOM     14  C   UNL     1      -9.939  13.495  67.107  0.00  0.00    +0.161 C 
BRANCH  14  15
ATOM     15  C   UNL     1     -10.613  14.965  67.219  0.00  0.00    +0.249 C 
ATOM     16  O   UNL     1     -11.001  15.476  66.159  0.00  0.00    -0.285 OA
BRANCH  15  17
ATOM     17  C   UNL     1     -11.638  15.032  68.278  0.00  0.00    +0.321 C 
ATOM     18  O   UNL     1     -12.260  14.010  68.605  0.00  0.00    -0.263 OA
ATOM     19  N   UNL     1     -11.939  16.240  68.965  0.00  0.00    -0.081 NA
ENDBRANCH  15  17
ENDBRANCH  14  15
BRANCH  14  20
ATOM     20  C   UNL     1     -10.189  13.399  65.484  0.00  0.00    +0.030 C 
BRANCH  20  21
ATOM     21  C   UNL     1     -10.935  12.158  65.190  0.00  0.00    +0.002 C 
ATOM     22  C   UNL     1     -12.400  12.547  64.975  0.00  0.00    +0.000 C 
ATOM     23  C   UNL     1     -12.020  12.702  63.503  0.00  0.00    +0.000 C 
ATOM     24  C   UNL     1     -10.943  11.655  63.773  0.00  0.00    +0.000 C 
ENDBRANCH  20  21
ENDBRANCH  14  20
ENDBRANCH  12  14
ENDBRANCH   3  11
BRANCH   1  25
ATOM     25  C   UNL     1      -6.472  18.655  66.613  0.00  0.00    +0.173 C 
BRANCH  25  28
ATOM     26  N   UNL     1      -5.849  20.362  63.307  0.00  0.00    -0.191 NA
ATOM     27  C   UNL     1      -5.832  19.452  64.414  0.00  0.00    +0.340 C 
ATOM     28  N   UNL     1      -6.990  19.063  65.171  0.00  0.00    -0.180 NA
ATOM     29  O   UNL     1      -5.008  18.509  64.203  0.00  0.00    -0.249 OA
BRANCH  26  31
ATOM     30  C   UNL     1      -4.276  20.231  62.472  0.00  0.00    +0.022 C 
ATOM     31  C   UNL     1      -4.571  20.682  62.654  0.00  0.00    +0.080 C 
ATOM     32  C   UNL     1      -4.813  21.487  61.377  0.00  0.00    +0.022 C 
ATOM     33  C   UNL     1      -3.748  21.512  63.640  0.00  0.00    +0.022 C 
ENDBRANCH  26  31
ENDBRANCH  25  28
BRANCH  25  34
ATOM     34  C   UNL     1      -7.648  19.472  67.412  0.00  0.00    +0.027 C 
ATOM     35  C   UNL     1      -8.764  19.678  66.443  0.00  0.00    +0.002 C 
ATOM     36  C   UNL     1      -6.951  20.823  67.577  0.00  0.00    +0.002 C 
ATOM     37  C   UNL     1      -7.942  18.919  68.705  0.00  0.00    +0.002 C 
ENDBRANCH  25  34
ENDBRANCH   1  25
TORSDOF 10
ENDMDL
MODEL 8
REMARK VINA RESULT:      -5.7      5.824      8.440
REMARK  Name = 
REMARK  10 active torsions:
REMARK  status: ('A' for Active; 'I' for Inactive)
REMARK    1  A    between atoms: C_2  and  N_5
REMARK    2  A    between atoms: N_8  and  C_9
REMARK    3  A    between atoms: C_9  and  C_10
REMARK    4  A    between atoms: C_9  and  C_34
REMARK    5  A    between atoms: C_16  and  C_17
REMARK    6  A    between atoms: N_19  and  C_20
REMARK    7  A    between atoms: C_20  and  C_21
REMARK    8  A    between atoms: C_20  and  C_26
REMARK    9  A    between atoms: C_21  and  C_22
REMARK   10  A    between atoms: C_26  and  C_28
REMARK                            x       y       z     vdW  Elec       q    Type
REMARK                         _______ _______ _______ _____ _____    ______ ____
ROOT
ATOM      1  C   UNL     1     -10.514  10.934  67.456  0.00  0.00    +0.246 C 
ATOM      2  N   UNL     1      -9.566  10.450  68.356  0.00  0.00    -0.272 N 
ATOM      3  C   UNL     1      -9.580   9.127  69.182  0.00  0.00    +0.153 C 
ATOM      4  C   UNL     1      -8.364   9.749  70.221  0.00  0.00    +0.029 C 
ATOM      5  C   UNL     1      -7.057   8.838  69.626  0.00  0.00    +0.004 C 
ATOM      6  C   UNL     1      -5.838   9.147  70.437  0.00  0.00    +0.000 C 
ATOM      7  C   UNL     1      -7.321   7.685  68.887  0.00  0.00    +0.000 C 
ATOM      8  C   UNL     1      -7.401  10.369  68.970  0.00  0.00    +0.022 C 
ATOM      9  C   UNL     1      -8.361   9.839  67.752  0.00  0.00    +0.094 C 
ATOM     10  O   UNL     1     -11.673  10.644  67.279  0.00  0.00    -0.273 OA
ENDROOT
BRANCH   3  11
ATOM     11  C   UNL     1     -10.695   9.565  70.255  0.00  0.00    +0.260 C 
ATOM     12  N   UNL     1     -10.986   8.340  70.940  0.00  0.00    -0.198 NA
ATOM     13  O   UNL     1     -11.752  10.053  69.877  0.00  0.00    -0.272 OA
BRANCH  12  14
ATOM     14  C   UNL     1     -11.858   8.402  72.247  0.00  0.00    +0.161 C 
BRANCH  14  15
ATOM     15  C   UNL     1     -12.807   7.216  71.681  0.00  0.00    +0.249 C 
ATOM     16  O   UNL     1     -12.424   6.057  71.888  0.00  0.00    -0.285 OA
BRANCH  15  17
ATOM     17  C   UNL     1     -14.223   7.409  72.046  0.00  0.00    +0.321 C 
ATOM     18  O   UNL     1     -14.993   6.437  72.079  0.00  0.00    -0.263 OA
ATOM     19  N   UNL     1     -14.753   8.685  72.382  0.00  0.00    -0.081 NA
ENDBRANCH  15  17
ENDBRANCH  14  15
BRANCH  14  20
ATOM     20  C   UNL     1     -10.906   7.364  73.097  0.00  0.00    +0.030 C 
BRANCH  20  21
ATOM     21  C   UNL     1      -9.507   7.524  72.646  0.00  0.00    +0.002 C 
ATOM     22  C   UNL     1      -8.676   7.913  73.872  0.00  0.00    +0.000 C 
ATOM     23  C   UNL     1      -8.473   6.411  74.065  0.00  0.00    +0.000 C 
ATOM     24  C   UNL     1      -8.649   6.293  72.553  0.00  0.00    +0.000 C 
ENDBRANCH  20  21
ENDBRANCH  14  20
ENDBRANCH  12  14
ENDBRANCH   3  11
BRANCH   1  25
ATOM     25  C   UNL     1      -9.729  11.871  66.391  0.00  0.00    +0.173 C 
BRANCH  25  28
ATOM     26  N   UNL     1      -9.837  10.660  62.819  0.00  0.00    -0.191 NA
ATOM     27  C   UNL     1      -9.686  10.748  64.242  0.00  0.00    +0.340 C 
ATOM     28  N   UNL     1     -10.578  11.458  65.117  0.00  0.00    -0.180 NA
ATOM     29  O   UNL     1      -9.261   9.648  64.713  0.00  0.00    -0.249 OA
BRANCH  26  31
ATOM     30  C   UNL     1      -8.561   9.503  62.349  0.00  0.00    +0.022 C 
ATOM     31  C   UNL     1      -8.820   9.919  62.059  0.00  0.00    +0.080 C 
ATOM     32  C   UNL     1      -9.464   9.185  60.883  0.00  0.00    +0.022 C 
ATOM     33  C   UNL     1      -7.804  10.937  61.539  0.00  0.00    +0.022 C 
ENDBRANCH  26  31
ENDBRANCH  25  28
BRANCH  25  34
ATOM     34  C   UNL     1     -10.597  13.228  66.695  0.00  0.00    +0.027 C 
ATOM     35  C   UNL     1     -11.854  13.123  65.896  0.00  0.00    +0.002 C 
ATOM     36  C   UNL     1      -9.712  14.258  65.993  0.00  0.00    +0.002 C 
ATOM     37  C   UNL     1     -10.685  13.541  68.094  0.00  0.00    +0.002 C 
ENDBRANCH  25  34
ENDBRANCH   1  25
TORSDOF 10
ENDMDL
MODEL 9
REMARK VINA RESULT:      -5.6      6.690     10.410
REMARK  Name = 
REMARK  10 active torsions:
REMARK  status: ('A' for Active; 'I' for Inactive)
REMARK    1  A    between atoms: C_2  and  N_5
REMARK    2  A    between atoms: N_8  and  C_9
REMARK    3  A    between atoms: C_9  and  C_10
REMARK    4  A    between atoms: C_9  and  C_34
REMARK    5  A    between atoms: C_16  and  C_17
REMARK    6  A    between atoms: N_19  and  C_20
REMARK    7  A    between atoms: C_20  and  C_21
REMARK    8  A    between atoms: C_20  and  C_26
REMARK    9  A    between atoms: C_21  and  C_22
REMARK   10  A    between atoms: C_26  and  C_28
REMARK                            x       y       z     vdW  Elec       q    Type
REMARK                         _______ _______ _______ _____ _____    ______ ____
ROOT
ATOM      1  C   UNL     1      -8.923   9.825  68.915  0.00  0.00    +0.246 C 
ATOM      2  N   UNL     1      -9.505   8.921  69.802  0.00  0.00    -0.272 N 
ATOM      3  C   UNL     1      -9.631   9.009  71.354  0.00  0.00    +0.153 C 
ATOM      4  C   UNL     1      -9.968   7.328  71.433  0.00  0.00    +0.029 C 
ATOM      5  C   UNL     1     -11.637   7.436  71.739  0.00  0.00    +0.004 C 
ATOM      6  C   UNL     1     -12.189   6.058  71.930  0.00  0.00    +0.000 C 
ATOM      7  C   UNL     1     -12.158   8.638  72.221  0.00  0.00    +0.000 C 
ATOM      8  C   UNL     1     -11.066   7.334  70.140  0.00  0.00    +0.022 C 
ATOM      9  C   UNL     1     -10.983   8.947  69.868  0.00  0.00    +0.094 C 
ATOM     10  O   UNL     1      -8.146  10.733  69.090  0.00  0.00    -0.273 OA
ENDROOT
BRANCH   3  11
ATOM     11  C   UNL     1      -8.093   8.699  71.705  0.00  0.00    +0.260 C 
ATOM     12  N   UNL     1      -8.117   8.500  73.124  0.00  0.00    -0.198 NA
ATOM     13  O   UNL     1      -7.227   9.525  71.448  0.00  0.00    -0.272 OA
BRANCH  12  14
ATOM     14  C   UNL     1      -6.831   7.922  73.821  0.00  0.00    +0.161 C 
BRANCH  14  15
ATOM     15  C   UNL     1      -7.399   8.379  75.268  0.00  0.00    +0.249 C 
ATOM     16  O   UNL     1      -7.498   7.491  76.126  0.00  0.00    -0.285 OA
BRANCH  15  17
ATOM     17  C   UNL     1      -6.718   9.580  75.785  0.00  0.00    +0.321 C 
ATOM     18  O   UNL     1      -7.018  10.031  76.901  0.00  0.00    -0.263 OA
ATOM     19  N   UNL     1      -5.701  10.250  75.052  0.00  0.00    -0.081 NA
ENDBRANCH  15  17
ENDBRANCH  14  15
BRANCH  14  20
ATOM     20  C   UNL     1      -7.425   6.395  73.962  0.00  0.00    +0.030 C 
BRANCH  20  21
ATOM     21  C   UNL     1      -6.544   5.471  73.217  0.00  0.00    +0.002 C 
ATOM     22  C   UNL     1      -7.048   4.050  73.482  0.00  0.00    +0.000 C 
ATOM     23  C   UNL     1      -7.924   4.256  72.247  0.00  0.00    +0.000 C 
ATOM     24  C   UNL     1      -6.845   5.222  71.765  0.00  0.00    +0.000 C 
ENDBRANCH  20  21
ENDBRANCH  14  20
ENDBRANCH  12  14
ENDBRANCH   3  11
BRANCH   1  25
ATOM     25  C   UNL     1      -9.679   9.653  67.491  0.00  0.00    +0.173 C 
BRANCH  25  28
ATOM     26  N   UNL     1     -10.770  12.552  65.338  0.00  0.00    -0.191 NA
ATOM     27  C   UNL     1     -10.667  11.561  66.368  0.00  0.00    +0.340 C 
ATOM     28  N   UNL     1      -9.435  11.130  66.969  0.00  0.00    -0.180 NA
ATOM     29  O   UNL     1     -11.636  11.665  67.184  0.00  0.00    -0.249 OA
BRANCH  26  31
ATOM     30  C   UNL     1     -12.534  12.759  65.163  0.00  0.00    +0.022 C 
ATOM     31  C   UNL     1     -12.105  12.861  64.804  0.00  0.00    +0.080 C 
ATOM     32  C   UNL     1     -12.230  14.357  64.517  0.00  0.00    +0.022 C 
ATOM     33  C   UNL     1     -12.274  12.069  63.507  0.00  0.00    +0.022 C 
ENDBRANCH  26  31
ENDBRANCH  25  28
BRANCH  25  34
ATOM     34  C   UNL     1      -8.391   9.019  66.698  0.00  0.00    +0.027 C 
ATOM     35  C   UNL     1      -7.542  10.168  66.266  0.00  0.00    +0.002 C 
ATOM     36  C   UNL     1      -9.096   8.496  65.446  0.00  0.00    +0.002 C 
ATOM     37  C   UNL     1      -7.777   7.925  67.399  0.00  0.00    +0.002 C 
ENDBRANCH  25  34
ENDBRANCH   1  25
TORSDOF 10
ENDMDL
