MODEL 1
REMARK VINA RESULT:      -6.7      0.000      0.000
REMARK  Name = 
REMARK  3 active torsions:
REMARK  status: ('A' for Active; 'I' for Inactive)
REMARK    1  A    between atoms: N_5  and  C_6
REMARK    2  A    between atoms: C_6  and  C_7
REMARK    3  A    between atoms: C_6  and  C_13
REMARK                            x       y       z     vdW  Elec       q    Type
REMARK                         _______ _______ _______ _____ _____    ______ ____
ROOT
ATOM      1  C   UNL     1     -10.410  14.931  68.381  0.00  0.00    +0.103 C 
ENDROOT
BRANCH   1   6
ATOM      2  C   UNL     1      -9.994  19.441  66.125  0.00  0.00    +0.090 C 
ATOM      3  N   UNL     1      -9.387  18.710  67.077  0.00  0.00    -0.269 NA
ATOM      4  C   UNL     1      -8.926  17.401  66.668  0.00  0.00    +0.090 C 
ATOM      5  C   UNL     1     -10.035  16.379  66.600  0.00  0.00    +0.090 C 
ATOM      6  N   UNL     1     -10.857  16.372  67.811  0.00  0.00    -0.264 NA
ATOM      7  C   UNL     1     -10.163  17.221  68.753  0.00  0.00    +0.090 C 
ATOM      8  C   UNL     1     -10.188  18.634  68.272  0.00  0.00    +0.090 C 
ENDBRANCH   1   6
BRANCH   1   9
ATOM      9  C   UNL     1     -10.945  14.164  67.031  0.00  0.00    -0.004 A 
ATOM     10  C   UNL     1     -12.194  14.438  66.622  0.00  0.00    -0.002 A 
ATOM     11  C   UNL     1     -12.619  13.740  65.495  0.00  0.00    +0.011 A 
ATOM     12  C   UNL     1     -11.851  12.707  64.966  0.00  0.00    +0.058 A 
ATOM     13 CL   UNL     1     -12.438  11.960  63.493  0.00  0.00    -0.082 Cl
ATOM     14  C   UNL     1     -10.557  12.514  65.433  0.00  0.00    +0.011 A 
ATOM     15  C   UNL     1     -10.098  13.205  66.551  0.00  0.00    -0.002 A 
ENDBRANCH   1   9
BRANCH   1  16
ATOM     16  C   UNL     1     -11.843  14.742  69.185  0.00  0.00    -0.004 A 
ATOM     17  C   UNL     1     -12.003  15.736  70.152  0.00  0.00    -0.003 A 
ATOM     18  C   UNL     1     -13.006  15.529  71.086  0.00  0.00    -0.000 A 
ATOM     19  C   UNL     1     -13.168  14.248  71.602  0.00  0.00    -0.000 A 
ATOM     20  C   UNL     1     -12.438  13.230  71.000  0.00  0.00    -0.000 A 
ATOM     21  C   UNL     1     -11.960  13.459  69.718  0.00  0.00    -0.003 A 
ENDBRANCH   1  16
TORSDOF 3
ENDMDL
MODEL 2
REMARK VINA RESULT:      -6.3      2.829      5.012
REMARK  Name = 
REMARK  3 active torsions:
REMARK  status: ('A' for Active; 'I' for Inactive)
REMARK    1  A    between atoms: N_5  and  C_6
REMARK    2  A    between atoms: C_6  and  C_7
REMARK    3  A    between atoms: C_6  and  C_13
REMARK                            x       y       z     vdW  Elec       q    Type
REMARK                         _______ _______ _______ _____ _____    ______ ____
ROOT
ATOM      1  C   UNL     1     -11.820  15.257  68.761  0.00  0.00    +0.103 C 
ENDROOT
BRANCH   1   6
ATOM      2  C   UNL     1     -10.588  11.186  66.020  0.00  0.00    +0.090 C 
ATOM      3  N   UNL     1     -11.657  11.726  66.632  0.00  0.00    -0.269 NA
ATOM      4  C   UNL     1     -12.003  13.071  66.227  0.00  0.00    +0.090 C 
ATOM      5  C   UNL     1     -11.121  14.123  66.855  0.00  0.00    +0.090 C 
ATOM      6  N   UNL     1     -10.997  13.949  68.303  0.00  0.00    -0.264 NA
ATOM      7  C   UNL     1     -11.962  12.932  68.653  0.00  0.00    +0.090 C 
ATOM      8  C   UNL     1     -11.551  11.622  68.065  0.00  0.00    +0.090 C 
ENDBRANCH   1   6
BRANCH   1   9
ATOM      9  C   UNL     1     -10.463  16.183  68.768  0.00  0.00    -0.004 A 
ATOM     10  C   UNL     1     -10.575  17.442  68.318  0.00  0.00    -0.002 A 
ATOM     11  C   UNL     1      -9.394  18.180  68.309  0.00  0.00    +0.011 A 
ATOM     12  C   UNL     1      -8.172  17.570  68.576  0.00  0.00    +0.058 A 
ATOM     13 CL   UNL     1      -6.763  18.610  68.627  0.00  0.00    -0.082 Cl
ATOM     14  C   UNL     1      -8.154  16.269  69.064  0.00  0.00    +0.011 A 
ATOM     15  C   UNL     1      -9.321  15.510  69.097  0.00  0.00    -0.002 A 
ENDBRANCH   1   9
BRANCH   1  16
ATOM     16  C   UNL     1     -11.681  14.855  70.359  0.00  0.00    -0.004 A 
ATOM     17  C   UNL     1     -12.809  14.158  70.794  0.00  0.00    -0.003 A 
ATOM     18  C   UNL     1     -12.955  14.018  72.166  0.00  0.00    -0.000 A 
ATOM     19  C   UNL     1     -12.656  15.112  72.971  0.00  0.00    -0.000 A 
ATOM     20  C   UNL     1     -12.051  16.200  72.356  0.00  0.00    -0.000 A 
ATOM     21  C   UNL     1     -11.414  15.977  71.143  0.00  0.00    -0.003 A 
ENDBRANCH   1  16
TORSDOF 3
ENDMDL
MODEL 3
REMARK VINA RESULT:      -6.2      2.826      4.870
REMARK  Name = 
REMARK  3 active torsions:
REMARK  status: ('A' for Active; 'I' for Inactive)
REMARK    1  A    between atoms: N_5  and  C_6
REMARK    2  A    between atoms: C_6  and  C_7
REMARK    3  A    between atoms: C_6  and  C_13
REMARK                            x       y       z     vdW  Elec       q    Type
REMARK                         _______ _______ _______ _____ _____    ______ ____
ROOT
ATOM      1  C   UNL     1     -11.417  15.979  68.219  0.00  0.00    +0.103 C 
ENDROOT
BRANCH   1   6
ATOM      2  C   UNL     1     -10.426  12.904  64.324  0.00  0.00    +0.090 C 
ATOM      3  N   UNL     1     -11.460  13.568  64.870  0.00  0.00    -0.269 NA
ATOM      4  C   UNL     1     -11.286  14.997  65.016  0.00  0.00    +0.090 C 
ATOM      5  C   UNL     1     -10.431  15.369  66.202  0.00  0.00    +0.090 C 
ATOM      6  N   UNL     1     -10.856  14.690  67.427  0.00  0.00    -0.264 NA
ATOM      7  C   UNL     1     -12.111  14.054  67.100  0.00  0.00    +0.090 C 
ATOM      8  C   UNL     1     -11.880  12.961  66.108  0.00  0.00    +0.090 C 
ENDBRANCH   1   6
BRANCH   1   9
ATOM      9  C   UNL     1      -9.913  16.628  68.350  0.00  0.00    -0.004 A 
ATOM     10  C   UNL     1      -8.923  15.811  68.743  0.00  0.00    -0.002 A 
ATOM     11  C   UNL     1      -7.673  16.409  68.874  0.00  0.00    +0.011 A 
ATOM     12  C   UNL     1      -7.532  17.790  68.779  0.00  0.00    +0.058 A 
ATOM     13 CL   UNL     1      -5.901  18.426  68.869  0.00  0.00    -0.082 Cl
ATOM     14  C   UNL     1      -8.605  18.554  68.339  0.00  0.00    +0.011 A 
ATOM     15  C   UNL     1      -9.865  17.983  68.186  0.00  0.00    -0.002 A 
ENDBRANCH   1   9
BRANCH   1  16
ATOM     16  C   UNL     1     -11.322  15.197  69.673  0.00  0.00    -0.004 A 
ATOM     17  C   UNL     1     -12.239  14.147  69.731  0.00  0.00    -0.003 A 
ATOM     18  C   UNL     1     -12.470  13.600  70.984  0.00  0.00    -0.000 A 
ATOM     19  C   UNL     1     -12.577  14.466  72.067  0.00  0.00    -0.000 A 
ATOM     20  C   UNL     1     -12.253  15.798  71.842  0.00  0.00    -0.000 A 
ATOM     21  C   UNL     1     -11.466  16.087  70.737  0.00  0.00    -0.003 A 
ENDBRANCH   1  16
TORSDOF 3
ENDMDL
MODEL 4
REMARK VINA RESULT:      -5.9      2.717      5.590
REMARK  Name = 
REMARK  3 active torsions:
REMARK  status: ('A' for Active; 'I' for Inactive)
REMARK    1  A    between atoms: N_5  and  C_6
REMARK    2  A    between atoms: C_6  and  C_7
REMARK    3  A    between atoms: C_6  and  C_13
REMARK                            x       y       z     vdW  Elec       q    Type
REMARK                         _______ _______ _______ _____ _____    ______ ____
ROOT
ATOM      1  C   UNL     1     -10.382  14.703  68.744  0.00  0.00    +0.103 C 
ENDROOT
BRANCH   1   6
ATOM      2  C   UNL     1     -13.661  15.731  72.458  0.00  0.00    +0.090 C 
ATOM      3  N   UNL     1     -12.802  14.766  72.086  0.00  0.00    -0.269 NA
ATOM      4  C   UNL     1     -11.430  15.185  71.891  0.00  0.00    +0.090 C 
ATOM      5  C   UNL     1     -11.207  15.882  70.572  0.00  0.00    +0.090 C 
ATOM      6  N   UNL     1     -11.769  15.132  69.447  0.00  0.00    -0.264 NA
ATOM      7  C   UNL     1     -12.158  13.852  69.993  0.00  0.00    +0.090 C 
ATOM      8  C   UNL     1     -13.293  14.034  70.947  0.00  0.00    +0.090 C 
ENDBRANCH   1   6
BRANCH   1   9
ATOM      9  C   UNL     1      -9.984  16.268  68.438  0.00  0.00    -0.004 A 
ATOM     10  C   UNL     1     -10.919  17.039  67.862  0.00  0.00    -0.002 A 
ATOM     11  C   UNL     1     -10.528  18.348  67.589  0.00  0.00    +0.011 A 
ATOM     12  C   UNL     1      -9.202  18.741  67.744  0.00  0.00    +0.058 A 
ATOM     13 CL   UNL     1      -8.841  20.432  67.461  0.00  0.00    -0.082 Cl
ATOM     14  C   UNL     1      -8.309  17.885  68.377  0.00  0.00    +0.011 A 
ATOM     15  C   UNL     1      -8.673  16.575  68.674  0.00  0.00    -0.002 A 
ENDBRANCH   1   9
BRANCH   1  16
ATOM     16  C   UNL     1     -11.123  14.496  67.280  0.00  0.00    -0.004 A 
ATOM     17  C   UNL     1     -11.715  13.235  67.199  0.00  0.00    -0.003 A 
ATOM     18  C   UNL     1     -12.111  12.820  65.937  0.00  0.00    -0.000 A 
ATOM     19  C   UNL     1     -11.266  13.085  64.865  0.00  0.00    -0.000 A 
ATOM     20  C   UNL     1     -10.179  13.915  65.111  0.00  0.00    -0.000 A 
ATOM     21  C   UNL     1     -10.241  14.737  66.227  0.00  0.00    -0.003 A 
ENDBRANCH   1  16
TORSDOF 3
ENDMDL
MODEL 5
REMARK VINA RESULT:      -5.8      2.614      5.548
REMARK  Name = 
REMARK  3 active torsions:
REMARK  status: ('A' for Active; 'I' for Inactive)
REMARK    1  A    between atoms: N_5  and  C_6
REMARK    2  A    between atoms: C_6  and  C_7
REMARK    3  A    between atoms: C_6  and  C_13
REMARK                            x       y       z     vdW  Elec       q    Type
REMARK                         _______ _______ _______ _____ _____    ______ ____
ROOT
ATOM      1  C   UNL     1     -10.003  15.843  67.929  0.00  0.00    +0.103 C 
ENDROOT
BRANCH   1   6
ATOM      2  C   UNL     1     -12.303  12.537  64.865  0.00  0.00    +0.090 C 
ATOM      3  N   UNL     1     -11.097  13.105  65.042  0.00  0.00    -0.269 NA
ATOM      4  C   UNL     1     -10.502  12.929  66.349  0.00  0.00    +0.090 C 
ATOM      5  C   UNL     1     -11.083  13.854  67.391  0.00  0.00    +0.090 C 
ATOM      6  N   UNL     1     -11.124  15.244  66.936  0.00  0.00    -0.264 NA
ATOM      7  C   UNL     1     -10.376  15.268  65.699  0.00  0.00    +0.090 C 
ATOM      8  C   UNL     1     -11.106  14.492  64.653  0.00  0.00    +0.090 C 
ENDBRANCH   1   6
BRANCH   1   9
ATOM      9  C   UNL     1     -10.945  15.576  69.249  0.00  0.00    -0.004 A 
ATOM     10  C   UNL     1     -12.266  15.767  69.111  0.00  0.00    -0.002 A 
ATOM     11  C   UNL     1     -13.021  15.563  70.262  0.00  0.00    +0.011 A 
ATOM     12  C   UNL     1     -12.403  15.361  71.492  0.00  0.00    +0.058 A 
ATOM     13 CL   UNL     1     -13.449  15.024  72.857  0.00  0.00    -0.082 Cl
ATOM     14  C   UNL     1     -11.031  15.146  71.536  0.00  0.00    +0.011 A 
ATOM     15  C   UNL     1     -10.249  15.330  70.399  0.00  0.00    -0.002 A 
ENDBRANCH   1   9
BRANCH   1  16
ATOM     16  C   UNL     1     -10.558  17.387  67.715  0.00  0.00    -0.004 A 
ATOM     17  C   UNL     1     -10.306  17.827  66.415  0.00  0.00    -0.003 A 
ATOM     18  C   UNL     1     -10.450  19.187  66.187  0.00  0.00    -0.000 A 
ATOM     19  C   UNL     1      -9.975  20.067  67.153  0.00  0.00    -0.000 A 
ATOM     20  C   UNL     1      -9.565  19.515  68.360  0.00  0.00    -0.000 A 
ATOM     21  C   UNL     1     -10.038  18.250  68.678  0.00  0.00    -0.003 A 
ENDBRANCH   1  16
TORSDOF 3
ENDMDL
MODEL 6
REMARK VINA RESULT:      -5.7      2.902      4.669
REMARK  Name = 
REMARK  3 active torsions:
REMARK  status: ('A' for Active; 'I' for Inactive)
REMARK    1  A    between atoms: N_5  and  C_6
REMARK    2  A    between atoms: C_6  and  C_7
REMARK    3  A    between atoms: C_6  and  C_13
REMARK                            x       y       z     vdW  Elec       q    Type
REMARK                         _______ _______ _______ _____ _____    ______ ____
ROOT
ATOM      1  C   UNL     1     -11.856  14.800  68.152  0.00  0.00    +0.103 C 
ENDROOT
BRANCH   1   6
ATOM      2  C   UNL     1      -8.095  17.877  66.742  0.00  0.00    +0.090 C 
ATOM      3  N   UNL     1      -8.925  16.962  66.212  0.00  0.00    -0.269 NA
ATOM      4  C   UNL     1     -10.339  17.215  66.392  0.00  0.00    +0.090 C 
ATOM      5  C   UNL     1     -10.833  16.854  67.771  0.00  0.00    +0.090 C 
ATOM      6  N   UNL     1     -10.410  15.513  68.178  0.00  0.00    -0.264 NA
ATOM      7  C   UNL     1      -9.834  14.915  66.995  0.00  0.00    +0.090 C 
ATOM      8  C   UNL     1      -8.575  15.629  66.629  0.00  0.00    +0.090 C 
ENDBRANCH   1   6
BRANCH   1   9
ATOM      9  C   UNL     1     -12.062  15.027  69.767  0.00  0.00    -0.004 A 
ATOM     10  C   UNL     1     -13.322  15.147  70.215  0.00  0.00    -0.002 A 
ATOM     11  C   UNL     1     -13.449  15.372  71.583  0.00  0.00    +0.011 A 
ATOM     12  C   UNL     1     -12.331  15.635  72.368  0.00  0.00    +0.058 A 
ATOM     13 CL   UNL     1     -12.598  15.812  74.090  0.00  0.00    -0.082 Cl
ATOM     14  C   UNL     1     -11.064  15.458  71.826  0.00  0.00    +0.011 A 
ATOM     15  C   UNL     1     -10.903  15.219  70.464  0.00  0.00    -0.002 A 
ENDBRANCH   1   9
BRANCH   1  16
ATOM     16  C   UNL     1     -11.182  13.301  68.343  0.00  0.00    -0.004 A 
ATOM     17  C   UNL     1     -11.388  12.518  67.206  0.00  0.00    -0.003 A 
ATOM     18  C   UNL     1     -11.138  11.161  67.339  0.00  0.00    -0.000 A 
ATOM     19  C   UNL     1     -11.552  10.530  68.507  0.00  0.00    -0.000 A 
ATOM     20  C   UNL     1     -12.014  11.345  69.534  0.00  0.00    -0.000 A 
ATOM     21  C   UNL     1     -11.643  12.682  69.504  0.00  0.00    -0.003 A 
ENDBRANCH   1  16
TORSDOF 3
ENDMDL
MODEL 7
REMARK VINA RESULT:      -5.7      2.745      5.173
REMARK  Name = 
REMARK  3 active torsions:
REMARK  status: ('A' for Active; 'I' for Inactive)
REMARK    1  A    between atoms: N_5  and  C_6
REMARK    2  A    between atoms: C_6  and  C_7
REMARK    3  A    between atoms: C_6  and  C_13
REMARK                            x       y       z     vdW  Elec       q    Type
REMARK                         _______ _______ _______ _____ _____    ______ ____
ROOT
ATOM      1  C   UNL     1     -11.753  13.578  67.136  0.00  0.00    +0.103 C 
ENDROOT
BRANCH   1   6
ATOM      2  C   UNL     1      -7.293  15.705  68.222  0.00  0.00    +0.090 C 
ATOM      3  N   UNL     1      -8.500  16.044  67.738  0.00  0.00    -0.269 NA
ATOM      4  C   UNL     1      -9.630  15.729  68.585  0.00  0.00    +0.090 C 
ATOM      5  C   UNL     1     -10.024  14.274  68.527  0.00  0.00    +0.090 C 
ATOM      6  N   UNL     1     -10.154  13.789  67.152  0.00  0.00    -0.264 NA
ATOM      7  C   UNL     1     -10.067  14.966  66.318  0.00  0.00    +0.090 C 
ATOM      8  C   UNL     1      -8.691  15.542  66.401  0.00  0.00    +0.090 C 
ENDBRANCH   1   6
BRANCH   1   9
ATOM      9  C   UNL     1     -11.681  12.481  68.357  0.00  0.00    -0.004 A 
ATOM     10  C   UNL     1     -11.260  11.244  68.049  0.00  0.00    -0.002 A 
ATOM     11  C   UNL     1     -11.247  10.338  69.106  0.00  0.00    +0.011 A 
ATOM     12  C   UNL     1     -11.810  10.669  70.334  0.00  0.00    +0.058 A 
ATOM     13 CL   UNL     1     -11.656   9.488  71.619  0.00  0.00    -0.082 Cl
ATOM     14  C   UNL     1     -12.194  11.984  70.573  0.00  0.00    +0.011 A 
ATOM     15  C   UNL     1     -12.207  12.916  69.540  0.00  0.00    -0.002 A 
ENDBRANCH   1   9
BRANCH   1  16
ATOM     16  C   UNL     1     -11.645  12.426  65.953  0.00  0.00    -0.004 A 
ATOM     17  C   UNL     1     -10.331  12.305  65.498  0.00  0.00    -0.003 A 
ATOM     18  C   UNL     1     -10.150  11.597  64.320  0.00  0.00    -0.000 A 
ATOM     19  C   UNL     1     -11.059  11.801  63.288  0.00  0.00    -0.000 A 
ATOM     20  C   UNL     1     -12.189  12.553  63.583  0.00  0.00    -0.000 A 
ATOM     21  C   UNL     1     -12.545  12.676  64.918  0.00  0.00    -0.003 A 
ENDBRANCH   1  16
TORSDOF 3
ENDMDL
MODEL 8
REMARK VINA RESULT:      -5.6      2.708      4.835
REMARK  Name = 
REMARK  3 active torsions:
REMARK  status: ('A' for Active; 'I' for Inactive)
REMARK    1  A    between atoms: N_5  and  C_6
REMARK    2  A    between atoms: C_6  and  C_7
REMARK    3  A    between atoms: C_6  and  C_13
REMARK                            x       y       z     vdW  Elec       q    Type
REMARK                         _______ _______ _______ _____ _____    ______ ____
ROOT
ATOM      1  C   UNL     1     -11.431  15.279  67.055  0.00  0.00    +0.103 C 
ENDROOT
BRANCH   1   6
ATOM      2  C   UNL     1     -10.471  11.472  63.865  0.00  0.00    +0.090 C 
ATOM      3  N   UNL     1     -11.506  12.024  64.521  0.00  0.00    -0.269 NA
ATOM      4  C   UNL     1     -11.730  13.432  64.275  0.00  0.00    +0.090 C 
ATOM      5  C   UNL     1     -10.780  14.323  65.037  0.00  0.00    +0.090 C 
ATOM      6  N   UNL     1     -10.707  13.969  66.456  0.00  0.00    -0.264 NA
ATOM      7  C   UNL     1     -11.761  13.003  66.667  0.00  0.00    +0.090 C 
ATOM      8  C   UNL     1     -11.445  11.742  65.933  0.00  0.00    +0.090 C 
ENDBRANCH   1   6
BRANCH   1   9
ATOM      9  C   UNL     1     -10.062  16.176  66.909  0.00  0.00    -0.004 A 
ATOM     10  C   UNL     1     -10.205  17.462  66.550  0.00  0.00    -0.002 A 
ATOM     11  C   UNL     1      -9.018  18.175  66.404  0.00  0.00    +0.011 A 
ATOM     12  C   UNL     1      -7.788  17.527  66.450  0.00  0.00    +0.058 A 
ATOM     13 CL   UNL     1      -6.358  18.535  66.346  0.00  0.00    -0.082 Cl
ATOM     14  C   UNL     1      -7.734  16.200  66.858  0.00  0.00    +0.011 A 
ATOM     15  C   UNL     1      -8.903  15.463  67.025  0.00  0.00    -0.002 A 
ENDBRANCH   1   9
BRANCH   1  16
ATOM     16  C   UNL     1     -11.092  14.824  68.609  0.00  0.00    -0.004 A 
ATOM     17  C   UNL     1     -12.055  13.934  69.085  0.00  0.00    -0.003 A 
ATOM     18  C   UNL     1     -12.059  13.704  70.453  0.00  0.00    -0.000 A 
ATOM     19  C   UNL     1     -11.866  14.789  71.300  0.00  0.00    -0.000 A 
ATOM     20  C   UNL     1     -11.493  15.991  70.710  0.00  0.00    -0.000 A 
ATOM     21  C   UNL     1     -10.937  15.934  69.440  0.00  0.00    -0.003 A 
ENDBRANCH   1  16
TORSDOF 3
ENDMDL
MODEL 9
REMARK VINA RESULT:      -5.5      1.968      4.637
REMARK  Name = 
REMARK  3 active torsions:
REMARK  status: ('A' for Active; 'I' for Inactive)
REMARK    1  A    between atoms: N_5  and  C_6
REMARK    2  A    between atoms: C_6  and  C_7
REMARK    3  A    between atoms: C_6  and  C_13
REMARK                            x       y       z     vdW  Elec       q    Type
REMARK                         _______ _______ _______ _____ _____    ______ ____
ROOT
ATOM      1  C   UNL     1     -11.714  15.491  68.418  0.00  0.00    +0.103 C 
ENDROOT
BRANCH   1   6
ATOM      2  C   UNL     1     -12.880  14.572  73.256  0.00  0.00    +0.090 C 
ATOM      3  N   UNL     1     -12.983  15.555  72.344  0.00  0.00    -0.269 NA
ATOM      4  C   UNL     1     -13.676  15.212  71.122  0.00  0.00    +0.090 C 
ATOM      5  C   UNL     1     -12.823  14.421  70.161  0.00  0.00    +0.090 C 
ATOM      6  N   UNL     1     -11.510  15.034  69.952  0.00  0.00    -0.264 NA
ATOM      7  C   UNL     1     -11.582  16.328  70.591  0.00  0.00    +0.090 C 
ATOM      8  C   UNL     1     -11.701  16.154  72.070  0.00  0.00    +0.090 C 
ENDBRANCH   1   6
BRANCH   1   9
ATOM      9  C   UNL     1     -11.310  13.999  67.858  0.00  0.00    -0.004 A 
ATOM     10  C   UNL     1     -11.988  13.538  66.796  0.00  0.00    -0.002 A 
ATOM     11  C   UNL     1     -11.637  12.257  66.376  0.00  0.00    +0.011 A 
ATOM     12  C   UNL     1     -10.778  11.470  67.135  0.00  0.00    +0.058 A 
ATOM     13 CL   UNL     1     -10.334   9.912  66.466  0.00  0.00    -0.082 Cl
ATOM     14  C   UNL     1     -10.098  12.041  68.204  0.00  0.00    +0.011 A 
ATOM     15  C   UNL     1     -10.416  13.324  68.640  0.00  0.00    -0.002 A 
ENDBRANCH   1   9
BRANCH   1  16
ATOM     16  C   UNL     1     -10.164  16.061  68.324  0.00  0.00    -0.004 A 
ATOM     17  C   UNL     1     -10.135  17.446  68.493  0.00  0.00    -0.003 A 
ATOM     18  C   UNL     1      -8.954  18.085  68.149  0.00  0.00    -0.000 A 
ATOM     19  C   UNL     1      -8.299  17.672  66.993  0.00  0.00    -0.000 A 
ATOM     20  C   UNL     1      -8.777  16.523  66.375  0.00  0.00    -0.000 A 
ATOM     21  C   UNL     1      -9.547  15.658  67.140  0.00  0.00    -0.003 A 
ENDBRANCH   1  16
TORSDOF 3
ENDMDL
