MODEL 1
REMARK VINA RESULT:      -7.5      0.000      0.000
REMARK  Name = 
REMARK  9 active torsions:
REMARK  status: ('A' for Active; 'I' for Inactive)
REMARK    1  A    between atoms: C_2  and  C_11
REMARK    2  A    between atoms: N_3  and  C_4
REMARK    3  A    between atoms: C_4  and  C_5
REMARK    4  A    between atoms: C_13  and  O_14
REMARK    5  A    between atoms: O_14  and  C_15
REMARK    6  A    between atoms: C_15  and  C_16
REMARK    7  A    between atoms: C_22  and  O_23
REMARK    8  A    between atoms: O_23  and  C_24
REMARK    9  A    between atoms: C_24  and  C_25
REMARK                            x       y       z     vdW  Elec       q    Type
REMARK                         _______ _______ _______ _____ _____    ______ ____
ROOT
ATOM      1  C   UNL     1     -11.468  13.465  68.442  0.00  0.00    +0.092 A 
ATOM      2  C   UNL     1     -11.682  12.100  68.497  0.00  0.00    +0.144 A 
ATOM      3  C   UNL     1     -11.997  11.531  69.701  0.00  0.00    +0.040 A 
ATOM      4  C   UNL     1     -12.368  12.341  70.743  0.00  0.00    +0.040 A 
ATOM      5  C   UNL     1     -12.538  13.688  70.570  0.00  0.00    +0.139 A 
ATOM      6  C   UNL     1     -12.100  14.256  69.387  0.00  0.00    +0.045 A 
ENDROOT
BRANCH   1   8
ATOM      7  O   UNL     1     -12.440  14.184  66.513  0.00  0.00    -0.268 OA
ATOM      8  C   UNL     1     -11.367  14.019  67.085  0.00  0.00    +0.268 C 
ATOM      9  N   UNL     1     -10.421  15.085  66.933  0.00  0.00    -0.200 NA
BRANCH   9  10
ATOM     10  C   UNL     1     -10.483  16.037  65.847  0.00  0.00    +0.133 C 
BRANCH  10  11
ATOM     11  C   UNL     1      -9.604  17.299  66.450  0.00  0.00    +0.094 C 
ATOM     12  N   UNL     1     -10.511  18.357  65.702  0.00  0.00    -0.218 NA
ATOM     13  C   UNL     1     -10.088  19.641  66.172  0.00  0.00    +0.089 C 
ATOM     14  C   UNL     1      -9.584  19.695  67.559  0.00  0.00    +0.019 C 
ATOM     15  C   UNL     1      -9.985  18.599  68.471  0.00  0.00    +0.003 C 
ATOM     16  C   UNL     1     -10.542  17.379  67.806  0.00  0.00    +0.019 C 
ENDBRANCH  10  11
ENDBRANCH   9  10
ENDBRANCH   1   8
BRANCH   2  17
ATOM     17  O   UNL     1     -11.777  11.324  67.339  0.00  0.00    -0.466 OA
BRANCH  17  18
ATOM     18  C   UNL     1     -10.697  10.473  67.029  0.00  0.00    +0.308 C 
BRANCH  18  19
ATOM     19  C   UNL     1     -10.254  10.748  65.610  0.00  0.00    +0.438 C 
ATOM     20  F   UNL     1     -10.047   9.509  65.014  0.00  0.00    -0.166 F 
ATOM     21  F   UNL     1      -9.061  11.427  65.616  0.00  0.00    -0.166 F 
ATOM     22  F   UNL     1     -11.225  11.456  64.912  0.00  0.00    -0.166 F 
ENDBRANCH  18  19
ENDBRANCH  17  18
ENDBRANCH   2  17
BRANCH   5  23
ATOM     23  O   UNL     1     -13.304  14.380  71.498  0.00  0.00    -0.467 OA
BRANCH  23  24
ATOM     24  C   UNL     1     -13.012  14.281  72.873  0.00  0.00    +0.308 C 
BRANCH  24  25
ATOM     25  C   UNL     1     -12.888  15.678  73.425  0.00  0.00    +0.438 C 
ATOM     26  F   UNL     1     -11.830  16.372  72.861  0.00  0.00    -0.166 F 
ATOM     27  F   UNL     1     -14.081  16.332  73.241  0.00  0.00    -0.166 F 
ATOM     28  F   UNL     1     -12.609  15.614  74.786  0.00  0.00    -0.166 F 
ENDBRANCH  24  25
ENDBRANCH  23  24
ENDBRANCH   5  23
TORSDOF 9
ENDMDL
MODEL 2
REMARK VINA RESULT:      -7.4      2.476      3.459
REMARK  Name = 
REMARK  9 active torsions:
REMARK  status: ('A' for Active; 'I' for Inactive)
REMARK    1  A    between atoms: C_2  and  C_11
REMARK    2  A    between atoms: N_3  and  C_4
REMARK    3  A    between atoms: C_4  and  C_5
REMARK    4  A    between atoms: C_13  and  O_14
REMARK    5  A    between atoms: O_14  and  C_15
REMARK    6  A    between atoms: C_15  and  C_16
REMARK    7  A    between atoms: C_22  and  O_23
REMARK    8  A    between atoms: O_23  and  C_24
REMARK    9  A    between atoms: C_24  and  C_25
REMARK                            x       y       z     vdW  Elec       q    Type
REMARK                         _______ _______ _______ _____ _____    ______ ____
ROOT
ATOM      1  C   UNL     1     -10.584  16.386  67.989  0.00  0.00    +0.092 A 
ATOM      2  C   UNL     1     -10.923  15.242  67.289  0.00  0.00    +0.144 A 
ATOM      3  C   UNL     1     -11.389  14.160  67.983  0.00  0.00    +0.040 A 
ATOM      4  C   UNL     1     -11.773  14.321  69.289  0.00  0.00    +0.040 A 
ATOM      5  C   UNL     1     -11.807  15.559  69.871  0.00  0.00    +0.139 A 
ATOM      6  C   UNL     1     -11.221  16.616  69.198  0.00  0.00    +0.045 A 
ENDROOT
BRANCH   1   8
ATOM      7  O   UNL     1     -10.997  18.551  67.422  0.00  0.00    -0.268 OA
ATOM      8  C   UNL     1     -10.318  17.565  67.153  0.00  0.00    +0.268 C 
ATOM      9  N   UNL     1      -8.934  17.825  66.892  0.00  0.00    -0.200 NA
BRANCH   9  10
ATOM     10  C   UNL     1      -8.442  19.126  66.497  0.00  0.00    +0.133 C 
BRANCH  10  11
ATOM     11  C   UNL     1      -6.998  19.202  67.293  0.00  0.00    +0.094 C 
ATOM     12  N   UNL     1      -6.857  20.750  66.998  0.00  0.00    -0.218 NA
ATOM     13  C   UNL     1      -5.713  21.189  67.739  0.00  0.00    +0.089 C 
ATOM     14  C   UNL     1      -5.439  20.475  69.002  0.00  0.00    +0.019 C 
ATOM     15  C   UNL     1      -6.565  19.741  69.626  0.00  0.00    +0.003 C 
ATOM     16  C   UNL     1      -7.743  19.493  68.736  0.00  0.00    +0.019 C 
ENDBRANCH  10  11
ENDBRANCH   9  10
ENDBRANCH   1   8
BRANCH   2  17
ATOM     17  O   UNL     1     -10.988  15.228  65.893  0.00  0.00    -0.466 OA
BRANCH  17  18
ATOM     18  C   UNL     1     -10.851  13.985  65.243  0.00  0.00    +0.308 C 
BRANCH  18  19
ATOM     19  C   UNL     1     -12.105  13.714  64.445  0.00  0.00    +0.438 C 
ATOM     20  F   UNL     1     -12.651  14.955  64.134  0.00  0.00    -0.166 F 
ATOM     21  F   UNL     1     -13.011  13.029  65.216  0.00  0.00    -0.166 F 
ATOM     22  F   UNL     1     -11.816  13.015  63.280  0.00  0.00    -0.166 F 
ENDBRANCH  18  19
ENDBRANCH  17  18
ENDBRANCH   2  17
BRANCH   5  23
ATOM     23  O   UNL     1     -12.585  15.731  71.008  0.00  0.00    -0.467 OA
BRANCH  23  24
ATOM     24  C   UNL     1     -11.973  15.941  72.260  0.00  0.00    +0.308 C 
BRANCH  24  25
ATOM     25  C   UNL     1     -12.960  15.553  73.332  0.00  0.00    +0.438 C 
ATOM     26  F   UNL     1     -12.485  15.824  74.604  0.00  0.00    -0.166 F 
ATOM     27  F   UNL     1     -14.151  16.192  73.087  0.00  0.00    -0.166 F 
ATOM     28  F   UNL     1     -13.166  14.178  73.295  0.00  0.00    -0.166 F 
ENDBRANCH  24  25
ENDBRANCH  23  24
ENDBRANCH   5  23
TORSDOF 9
ENDMDL
MODEL 3
REMARK VINA RESULT:      -7.4      3.918      8.968
REMARK  Name = 
REMARK  9 active torsions:
REMARK  status: ('A' for Active; 'I' for Inactive)
REMARK    1  A    between atoms: C_2  and  C_11
REMARK    2  A    between atoms: N_3  and  C_4
REMARK    3  A    between atoms: C_4  and  C_5
REMARK    4  A    between atoms: C_13  and  O_14
REMARK    5  A    between atoms: O_14  and  C_15
REMARK    6  A    between atoms: C_15  and  C_16
REMARK    7  A    between atoms: C_22  and  O_23
REMARK    8  A    between atoms: O_23  and  C_24
REMARK    9  A    between atoms: C_24  and  C_25
REMARK                            x       y       z     vdW  Elec       q    Type
REMARK                         _______ _______ _______ _____ _____    ______ ____
ROOT
ATOM      1  C   UNL     1     -11.959  11.442  70.297  0.00  0.00    +0.092 A 
ATOM      2  C   UNL     1     -12.289  12.750  70.603  0.00  0.00    +0.144 A 
ATOM      3  C   UNL     1     -12.015  13.729  69.689  0.00  0.00    +0.040 A 
ATOM      4  C   UNL     1     -11.690  13.372  68.406  0.00  0.00    +0.040 A 
ATOM      5  C   UNL     1     -11.748  12.066  67.998  0.00  0.00    +0.139 A 
ATOM      6  C   UNL     1     -11.908  11.085  68.959  0.00  0.00    +0.045 A 
ENDROOT
BRANCH   1   8
ATOM      7  O   UNL     1     -13.579   9.962  70.899  0.00  0.00    -0.268 OA
ATOM      8  C   UNL     1     -12.496  10.436  71.224  0.00  0.00    +0.268 C 
ATOM      9  N   UNL     1     -11.537   9.494  71.719  0.00  0.00    -0.200 NA
BRANCH   9  10
ATOM     10  C   UNL     1     -11.911   8.205  72.256  0.00  0.00    +0.133 C 
BRANCH  10  11
ATOM     11  C   UNL     1     -10.731   7.225  71.644  0.00  0.00    +0.094 C 
ATOM     12  N   UNL     1     -11.197   6.011  72.547  0.00  0.00    -0.218 NA
ATOM     13  C   UNL     1     -10.431   4.883  72.115  0.00  0.00    +0.089 C 
ATOM     14  C   UNL     1     -10.047   4.860  70.689  0.00  0.00    +0.019 C 
ATOM     15  C   UNL     1     -10.844   5.692  69.757  0.00  0.00    +0.003 C 
ATOM     16  C   UNL     1     -11.701   6.737  70.400  0.00  0.00    +0.019 C 
ENDBRANCH  10  11
ENDBRANCH   9  10
ENDBRANCH   1   8
BRANCH   2  17
ATOM     17  O   UNL     1     -13.065  13.068  71.721  0.00  0.00    -0.466 OA
BRANCH  17  18
ATOM     18  C   UNL     1     -13.771  14.288  71.704  0.00  0.00    +0.308 C 
BRANCH  18  19
ATOM     19  C   UNL     1     -13.187  15.201  72.756  0.00  0.00    +0.438 C 
ATOM     20  F   UNL     1     -12.101  15.838  72.167  0.00  0.00    -0.166 F 
ATOM     21  F   UNL     1     -12.727  14.460  73.817  0.00  0.00    -0.166 F 
ATOM     22  F   UNL     1     -14.121  16.142  73.175  0.00  0.00    -0.166 F 
ENDBRANCH  18  19
ENDBRANCH  17  18
ENDBRANCH   2  17
BRANCH   5  23
ATOM     23  O   UNL     1     -11.833  11.806  66.636  0.00  0.00    -0.467 OA
BRANCH  23  24
ATOM     24  C   UNL     1     -11.323  12.732  65.705  0.00  0.00    +0.308 C 
BRANCH  24  25
ATOM     25  C   UNL     1     -12.467  13.203  64.843  0.00  0.00    +0.438 C 
ATOM     26  F   UNL     1     -12.032  13.923  63.742  0.00  0.00    -0.166 F 
ATOM     27  F   UNL     1     -13.219  12.115  64.473  0.00  0.00    -0.166 F 
ATOM     28  F   UNL     1     -13.264  14.080  65.571  0.00  0.00    -0.166 F 
ENDBRANCH  24  25
ENDBRANCH  23  24
ENDBRANCH   5  23
TORSDOF 9
ENDMDL
MODEL 4
REMARK VINA RESULT:      -7.3      3.163      6.470
REMARK  Name = 
REMARK  9 active torsions:
REMARK  status: ('A' for Active; 'I' for Inactive)
REMARK    1  A    between atoms: C_2  and  C_11
REMARK    2  A    between atoms: N_3  and  C_4
REMARK    3  A    between atoms: C_4  and  C_5
REMARK    4  A    between atoms: C_13  and  O_14
REMARK    5  A    between atoms: O_14  and  C_15
REMARK    6  A    between atoms: C_15  and  C_16
REMARK    7  A    between atoms: C_22  and  O_23
REMARK    8  A    between atoms: O_23  and  C_24
REMARK    9  A    between atoms: C_24  and  C_25
REMARK                            x       y       z     vdW  Elec       q    Type
REMARK                         _______ _______ _______ _____ _____    ______ ____
ROOT
ATOM      1  C   UNL     1     -12.232  13.743  69.716  0.00  0.00    +0.092 A 
ATOM      2  C   UNL     1     -12.779  14.158  70.917  0.00  0.00    +0.144 A 
ATOM      3  C   UNL     1     -13.300  13.218  71.762  0.00  0.00    +0.040 A 
ATOM      4  C   UNL     1     -13.020  11.894  71.541  0.00  0.00    +0.040 A 
ATOM      5  C   UNL     1     -12.142  11.508  70.564  0.00  0.00    +0.139 A 
ATOM      6  C   UNL     1     -11.723  12.456  69.648  0.00  0.00    +0.045 A 
ENDROOT
BRANCH   1   8
ATOM      7  O   UNL     1     -10.328  14.929  69.334  0.00  0.00    -0.268 OA
ATOM      8  C   UNL     1     -11.494  14.780  68.982  0.00  0.00    +0.268 C 
ATOM      9  N   UNL     1     -11.715  14.797  67.567  0.00  0.00    -0.200 NA
BRANCH   9  10
ATOM     10  C   UNL     1     -10.789  15.404  66.637  0.00  0.00    +0.133 C 
BRANCH  10  11
ATOM     11  C   UNL     1     -10.863  14.366  65.355  0.00  0.00    +0.094 C 
ATOM     12  N   UNL     1     -10.094  13.238  66.155  0.00  0.00    -0.218 NA
ATOM     13  C   UNL     1     -10.136  12.071  65.328  0.00  0.00    +0.089 C 
ATOM     14  C   UNL     1     -11.326  11.923  64.466  0.00  0.00    +0.019 C 
ATOM     15  C   UNL     1     -12.542  12.678  64.851  0.00  0.00    +0.003 C 
ATOM     16  C   UNL     1     -12.329  13.780  65.841  0.00  0.00    +0.019 C 
ENDBRANCH  10  11
ENDBRANCH   9  10
ENDBRANCH   1   8
BRANCH   2  17
ATOM     17  O   UNL     1     -12.637  15.472  71.372  0.00  0.00    -0.466 OA
BRANCH  17  18
ATOM     18  C   UNL     1     -11.772  15.698  72.462  0.00  0.00    +0.308 C 
BRANCH  18  19
ATOM     19  C   UNL     1     -12.603  16.024  73.681  0.00  0.00    +0.438 C 
ATOM     20  F   UNL     1     -12.071  17.190  74.221  0.00  0.00    -0.166 F 
ATOM     21  F   UNL     1     -12.479  15.024  74.614  0.00  0.00    -0.166 F 
ATOM     22  F   UNL     1     -13.935  16.222  73.340  0.00  0.00    -0.166 F 
ENDBRANCH  18  19
ENDBRANCH  17  18
ENDBRANCH   2  17
BRANCH   5  23
ATOM     23  O   UNL     1     -11.573  10.245  70.652  0.00  0.00    -0.467 OA
BRANCH  23  24
ATOM     24  C   UNL     1     -12.117   9.282  71.526  0.00  0.00    +0.308 C 
BRANCH  24  25
ATOM     25  C   UNL     1     -11.002   8.366  71.962  0.00  0.00    +0.438 C 
ATOM     26  F   UNL     1     -10.880   7.260  71.138  0.00  0.00    -0.166 F 
ATOM     27  F   UNL     1      -9.836   9.088  72.021  0.00  0.00    -0.166 F 
ATOM     28  F   UNL     1     -11.288   7.861  73.226  0.00  0.00    -0.166 F 
ENDBRANCH  24  25
ENDBRANCH  23  24
ENDBRANCH   5  23
TORSDOF 9
ENDMDL
MODEL 5
REMARK VINA RESULT:      -7.1      2.416      3.401
REMARK  Name = 
REMARK  9 active torsions:
REMARK  status: ('A' for Active; 'I' for Inactive)
REMARK    1  A    between atoms: C_2  and  C_11
REMARK    2  A    between atoms: N_3  and  C_4
REMARK    3  A    between atoms: C_4  and  C_5
REMARK    4  A    between atoms: C_13  and  O_14
REMARK    5  A    between atoms: O_14  and  C_15
REMARK    6  A    between atoms: C_15  and  C_16
REMARK    7  A    between atoms: C_22  and  O_23
REMARK    8  A    between atoms: O_23  and  C_24
REMARK    9  A    between atoms: C_24  and  C_25
REMARK                            x       y       z     vdW  Elec       q    Type
REMARK                         _______ _______ _______ _____ _____    ______ ____
ROOT
ATOM      1  C   UNL     1     -10.124  15.980  67.431  0.00  0.00    +0.092 A 
ATOM      2  C   UNL     1     -10.410  14.727  66.918  0.00  0.00    +0.144 A 
ATOM      3  C   UNL     1     -11.036  13.815  67.722  0.00  0.00    +0.040 A 
ATOM      4  C   UNL     1     -11.610  14.240  68.892  0.00  0.00    +0.040 A 
ATOM      5  C   UNL     1     -11.668  15.570  69.212  0.00  0.00    +0.139 A 
ATOM      6  C   UNL     1     -10.928  16.459  68.453  0.00  0.00    +0.045 A 
ENDROOT
BRANCH   1   8
ATOM      7  O   UNL     1     -10.536  17.360  65.670  0.00  0.00    -0.268 OA
ATOM      8  C   UNL     1      -9.668  16.964  66.440  0.00  0.00    +0.268 C 
ATOM      9  N   UNL     1      -8.789  17.975  66.947  0.00  0.00    -0.200 NA
BRANCH   9  10
ATOM     10  C   UNL     1      -8.593  19.246  66.286  0.00  0.00    +0.133 C 
BRANCH  10  11
ATOM     11  C   UNL     1      -7.892  20.147  67.479  0.00  0.00    +0.094 C 
ATOM     12  N   UNL     1      -7.112  18.891  68.042  0.00  0.00    -0.218 NA
ATOM     13  C   UNL     1      -6.228  19.395  69.049  0.00  0.00    +0.089 C 
ATOM     14  C   UNL     1      -5.718  20.765  68.843  0.00  0.00    +0.019 C 
ATOM     15  C   UNL     1      -5.750  21.302  67.462  0.00  0.00    +0.003 C 
ATOM     16  C   UNL     1      -6.625  20.558  66.503  0.00  0.00    +0.019 C 
ENDBRANCH  10  11
ENDBRANCH   9  10
ENDBRANCH   1   8
BRANCH   2  17
ATOM     17  O   UNL     1     -10.257  14.439  65.560  0.00  0.00    -0.466 OA
BRANCH  17  18
ATOM     18  C   UNL     1     -10.716  13.187  65.100  0.00  0.00    +0.308 C 
BRANCH  18  19
ATOM     19  C   UNL     1     -12.008  13.392  64.344  0.00  0.00    +0.438 C 
ATOM     20  F   UNL     1     -11.823  12.829  63.087  0.00  0.00    -0.166 F 
ATOM     21  F   UNL     1     -12.248  14.735  64.182  0.00  0.00    -0.166 F 
ATOM     22  F   UNL     1     -13.070  12.773  64.993  0.00  0.00    -0.166 F 
ENDBRANCH  18  19
ENDBRANCH  17  18
ENDBRANCH   2  17
BRANCH   5  23
ATOM     23  O   UNL     1     -12.603  15.981  70.152  0.00  0.00    -0.467 OA
BRANCH  23  24
ATOM     24  C   UNL     1     -13.165  15.049  71.047  0.00  0.00    +0.308 C 
BRANCH  24  25
ATOM     25  C   UNL     1     -13.013  15.594  72.444  0.00  0.00    +0.438 C 
ATOM     26  F   UNL     1     -11.968  16.498  72.543  0.00  0.00    -0.166 F 
ATOM     27  F   UNL     1     -14.207  16.152  72.832  0.00  0.00    -0.166 F 
ATOM     28  F   UNL     1     -12.693  14.556  73.313  0.00  0.00    -0.166 F 
ENDBRANCH  24  25
ENDBRANCH  23  24
ENDBRANCH   5  23
TORSDOF 9
ENDMDL
MODEL 6
REMARK VINA RESULT:      -7.1      3.099      5.626
REMARK  Name = 
REMARK  9 active torsions:
REMARK  status: ('A' for Active; 'I' for Inactive)
REMARK    1  A    between atoms: C_2  and  C_11
REMARK    2  A    between atoms: N_3  and  C_4
REMARK    3  A    between atoms: C_4  and  C_5
REMARK    4  A    between atoms: C_13  and  O_14
REMARK    5  A    between atoms: O_14  and  C_15
REMARK    6  A    between atoms: C_15  and  C_16
REMARK    7  A    between atoms: C_22  and  O_23
REMARK    8  A    between atoms: O_23  and  C_24
REMARK    9  A    between atoms: C_24  and  C_25
REMARK                            x       y       z     vdW  Elec       q    Type
REMARK                         _______ _______ _______ _____ _____    ______ ____
ROOT
ATOM      1  C   UNL     1     -11.406  14.560  67.603  0.00  0.00    +0.092 A 
ATOM      2  C   UNL     1     -11.212  14.322  66.254  0.00  0.00    +0.144 A 
ATOM      3  C   UNL     1     -10.777  15.349  65.461  0.00  0.00    +0.040 A 
ATOM      4  C   UNL     1     -10.280  16.482  66.050  0.00  0.00    +0.040 A 
ATOM      5  C   UNL     1     -10.106  16.559  67.406  0.00  0.00    +0.139 A 
ATOM      6  C   UNL     1     -10.660  15.567  68.195  0.00  0.00    +0.045 A 
ENDROOT
BRANCH   1   8
ATOM      7  O   UNL     1     -10.700  12.580  68.473  0.00  0.00    -0.268 OA
ATOM      8  C   UNL     1     -11.646  13.359  68.413  0.00  0.00    +0.268 C 
ATOM      9  N   UNL     1     -12.332  13.587  69.650  0.00  0.00    -0.200 NA
BRANCH   9  10
ATOM     10  C   UNL     1     -12.271  12.665  70.761  0.00  0.00    +0.133 C 
BRANCH  10  11
ATOM     11  C   UNL     1     -12.770  13.612  72.019  0.00  0.00    +0.094 C 
ATOM     12  N   UNL     1     -11.731  14.745  71.647  0.00  0.00    -0.218 NA
ATOM     13  C   UNL     1     -12.032  15.851  72.503  0.00  0.00    +0.089 C 
ATOM     14  C   UNL     1     -13.447  16.008  72.895  0.00  0.00    +0.019 C 
ATOM     15  C   UNL     1     -14.466  15.357  72.039  0.00  0.00    +0.003 C 
ATOM     16  C   UNL     1     -13.945  14.316  71.097  0.00  0.00    +0.019 C 
ENDBRANCH  10  11
ENDBRANCH   9  10
ENDBRANCH   1   8
BRANCH   2  17
ATOM     17  O   UNL     1     -11.258  13.031  65.723  0.00  0.00    -0.466 OA
BRANCH  17  18
ATOM     18  C   UNL     1     -12.425  12.647  65.032  0.00  0.00    +0.308 C 
BRANCH  18  19
ATOM     19  C   UNL     1     -12.111  12.570  63.556  0.00  0.00    +0.438 C 
ATOM     20  F   UNL     1     -12.879  11.530  63.043  0.00  0.00    -0.166 F 
ATOM     21  F   UNL     1     -10.787  12.255  63.374  0.00  0.00    -0.166 F 
ATOM     22  F   UNL     1     -12.430  13.760  62.914  0.00  0.00    -0.166 F 
ENDBRANCH  18  19
ENDBRANCH  17  18
ENDBRANCH   2  17
BRANCH   5  23
ATOM     23  O   UNL     1      -9.230  17.514  67.904  0.00  0.00    -0.467 OA
BRANCH  23  24
ATOM     24  C   UNL     1      -9.028  18.722  67.207  0.00  0.00    +0.308 C 
BRANCH  24  25
ATOM     25  C   UNL     1     -10.007  19.737  67.739  0.00  0.00    +0.438 C 
ATOM     26  F   UNL     1     -11.274  19.573  67.204  0.00  0.00    -0.166 F 
ATOM     27  F   UNL     1     -10.020  19.660  69.111  0.00  0.00    -0.166 F 
ATOM     28  F   UNL     1      -9.603  21.013  67.360  0.00  0.00    -0.166 F 
ENDBRANCH  24  25
ENDBRANCH  23  24
ENDBRANCH   5  23
TORSDOF 9
ENDMDL
MODEL 7
REMARK VINA RESULT:      -7.1      3.163      6.777
REMARK  Name = 
REMARK  9 active torsions:
REMARK  status: ('A' for Active; 'I' for Inactive)
REMARK    1  A    between atoms: C_2  and  C_11
REMARK    2  A    between atoms: N_3  and  C_4
REMARK    3  A    between atoms: C_4  and  C_5
REMARK    4  A    between atoms: C_13  and  O_14
REMARK    5  A    between atoms: O_14  and  C_15
REMARK    6  A    between atoms: C_15  and  C_16
REMARK    7  A    between atoms: C_22  and  O_23
REMARK    8  A    between atoms: O_23  and  C_24
REMARK    9  A    between atoms: C_24  and  C_25
REMARK                            x       y       z     vdW  Elec       q    Type
REMARK                         _______ _______ _______ _____ _____    ______ ____
ROOT
ATOM      1  C   UNL     1     -11.955  12.277  69.307  0.00  0.00    +0.092 A 
ATOM      2  C   UNL     1     -12.439  12.373  70.600  0.00  0.00    +0.144 A 
ATOM      3  C   UNL     1     -12.684  11.223  71.298  0.00  0.00    +0.040 A 
ATOM      4  C   UNL     1     -12.188  10.036  70.822  0.00  0.00    +0.040 A 
ATOM      5  C   UNL     1     -11.362   9.998  69.731  0.00  0.00    +0.139 A 
ATOM      6  C   UNL     1     -11.226  11.147  68.973  0.00  0.00    +0.045 A 
ENDROOT
BRANCH   1   8
ATOM      7  O   UNL     1     -10.428  13.956  69.145  0.00  0.00    -0.268 OA
ATOM      8  C   UNL     1     -11.503  13.546  68.721  0.00  0.00    +0.268 C 
ATOM      9  N   UNL     1     -11.689  13.661  67.305  0.00  0.00    -0.200 NA
BRANCH   9  10
ATOM     10  C   UNL     1     -10.938  14.589  66.490  0.00  0.00    +0.133 C 
BRANCH  10  11
ATOM     11  C   UNL     1     -10.880  13.800  65.040  0.00  0.00    +0.094 C 
ATOM     12  N   UNL     1     -10.199  12.532  65.697  0.00  0.00    -0.218 NA
ATOM     13  C   UNL     1     -10.157  11.533  64.674  0.00  0.00    +0.089 C 
ATOM     14  C   UNL     1     -11.251  11.566  63.682  0.00  0.00    +0.019 C 
ATOM     15  C   UNL     1     -12.499  12.263  64.071  0.00  0.00    +0.003 C 
ATOM     16  C   UNL     1     -12.388  13.166  65.260  0.00  0.00    +0.019 C 
ENDBRANCH  10  11
ENDBRANCH   9  10
ENDBRANCH   1   8
BRANCH   2  17
ATOM     17  O   UNL     1     -12.496  13.596  71.272  0.00  0.00    -0.466 OA
BRANCH  17  18
ATOM     18  C   UNL     1     -13.580  13.814  72.147  0.00  0.00    +0.308 C 
BRANCH  18  19
ATOM     19  C   UNL     1     -14.268  15.101  71.756  0.00  0.00    +0.438 C 
ATOM     20  F   UNL     1     -13.481  15.685  70.769  0.00  0.00    -0.166 F 
ATOM     21  F   UNL     1     -14.310  15.954  72.832  0.00  0.00    -0.166 F 
ATOM     22  F   UNL     1     -15.545  14.857  71.266  0.00  0.00    -0.166 F 
ENDBRANCH  18  19
ENDBRANCH  17  18
ENDBRANCH   2  17
BRANCH   5  23
ATOM     23  O   UNL     1     -10.563   8.878  69.549  0.00  0.00    -0.467 OA
BRANCH  23  24
ATOM     24  C   UNL     1     -10.502   7.882  70.545  0.00  0.00    +0.308 C 
BRANCH  24  25
ATOM     25  C   UNL     1     -11.280   6.686  70.055  0.00  0.00    +0.438 C 
ATOM     26  F   UNL     1     -12.584   6.683  70.522  0.00  0.00    -0.166 F 
ATOM     27  F   UNL     1     -11.230   6.660  68.683  0.00  0.00    -0.166 F 
ATOM     28  F   UNL     1     -10.701   5.524  70.553  0.00  0.00    -0.166 F 
ENDBRANCH  24  25
ENDBRANCH  23  24
ENDBRANCH   5  23
TORSDOF 9
ENDMDL
MODEL 8
REMARK VINA RESULT:      -6.9      3.984      6.725
REMARK  Name = 
REMARK  9 active torsions:
REMARK  status: ('A' for Active; 'I' for Inactive)
REMARK    1  A    between atoms: C_2  and  C_11
REMARK    2  A    between atoms: N_3  and  C_4
REMARK    3  A    between atoms: C_4  and  C_5
REMARK    4  A    between atoms: C_13  and  O_14
REMARK    5  A    between atoms: O_14  and  C_15
REMARK    6  A    between atoms: C_15  and  C_16
REMARK    7  A    between atoms: C_22  and  O_23
REMARK    8  A    between atoms: O_23  and  C_24
REMARK    9  A    between atoms: C_24  and  C_25
REMARK                            x       y       z     vdW  Elec       q    Type
REMARK                         _______ _______ _______ _____ _____    ______ ____
ROOT
ATOM      1  C   UNL     1     -11.983  11.358  69.908  0.00  0.00    +0.092 A 
ATOM      2  C   UNL     1     -12.701  11.848  70.984  0.00  0.00    +0.144 A 
ATOM      3  C   UNL     1     -13.176  10.966  71.915  0.00  0.00    +0.040 A 
ATOM      4  C   UNL     1     -12.700   9.681  71.919  0.00  0.00    +0.040 A 
ATOM      5  C   UNL     1     -11.682   9.299  71.087  0.00  0.00    +0.139 A 
ATOM      6  C   UNL     1     -11.302  10.163  70.077  0.00  0.00    +0.045 A 
ENDROOT
BRANCH   1   8
ATOM      7  O   UNL     1     -10.158  12.125  68.785  0.00  0.00    -0.268 OA
ATOM      8  C   UNL     1     -11.318  12.382  69.091  0.00  0.00    +0.268 C 
ATOM      9  N   UNL     1     -12.120  12.937  68.042  0.00  0.00    -0.200 NA
BRANCH   9  10
ATOM     10  C   UNL     1     -11.553  13.594  66.886  0.00  0.00    +0.133 C 
BRANCH  10  11
ATOM     11  C   UNL     1     -11.518  12.369  65.779  0.00  0.00    +0.094 C 
ATOM     12  N   UNL     1     -12.711  13.006  64.958  0.00  0.00    -0.218 NA
ATOM     13  C   UNL     1     -12.832  12.222  63.767  0.00  0.00    +0.089 C 
ATOM     14  C   UNL     1     -11.584  11.628  63.246  0.00  0.00    +0.019 C 
ATOM     15  C   UNL     1     -10.307  12.247  63.672  0.00  0.00    +0.003 C 
ATOM     16  C   UNL     1     -10.397  13.156  64.858  0.00  0.00    +0.019 C 
ENDBRANCH  10  11
ENDBRANCH   9  10
ENDBRANCH   1   8
BRANCH   2  17
ATOM     17  O   UNL     1     -12.785  13.218  71.246  0.00  0.00    -0.466 OA
BRANCH  17  18
ATOM     18  C   UNL     1     -13.740  13.648  72.190  0.00  0.00    +0.308 C 
BRANCH  18  19
ATOM     19  C   UNL     1     -14.294  14.981  71.747  0.00  0.00    +0.438 C 
ATOM     20  F   UNL     1     -13.455  15.442  70.739  0.00  0.00    -0.166 F 
ATOM     21  F   UNL     1     -14.246  15.877  72.787  0.00  0.00    -0.166 F 
ATOM     22  F   UNL     1     -15.590  14.849  71.265  0.00  0.00    -0.166 F 
ENDBRANCH  18  19
ENDBRANCH  17  18
ENDBRANCH   2  17
BRANCH   5  23
ATOM     23  O   UNL     1     -10.961   8.157  71.411  0.00  0.00    -0.467 OA
BRANCH  23  24
ATOM     24  C   UNL     1     -11.323   7.385  72.533  0.00  0.00    +0.308 C 
BRANCH  24  25
ATOM     25  C   UNL     1     -10.077   7.123  73.340  0.00  0.00    +0.438 C 
ATOM     26  F   UNL     1     -10.365   6.694  74.625  0.00  0.00    -0.166 F 
ATOM     27  F   UNL     1      -9.296   6.217  72.665  0.00  0.00    -0.166 F 
ATOM     28  F   UNL     1      -9.367   8.309  73.493  0.00  0.00    -0.166 F 
ENDBRANCH  24  25
ENDBRANCH  23  24
ENDBRANCH   5  23
TORSDOF 9
ENDMDL
MODEL 9
REMARK VINA RESULT:      -6.9      3.393      8.756
REMARK  Name = 
REMARK  9 active torsions:
REMARK  status: ('A' for Active; 'I' for Inactive)
REMARK    1  A    between atoms: C_2  and  C_11
REMARK    2  A    between atoms: N_3  and  C_4
REMARK    3  A    between atoms: C_4  and  C_5
REMARK    4  A    between atoms: C_13  and  O_14
REMARK    5  A    between atoms: O_14  and  C_15
REMARK    6  A    between atoms: C_15  and  C_16
REMARK    7  A    between atoms: C_22  and  O_23
REMARK    8  A    between atoms: O_23  and  C_24
REMARK    9  A    between atoms: C_24  and  C_25
REMARK                            x       y       z     vdW  Elec       q    Type
REMARK                         _______ _______ _______ _____ _____    ______ ____
ROOT
ATOM      1  C   UNL     1     -11.621  12.044  69.501  0.00  0.00    +0.092 A 
ATOM      2  C   UNL     1     -11.922  13.359  69.805  0.00  0.00    +0.144 A 
ATOM      3  C   UNL     1     -11.821  14.301  68.818  0.00  0.00    +0.040 A 
ATOM      4  C   UNL     1     -11.706  13.892  67.515  0.00  0.00    +0.040 A 
ATOM      5  C   UNL     1     -11.804  12.570  67.175  0.00  0.00    +0.139 A 
ATOM      6  C   UNL     1     -11.784  11.630  68.189  0.00  0.00    +0.045 A 
ENDROOT
BRANCH   1   8
ATOM      7  O   UNL     1     -13.150  10.714  70.537  0.00  0.00    -0.268 OA
ATOM      8  C   UNL     1     -11.977  11.073  70.545  0.00  0.00    +0.268 C 
ATOM      9  N   UNL     1     -11.018  10.030  70.757  0.00  0.00    -0.200 NA
BRANCH   9  10
ATOM     10  C   UNL     1     -11.356   8.770  71.381  0.00  0.00    +0.133 C 
BRANCH  10  11
ATOM     11  C   UNL     1     -10.217   7.758  70.747  0.00  0.00    +0.094 C 
ATOM     12  N   UNL     1     -11.250   6.562  70.663  0.00  0.00    -0.218 NA
ATOM     13  C   UNL     1     -10.578   5.511  69.961  0.00  0.00    +0.089 C 
ATOM     14  C   UNL     1      -9.588   5.929  68.949  0.00  0.00    +0.019 C 
ATOM     15  C   UNL     1      -9.705   7.305  68.411  0.00  0.00    +0.003 C 
ATOM     16  C   UNL     1     -10.568   8.235  69.206  0.00  0.00    +0.019 C 
ENDBRANCH  10  11
ENDBRANCH   9  10
ENDBRANCH   1   8
BRANCH   2  17
ATOM     17  O   UNL     1     -12.508  13.716  71.022  0.00  0.00    -0.466 OA
BRANCH  17  18
ATOM     18  C   UNL     1     -13.097  14.993  71.116  0.00  0.00    +0.308 C 
BRANCH  18  19
ATOM     19  C   UNL     1     -14.362  14.885  71.935  0.00  0.00    +0.438 C 
ATOM     20  F   UNL     1     -14.263  15.838  72.943  0.00  0.00    -0.166 F 
ATOM     21  F   UNL     1     -14.434  13.646  72.523  0.00  0.00    -0.166 F 
ATOM     22  F   UNL     1     -15.485  15.130  71.155  0.00  0.00    -0.166 F 
ENDBRANCH  18  19
ENDBRANCH  17  18
ENDBRANCH   2  17
BRANCH   5  23
ATOM     23  O   UNL     1     -12.108  12.249  65.859  0.00  0.00    -0.467 OA
BRANCH  23  24
ATOM     24  C   UNL     1     -11.325  12.764  64.806  0.00  0.00    +0.308 C 
BRANCH  24  25
ATOM     25  C   UNL     1     -11.226  11.705  63.738  0.00  0.00    +0.438 C 
ATOM     26  F   UNL     1     -12.446  11.459  63.129  0.00  0.00    -0.166 F 
ATOM     27  F   UNL     1     -10.270  12.084  62.827  0.00  0.00    -0.166 F 
ATOM     28  F   UNL     1     -10.848  10.498  64.317  0.00  0.00    -0.166 F 
ENDBRANCH  24  25
ENDBRANCH  23  24
ENDBRANCH   5  23
TORSDOF 9
ENDMDL
