MODEL 1
REMARK VINA RESULT:      -5.9      0.000      0.000
REMARK  Name = 
REMARK  4 active torsions:
REMARK  status: ('A' for Active; 'I' for Inactive)
REMARK    1  A    between atoms: N_4  and  CA_5
REMARK    2  A    between atoms: CA_5  and  CB_6
REMARK    3  A    between atoms: CA_5  and  C_14
REMARK    4  A    between atoms: CB_6  and  CG_7
REMARK                            x       y       z     vdW  Elec       q    Type
REMARK                         _______ _______ _______ _____ _____    ______ ____
ROOT
ATOM      1  CA  TYR A   1     -11.662  14.566  65.396  0.00  0.00    +0.202 C 
ENDROOT
BRANCH   1   4
ATOM      2  C   UNK A   0     -11.080  11.360  63.694  0.00  0.00    +0.096 C 
ATOM      3  C   UNK A   0     -11.472  12.606  63.819  0.00  0.00    +0.242 C 
ATOM      4  N   TYR A   1     -10.736  13.681  64.426  0.00  0.00    -0.195 NA
ATOM      5  O   UNK A   0     -12.473  13.011  63.153  0.00  0.00    -0.273 OA
ENDBRANCH   1   4
BRANCH   1   6
ATOM      6  C   TYR A   1     -10.944  15.969  64.939  0.00  0.00    +0.385 C 
ATOM      7  OXT TYR A   1     -11.610  16.644  63.949  0.00  0.00    -0.244 OA
ATOM      8  O   TYR A   1      -9.868  16.229  65.456  0.00  0.00    -0.244 OA
ENDBRANCH   1   6
BRANCH   1   9
ATOM      9  CB  TYR A   1     -10.601  14.354  66.677  0.00  0.00    +0.060 C 
BRANCH   9  10
ATOM     10  CG  TYR A   1     -11.442  13.642  67.690  0.00  0.00    -0.020 A 
ATOM     11  CD2 TYR A   1     -11.599  12.277  67.593  0.00  0.00    -0.001 A 
ATOM     12  CE2 TYR A   1     -11.661  11.491  68.736  0.00  0.00    +0.042 A 
ATOM     13  CZ  TYR A   1     -12.006  12.093  69.914  0.00  0.00    +0.196 A 
ATOM     14  OH  TYR A   1     -12.610  11.391  70.949  0.00  0.00    -0.287 OA
ATOM     15  CE1 TYR A   1     -11.984  13.461  70.000  0.00  0.00    +0.042 A 
ATOM     16  CD1 TYR A   1     -11.384  14.166  68.975  0.00  0.00    -0.001 A 
ENDBRANCH   9  10
ENDBRANCH   1   9
TORSDOF 4
ENDMDL
MODEL 2
REMARK VINA RESULT:      -5.9      1.062      1.331
REMARK  Name = 
REMARK  4 active torsions:
REMARK  status: ('A' for Active; 'I' for Inactive)
REMARK    1  A    between atoms: N_4  and  CA_5
REMARK    2  A    between atoms: CA_5  and  CB_6
REMARK    3  A    between atoms: CA_5  and  C_14
REMARK    4  A    between atoms: CB_6  and  CG_7
REMARK                            x       y       z     vdW  Elec       q    Type
REMARK                         _______ _______ _______ _____ _____    ______ ____
ROOT
ATOM      1  CA  TYR A   1     -11.670  14.657  65.468  0.00  0.00    +0.202 C 
ENDROOT
BRANCH   1   4
ATOM      2  C   UNK A   0     -11.151  11.422  63.801  0.00  0.00    +0.096 C 
ATOM      3  C   UNK A   0     -11.477  12.689  63.901  0.00  0.00    +0.242 C 
ATOM      4  N   TYR A   1     -10.727  13.718  64.567  0.00  0.00    -0.195 NA
ATOM      5  O   UNK A   0     -12.400  13.152  63.164  0.00  0.00    -0.273 OA
ENDBRANCH   1   4
BRANCH   1   6
ATOM      6  C   TYR A   1     -10.954  16.033  64.933  0.00  0.00    +0.385 C 
ATOM      7  OXT TYR A   1     -11.612  16.642  63.897  0.00  0.00    -0.244 OA
ATOM      8  O   TYR A   1      -9.884  16.329  65.445  0.00  0.00    -0.244 OA
ENDBRANCH   1   6
BRANCH   1   9
ATOM      9  CB  TYR A   1     -10.625  14.530  66.773  0.00  0.00    +0.060 C 
BRANCH   9  10
ATOM     10  CG  TYR A   1     -11.558  14.474  67.942  0.00  0.00    -0.020 A 
ATOM     11  CD2 TYR A   1     -11.801  13.262  68.549  0.00  0.00    -0.001 A 
ATOM     12  CE2 TYR A   1     -11.969  13.183  69.925  0.00  0.00    +0.042 A 
ATOM     13  CZ  TYR A   1     -12.328  14.319  70.596  0.00  0.00    +0.196 A 
ATOM     14  OH  TYR A   1     -13.026  14.274  71.796  0.00  0.00    -0.287 OA
ATOM     15  CE1 TYR A   1     -12.219  15.532  69.968  0.00  0.00    +0.042 A 
ATOM     16  CD1 TYR A   1     -11.526  15.585  68.775  0.00  0.00    -0.001 A 
ENDBRANCH   9  10
ENDBRANCH   1   9
TORSDOF 4
ENDMDL
MODEL 3
REMARK VINA RESULT:      -5.5      2.183      4.169
REMARK  Name = 
REMARK  4 active torsions:
REMARK  status: ('A' for Active; 'I' for Inactive)
REMARK    1  A    between atoms: N_4  and  CA_5
REMARK    2  A    between atoms: CA_5  and  CB_6
REMARK    3  A    between atoms: CA_5  and  C_14
REMARK    4  A    between atoms: CB_6  and  CG_7
REMARK                            x       y       z     vdW  Elec       q    Type
REMARK                         _______ _______ _______ _____ _____    ______ ____
ROOT
ATOM      1  CA  TYR A   1     -12.093  13.765  65.860  0.00  0.00    +0.202 C 
ENDROOT
BRANCH   1   4
ATOM      2  C   UNK A   0     -10.484  10.636  66.925  0.00  0.00    +0.096 C 
ATOM      3  C   UNK A   0     -11.414  11.560  66.882  0.00  0.00    +0.242 C 
ATOM      4  N   TYR A   1     -11.965  12.170  65.703  0.00  0.00    -0.195 NA
ATOM      5  O   UNK A   0     -12.094  11.805  67.925  0.00  0.00    -0.273 OA
ENDBRANCH   1   4
BRANCH   1   6
ATOM      6  C   TYR A   1     -12.407  13.980  64.263  0.00  0.00    +0.385 C 
ATOM      7  OXT TYR A   1     -12.600  15.287  63.900  0.00  0.00    -0.244 OA
ATOM      8  O   TYR A   1     -12.515  12.970  63.584  0.00  0.00    -0.244 OA
ENDBRANCH   1   6
BRANCH   1   9
ATOM      9  CB  TYR A   1     -10.443  13.965  65.639  0.00  0.00    +0.060 C 
BRANCH   9  10
ATOM     10  CG  TYR A   1     -10.137  15.158  66.488  0.00  0.00    -0.020 A 
ATOM     11  CD2 TYR A   1      -9.700  16.317  65.886  0.00  0.00    -0.001 A 
ATOM     12  CE2 TYR A   1     -10.096  17.556  66.371  0.00  0.00    +0.042 A 
ATOM     13  CZ  TYR A   1     -10.534  17.632  67.664  0.00  0.00    +0.196 A 
ATOM     14  OH  TYR A   1     -10.437  18.803  68.405  0.00  0.00    -0.287 OA
ATOM     15  CE1 TYR A   1     -10.852  16.479  68.333  0.00  0.00    +0.042 A 
ATOM     16  CD1 TYR A   1     -10.951  15.311  67.603  0.00  0.00    -0.001 A 
ENDBRANCH   9  10
ENDBRANCH   1   9
TORSDOF 4
ENDMDL
MODEL 4
REMARK VINA RESULT:      -5.4      2.895      5.583
REMARK  Name = 
REMARK  4 active torsions:
REMARK  status: ('A' for Active; 'I' for Inactive)
REMARK    1  A    between atoms: N_4  and  CA_5
REMARK    2  A    between atoms: CA_5  and  CB_6
REMARK    3  A    between atoms: CA_5  and  C_14
REMARK    4  A    between atoms: CB_6  and  CG_7
REMARK                            x       y       z     vdW  Elec       q    Type
REMARK                         _______ _______ _______ _____ _____    ______ ____
ROOT
ATOM      1  CA  TYR A   1     -11.584  16.049  68.650  0.00  0.00    +0.202 C 
ENDROOT
BRANCH   1   4
ATOM      2  C   UNK A   0      -8.664  18.229  68.164  0.00  0.00    +0.096 C 
ATOM      3  C   UNK A   0      -9.928  17.929  68.348  0.00  0.00    +0.242 C 
ATOM      4  N   TYR A   1     -10.458  16.993  69.302  0.00  0.00    -0.195 NA
ATOM      5  O   UNK A   0     -10.822  18.670  67.838  0.00  0.00    -0.273 OA
ENDBRANCH   1   4
BRANCH   1   6
ATOM      6  C   TYR A   1     -12.060  15.470  70.110  0.00  0.00    +0.385 C 
ATOM      7  OXT TYR A   1     -11.663  16.236  71.175  0.00  0.00    -0.244 OA
ATOM      8  O   TYR A   1     -12.640  14.394  70.110  0.00  0.00    -0.244 OA
ENDBRANCH   1   6
BRANCH   1   9
ATOM      9  CB  TYR A   1     -10.480  14.806  68.433  0.00  0.00    +0.060 C 
BRANCH   9  10
ATOM     10  CG  TYR A   1     -10.775  14.338  67.043  0.00  0.00    -0.020 A 
ATOM     11  CD2 TYR A   1     -11.757  13.393  66.847  0.00  0.00    -0.001 A 
ATOM     12  CE2 TYR A   1     -12.580  13.451  65.730  0.00  0.00    +0.042 A 
ATOM     13  CZ  TYR A   1     -12.139  14.152  64.641  0.00  0.00    +0.196 A 
ATOM     14  OH  TYR A   1     -12.566  13.854  63.354  0.00  0.00    -0.287 OA
ATOM     15  CE1 TYR A   1     -11.077  15.006  64.779  0.00  0.00    +0.042 A 
ATOM     16  CD1 TYR A   1     -10.648  15.308  66.056  0.00  0.00    -0.001 A 
ENDBRANCH   9  10
ENDBRANCH   1   9
TORSDOF 4
ENDMDL
MODEL 5
REMARK VINA RESULT:      -5.4      3.581      5.354
REMARK  Name = 
REMARK  4 active torsions:
REMARK  status: ('A' for Active; 'I' for Inactive)
REMARK    1  A    between atoms: N_4  and  CA_5
REMARK    2  A    between atoms: CA_5  and  CB_6
REMARK    3  A    between atoms: CA_5  and  C_14
REMARK    4  A    between atoms: CB_6  and  CG_7
REMARK                            x       y       z     vdW  Elec       q    Type
REMARK                         _______ _______ _______ _____ _____    ______ ____
ROOT
ATOM      1  CA  TYR A   1     -11.350  15.002  69.973  0.00  0.00    +0.202 C 
ENDROOT
BRANCH   1   4
ATOM      2  C   UNK A   0     -13.900  15.589  72.555  0.00  0.00    +0.096 C 
ATOM      3  C   UNK A   0     -12.806  15.815  71.867  0.00  0.00    +0.242 C 
ATOM      4  N   TYR A   1     -12.671  15.791  70.436  0.00  0.00    -0.195 NA
ATOM      5  O   UNK A   0     -11.805  16.338  72.446  0.00  0.00    -0.273 OA
ENDBRANCH   1   4
BRANCH   1   6
ATOM      6  C   TYR A   1     -11.260  15.817  68.552  0.00  0.00    +0.385 C 
ATOM      7  OXT TYR A   1     -11.149  15.011  67.449  0.00  0.00    -0.244 OA
ATOM      8  O   TYR A   1     -11.220  17.036  68.620  0.00  0.00    -0.244 OA
ENDBRANCH   1   6
BRANCH   1   9
ATOM      9  CB  TYR A   1     -12.267  13.772  69.297  0.00  0.00    +0.060 C 
BRANCH   9  10
ATOM     10  CG  TYR A   1     -11.924  12.593  70.152  0.00  0.00    -0.020 A 
ATOM     11  CD2 TYR A   1     -12.732  12.283  71.223  0.00  0.00    -0.001 A 
ATOM     12  CE2 TYR A   1     -12.975  10.959  71.563  0.00  0.00    +0.042 A 
ATOM     13  CZ  TYR A   1     -12.088  10.010  71.133  0.00  0.00    +0.196 A 
ATOM     14  OH  TYR A   1     -11.905   8.813  71.814  0.00  0.00    -0.287 OA
ATOM     15  CE1 TYR A   1     -11.182  10.332  70.157  0.00  0.00    +0.042 A 
ATOM     16  CD1 TYR A   1     -11.358  11.520  69.475  0.00  0.00    -0.001 A 
ENDBRANCH   9  10
ENDBRANCH   1   9
TORSDOF 4
ENDMDL
MODEL 6
REMARK VINA RESULT:      -5.3      2.082      4.594
REMARK  Name = 
REMARK  4 active torsions:
REMARK  status: ('A' for Active; 'I' for Inactive)
REMARK    1  A    between atoms: N_4  and  CA_5
REMARK    2  A    between atoms: CA_5  and  CB_6
REMARK    3  A    between atoms: CA_5  and  C_14
REMARK    4  A    between atoms: CB_6  and  CG_7
REMARK                            x       y       z     vdW  Elec       q    Type
REMARK                         _______ _______ _______ _____ _____    ______ ____
ROOT
ATOM      1  CA  TYR A   1     -10.875  14.414  65.305  0.00  0.00    +0.202 C 
ENDROOT
BRANCH   1   4
ATOM      2  C   UNK A   0     -11.526  14.113  68.911  0.00  0.00    +0.096 C 
ATOM      3  C   UNK A   0     -10.841  14.396  67.828  0.00  0.00    +0.242 C 
ATOM      4  N   TYR A   1     -11.310  15.123  66.680  0.00  0.00    -0.195 NA
ATOM      5  O   UNK A   0      -9.581  14.250  67.835  0.00  0.00    -0.273 OA
ENDBRANCH   1   4
BRANCH   1   6
ATOM      6  C   TYR A   1     -11.698  15.499  64.389  0.00  0.00    +0.385 C 
ATOM      7  OXT TYR A   1     -11.148  16.755  64.376  0.00  0.00    -0.244 OA
ATOM      8  O   TYR A   1     -12.742  15.112  63.885  0.00  0.00    -0.244 OA
ENDBRANCH   1   6
BRANCH   1   9
ATOM      9  CB  TYR A   1     -12.185  13.369  65.377  0.00  0.00    +0.060 C 
BRANCH   9  10
ATOM     10  CG  TYR A   1     -11.599  12.071  64.919  0.00  0.00    -0.020 A 
ATOM     11  CD2 TYR A   1     -11.263  11.916  63.593  0.00  0.00    -0.001 A 
ATOM     12  CE2 TYR A   1     -10.137  11.190  63.229  0.00  0.00    +0.042 A 
ATOM     13  CZ  TYR A   1      -9.637  10.287  64.127  0.00  0.00    +0.196 A 
ATOM     14  OH  TYR A   1      -8.912   9.173  63.721  0.00  0.00    -0.287 OA
ATOM     15  CE1 TYR A   1     -10.054  10.335  65.431  0.00  0.00    +0.042 A 
ATOM     16  CD1 TYR A   1     -10.774  11.439  65.841  0.00  0.00    -0.001 A 
ENDBRANCH   9  10
ENDBRANCH   1   9
TORSDOF 4
ENDMDL
MODEL 7
REMARK VINA RESULT:      -5.3      2.975      5.152
REMARK  Name = 
REMARK  4 active torsions:
REMARK  status: ('A' for Active; 'I' for Inactive)
REMARK    1  A    between atoms: N_4  and  CA_5
REMARK    2  A    between atoms: CA_5  and  CB_6
REMARK    3  A    between atoms: CA_5  and  C_14
REMARK    4  A    between atoms: CB_6  and  CG_7
REMARK                            x       y       z     vdW  Elec       q    Type
REMARK                         _______ _______ _______ _____ _____    ______ ____
ROOT
ATOM      1  CA  TYR A   1     -10.669  16.476  67.340  0.00  0.00    +0.202 C 
ENDROOT
BRANCH   1   4
ATOM      2  C   UNK A   0      -9.151  19.689  66.397  0.00  0.00    +0.096 C 
ATOM      3  C   UNK A   0      -9.914  18.870  67.082  0.00  0.00    +0.242 C 
ATOM      4  N   TYR A   1      -9.539  17.587  67.610  0.00  0.00    -0.195 NA
ATOM      5  O   UNK A   0     -11.011  19.294  67.556  0.00  0.00    -0.273 OA
ENDBRANCH   1   4
BRANCH   1   6
ATOM      6  C   TYR A   1     -10.706  16.011  68.914  0.00  0.00    +0.385 C 
ATOM      7  OXT TYR A   1     -11.911  16.224  69.533  0.00  0.00    -0.244 OA
ATOM      8  O   TYR A   1      -9.657  15.606  69.391  0.00  0.00    -0.244 OA
ENDBRANCH   1   6
BRANCH   1   9
ATOM      9  CB  TYR A   1      -9.511  15.328  66.951  0.00  0.00    +0.060 C 
BRANCH   9  10
ATOM     10  CG  TYR A   1     -10.259  14.393  66.053  0.00  0.00    -0.020 A 
ATOM     11  CD2 TYR A   1     -10.559  13.127  66.503  0.00  0.00    -0.001 A 
ATOM     12  CE2 TYR A   1     -11.763  12.524  66.162  0.00  0.00    +0.042 A 
ATOM     13  CZ  TYR A   1     -12.424  12.985  65.058  0.00  0.00    +0.196 A 
ATOM     14  OH  TYR A   1     -13.285  12.177  64.326  0.00  0.00    -0.287 OA
ATOM     15  CE1 TYR A   1     -12.058  14.186  64.509  0.00  0.00    +0.042 A 
ATOM     16  CD1 TYR A   1     -11.203  14.995  65.231  0.00  0.00    -0.001 A 
ENDBRANCH   9  10
ENDBRANCH   1   9
TORSDOF 4
ENDMDL
MODEL 8
REMARK VINA RESULT:      -5.2      3.064      5.102
REMARK  Name = 
REMARK  4 active torsions:
REMARK  status: ('A' for Active; 'I' for Inactive)
REMARK    1  A    between atoms: N_4  and  CA_5
REMARK    2  A    between atoms: CA_5  and  CB_6
REMARK    3  A    between atoms: CA_5  and  C_14
REMARK    4  A    between atoms: CB_6  and  CG_7
REMARK                            x       y       z     vdW  Elec       q    Type
REMARK                         _______ _______ _______ _____ _____    ______ ____
ROOT
ATOM      1  CA  TYR A   1      -9.918  16.791  66.741  0.00  0.00    +0.202 C 
ENDROOT
BRANCH   1   4
ATOM      2  C   UNK A   0      -6.305  17.258  66.248  0.00  0.00    +0.096 C 
ATOM      3  C   UNK A   0      -7.560  17.615  66.383  0.00  0.00    +0.242 C 
ATOM      4  N   TYR A   1      -8.485  17.144  67.377  0.00  0.00    -0.195 NA
ATOM      5  O   UNK A   0      -7.984  18.638  65.762  0.00  0.00    -0.273 OA
ENDBRANCH   1   4
BRANCH   1   6
ATOM      6  C   TYR A   1     -10.725  17.696  67.847  0.00  0.00    +0.385 C 
ATOM      7  OXT TYR A   1     -11.119  17.002  68.961  0.00  0.00    -0.244 OA
ATOM      8  O   TYR A   1     -10.962  18.855  67.539  0.00  0.00    -0.244 OA
ENDBRANCH   1   6
BRANCH   1   9
ATOM      9  CB  TYR A   1     -10.041  15.404  67.676  0.00  0.00    +0.060 C 
BRANCH   9  10
ATOM     10  CG  TYR A   1     -10.643  14.416  66.726  0.00  0.00    -0.020 A 
ATOM     11  CD2 TYR A   1     -12.004  14.210  66.746  0.00  0.00    -0.001 A 
ATOM     12  CE2 TYR A   1     -12.700  13.975  65.567  0.00  0.00    +0.042 A 
ATOM     13  CZ  TYR A   1     -11.997  13.518  64.486  0.00  0.00    +0.196 A 
ATOM     14  OH  TYR A   1     -12.597  12.762  63.487  0.00  0.00    -0.287 OA
ATOM     15  CE1 TYR A   1     -10.629  13.592  64.494  0.00  0.00    +0.042 A 
ATOM     16  CD1 TYR A   1     -10.026  14.343  65.484  0.00  0.00    -0.001 A 
ENDBRANCH   9  10
ENDBRANCH   1   9
TORSDOF 4
ENDMDL
MODEL 9
REMARK VINA RESULT:      -5.2      2.340      3.257
REMARK  Name = 
REMARK  4 active torsions:
REMARK  status: ('A' for Active; 'I' for Inactive)
REMARK    1  A    between atoms: N_4  and  CA_5
REMARK    2  A    between atoms: CA_5  and  CB_6
REMARK    3  A    between atoms: CA_5  and  C_14
REMARK    4  A    between atoms: CB_6  and  CG_7
REMARK                            x       y       z     vdW  Elec       q    Type
REMARK                         _______ _______ _______ _____ _____    ______ ____
ROOT
ATOM      1  CA  TYR A   1     -10.308  17.339  66.952  0.00  0.00    +0.202 C 
ENDROOT
BRANCH   1   4
ATOM      2  C   UNK A   0     -10.983  14.626  64.564  0.00  0.00    +0.096 C 
ATOM      3  C   UNK A   0     -10.777  15.860  64.963  0.00  0.00    +0.242 C 
ATOM      4  N   TYR A   1      -9.742  16.313  65.851  0.00  0.00    -0.195 NA
ATOM      5  O   UNK A   0     -11.359  16.812  64.359  0.00  0.00    -0.273 OA
ENDBRANCH   1   4
BRANCH   1   6
ATOM      6  C   TYR A   1      -8.938  18.242  66.935  0.00  0.00    +0.385 C 
ATOM      7  OXT TYR A   1      -8.590  18.758  68.157  0.00  0.00    -0.244 OA
ATOM      8  O   TYR A   1      -8.418  18.430  65.846  0.00  0.00    -0.244 OA
ENDBRANCH   1   6
BRANCH   1   9
ATOM      9  CB  TYR A   1      -9.746  16.375  68.204  0.00  0.00    +0.060 C 
BRANCH   9  10
ATOM     10  CG  TYR A   1     -11.009  15.929  68.872  0.00  0.00    -0.020 A 
ATOM     11  CD2 TYR A   1     -11.543  14.702  68.549  0.00  0.00    -0.001 A 
ATOM     12  CE2 TYR A   1     -12.154  13.921  69.520  0.00  0.00    +0.042 A 
ATOM     13  CZ  TYR A   1     -12.608  14.539  70.652  0.00  0.00    +0.196 A 
ATOM     14  OH  TYR A   1     -13.659  14.023  71.400  0.00  0.00    -0.287 OA
ATOM     15  CE1 TYR A   1     -12.194  15.814  70.932  0.00  0.00    +0.042 A 
ATOM     16  CD1 TYR A   1     -11.149  16.334  70.194  0.00  0.00    -0.001 A 
ENDBRANCH   9  10
ENDBRANCH   1   9
TORSDOF 4
ENDMDL
