MODEL 1
REMARK VINA RESULT:      -5.5      0.000      0.000
REMARK  Name = 
REMARK  2 active torsions:
REMARK  status: ('A' for Active; 'I' for Inactive)
REMARK    1  A    between atoms: C_2  and  N_4
REMARK    2  A    between atoms: C_7  and  S_8
REMARK                            x       y       z     vdW  Elec       q    Type
REMARK                         _______ _______ _______ _____ _____    ______ ____
ROOT
ATOM      1  N   UNL     1     -11.323  16.012  70.480  0.00  0.00    -0.154 NA
ATOM      2  C   UNL     1     -11.273  15.547  69.270  0.00  0.00    +0.186 A 
ATOM      3  N   UNL     1     -11.552  14.292  68.836  0.00  0.00    -0.227 N 
ATOM      4  C   UNL     1     -11.751  13.173  69.758  0.00  0.00    +0.156 C 
ATOM      5  N   UNL     1     -12.098  14.308  67.644  0.00  0.00    -0.140 NA
ATOM      6  C   UNL     1     -11.386  15.018  66.750  0.00  0.00    +0.257 A 
ATOM      7  S   UNL     1     -10.824  16.278  67.779  0.00  0.00    -0.011 S 
ENDROOT
BRANCH   6   8
ATOM      8  S   UNL     1     -11.415  14.928  64.992  0.00  0.00    +0.118 S 
ATOM      9  O   UNL     1     -10.319  14.015  64.492  0.00  0.00    -0.148 OA
ATOM     10  O   UNL     1     -12.758  14.358  64.626  0.00  0.00    -0.148 OA
ATOM     11  N   UNL     1     -11.247  16.487  64.314  0.00  0.00    +0.041 NA
ENDBRANCH   6   8
BRANCH   1  13
ATOM     12  C   UNL     1     -12.079  15.377  72.792  0.00  0.00    +0.097 C 
ATOM     13  C   UNL     1     -12.380  15.737  71.379  0.00  0.00    +0.248 C 
ATOM     14  O   UNL     1     -13.594  15.814  71.027  0.00  0.00    -0.273 OA
ENDBRANCH   1  13
TORSDOF 2
ENDMDL
MODEL 2
REMARK VINA RESULT:      -5.3      2.500      5.876
REMARK  Name = 
REMARK  2 active torsions:
REMARK  status: ('A' for Active; 'I' for Inactive)
REMARK    1  A    between atoms: C_2  and  N_4
REMARK    2  A    between atoms: C_7  and  S_8
REMARK                            x       y       z     vdW  Elec       q    Type
REMARK                         _______ _______ _______ _____ _____    ______ ____
ROOT
ATOM      1  N   UNL     1     -11.132  13.622  67.412  0.00  0.00    -0.154 NA
ATOM      2  C   UNL     1     -11.479  14.167  68.536  0.00  0.00    +0.186 A 
ATOM      3  N   UNL     1     -11.458  15.480  68.879  0.00  0.00    -0.227 N 
ATOM      4  C   UNL     1     -10.798  16.493  68.054  0.00  0.00    +0.156 C 
ATOM      5  N   UNL     1     -12.454  15.783  69.676  0.00  0.00    -0.140 NA
ATOM      6  C   UNL     1     -12.537  14.969  70.745  0.00  0.00    +0.257 A 
ATOM      7  S   UNL     1     -12.057  13.491  70.008  0.00  0.00    -0.011 S 
ENDROOT
BRANCH   6   8
ATOM      8  S   UNL     1     -13.334  15.252  72.289  0.00  0.00    +0.118 S 
ATOM      9  O   UNL     1     -14.662  15.943  72.079  0.00  0.00    -0.148 OA
ATOM     10  O   UNL     1     -13.557  13.895  72.897  0.00  0.00    -0.148 OA
ATOM     11  N   UNL     1     -12.333  16.184  73.313  0.00  0.00    +0.041 NA
ENDBRANCH   6   8
BRANCH   1  13
ATOM     12  C   UNL     1     -10.419  14.469  65.154  0.00  0.00    +0.097 C 
ATOM     13  C   UNL     1     -11.483  14.149  66.146  0.00  0.00    +0.248 C 
ATOM     14  O   UNL     1     -12.689  14.335  65.812  0.00  0.00    -0.273 OA
ENDBRANCH   1  13
TORSDOF 2
ENDMDL
MODEL 3
REMARK VINA RESULT:      -5.2      3.889      4.492
REMARK  Name = 
REMARK  2 active torsions:
REMARK  status: ('A' for Active; 'I' for Inactive)
REMARK    1  A    between atoms: C_2  and  N_4
REMARK    2  A    between atoms: C_7  and  S_8
REMARK                            x       y       z     vdW  Elec       q    Type
REMARK                         _______ _______ _______ _____ _____    ______ ____
ROOT
ATOM      1  N   UNL     1     -10.540  17.789  65.429  0.00  0.00    -0.154 NA
ATOM      2  C   UNL     1     -10.594  16.493  65.401  0.00  0.00    +0.186 A 
ATOM      3  N   UNL     1      -9.740  15.602  65.966  0.00  0.00    -0.227 N 
ATOM      4  C   UNL     1      -8.452  16.004  66.532  0.00  0.00    +0.156 C 
ATOM      5  N   UNL     1     -10.373  14.532  66.384  0.00  0.00    -0.140 NA
ATOM      6  C   UNL     1     -11.149  13.977  65.435  0.00  0.00    +0.257 A 
ATOM      7  S   UNL     1     -11.694  15.406  64.649  0.00  0.00    -0.011 S 
ENDROOT
BRANCH   6   8
ATOM      8  S   UNL     1     -11.767  12.331  65.338  0.00  0.00    +0.118 S 
ATOM      9  O   UNL     1     -11.908  11.737  66.721  0.00  0.00    -0.148 OA
ATOM     10  O   UNL     1     -13.120  12.432  64.688  0.00  0.00    -0.148 OA
ATOM     11  N   UNL     1     -10.737  11.365  64.377  0.00  0.00    +0.041 NA
ENDBRANCH   6   8
BRANCH   1  13
ATOM     12  C   UNL     1      -9.202  19.600  66.546  0.00  0.00    +0.097 C 
ATOM     13  C   UNL     1     -10.240  18.534  66.594  0.00  0.00    +0.248 C 
ATOM     14  O   UNL     1     -10.852  18.342  67.685  0.00  0.00    -0.273 OA
ENDBRANCH   1  13
TORSDOF 2
ENDMDL
MODEL 4
REMARK VINA RESULT:      -5.2      1.893      2.072
REMARK  Name = 
REMARK  2 active torsions:
REMARK  status: ('A' for Active; 'I' for Inactive)
REMARK    1  A    between atoms: C_2  and  N_4
REMARK    2  A    between atoms: C_7  and  S_8
REMARK                            x       y       z     vdW  Elec       q    Type
REMARK                         _______ _______ _______ _____ _____    ______ ____
ROOT
ATOM      1  N   UNL     1     -11.626  15.850  71.272  0.00  0.00    -0.154 NA
ATOM      2  C   UNL     1     -11.230  15.835  70.037  0.00  0.00    +0.186 A 
ATOM      3  N   UNL     1     -11.362  14.842  69.121  0.00  0.00    -0.227 N 
ATOM      4  C   UNL     1     -11.802  13.495  69.487  0.00  0.00    +0.156 C 
ATOM      5  N   UNL     1     -11.547  15.325  67.916  0.00  0.00    -0.140 NA
ATOM      6  C   UNL     1     -10.618  16.233  67.566  0.00  0.00    +0.257 A 
ATOM      7  S   UNL     1     -10.384  16.995  69.090  0.00  0.00    -0.011 S 
ENDROOT
BRANCH   6   8
ATOM      8  S   UNL     1     -10.147  16.766  65.955  0.00  0.00    +0.118 S 
ATOM      9  O   UNL     1     -10.465  18.232  65.771  0.00  0.00    -0.148 OA
ATOM     10  O   UNL     1      -8.661  16.553  65.864  0.00  0.00    -0.148 OA
ATOM     11  N   UNL     1     -10.937  15.830  64.764  0.00  0.00    +0.041 NA
ENDBRANCH   6   8
BRANCH   1  13
ATOM     12  C   UNL     1     -12.996  14.494  72.886  0.00  0.00    +0.097 C 
ATOM     13  C   UNL     1     -12.892  15.377  71.693  0.00  0.00    +0.248 C 
ATOM     14  O   UNL     1     -13.959  15.708  71.097  0.00  0.00    -0.273 OA
ENDBRANCH   1  13
TORSDOF 2
ENDMDL
MODEL 5
REMARK VINA RESULT:      -5.1      4.070      5.276
REMARK  Name = 
REMARK  2 active torsions:
REMARK  status: ('A' for Active; 'I' for Inactive)
REMARK    1  A    between atoms: C_2  and  N_4
REMARK    2  A    between atoms: C_7  and  S_8
REMARK                            x       y       z     vdW  Elec       q    Type
REMARK                         _______ _______ _______ _____ _____    ______ ____
ROOT
ATOM      1  N   UNL     1      -7.930  17.968  67.034  0.00  0.00    -0.154 NA
ATOM      2  C   UNL     1      -8.957  17.294  66.620  0.00  0.00    +0.186 A 
ATOM      3  N   UNL     1     -10.110  17.762  66.077  0.00  0.00    -0.227 N 
ATOM      4  C   UNL     1     -10.457  19.184  66.087  0.00  0.00    +0.156 C 
ATOM      5  N   UNL     1     -10.576  16.944  65.163  0.00  0.00    -0.140 NA
ATOM      6  C   UNL     1     -10.686  15.677  65.600  0.00  0.00    +0.257 A 
ATOM      7  S   UNL     1      -9.295  15.607  66.609  0.00  0.00    -0.011 S 
ENDROOT
BRANCH   6   8
ATOM      8  S   UNL     1     -11.684  14.373  64.965  0.00  0.00    +0.118 S 
ATOM      9  O   UNL     1     -12.528  13.771  66.065  0.00  0.00    -0.148 OA
ATOM     10  O   UNL     1     -12.574  14.997  63.926  0.00  0.00    -0.148 OA
ATOM     11  N   UNL     1     -10.705  13.174  64.241  0.00  0.00    +0.041 NA
ENDBRANCH   6   8
BRANCH   1  13
ATOM     12  C   UNL     1      -7.154  20.359  67.010  0.00  0.00    +0.097 C 
ATOM     13  C   UNL     1      -7.371  19.056  66.323  0.00  0.00    +0.248 C 
ATOM     14  O   UNL     1      -7.016  18.950  65.113  0.00  0.00    -0.273 OA
ENDBRANCH   1  13
TORSDOF 2
ENDMDL
MODEL 6
REMARK VINA RESULT:      -5.1      7.726      9.164
REMARK  Name = 
REMARK  2 active torsions:
REMARK  status: ('A' for Active; 'I' for Inactive)
REMARK    1  A    between atoms: C_2  and  N_4
REMARK    2  A    between atoms: C_7  and  S_8
REMARK                            x       y       z     vdW  Elec       q    Type
REMARK                         _______ _______ _______ _____ _____    ______ ____
ROOT
ATOM      1  N   UNL     1      -7.603  18.373  68.378  0.00  0.00    -0.154 NA
ATOM      2  C   UNL     1      -6.660  19.092  68.901  0.00  0.00    +0.186 A 
ATOM      3  N   UNL     1      -6.214  20.313  68.509  0.00  0.00    -0.227 N 
ATOM      4  C   UNL     1      -6.615  20.920  67.239  0.00  0.00    +0.156 C 
ATOM      5  N   UNL     1      -5.846  21.041  69.536  0.00  0.00    -0.140 NA
ATOM      6  C   UNL     1      -4.978  20.407  70.345  0.00  0.00    +0.257 A 
ATOM      7  S   UNL     1      -5.603  18.809  70.229  0.00  0.00    -0.011 S 
ENDROOT
BRANCH   6   8
ATOM      8  S   UNL     1      -3.850  21.094  71.510  0.00  0.00    +0.118 S 
ATOM      9  O   UNL     1      -4.486  22.259  72.235  0.00  0.00    -0.148 OA
ATOM     10  O   UNL     1      -3.540  19.995  72.488  0.00  0.00    -0.148 OA
ATOM     11  N   UNL     1      -2.415  21.591  70.727  0.00  0.00    +0.041 NA
ENDBRANCH   6   8
BRANCH   1  13
ATOM     12  C   UNL     1      -9.343  18.640  66.583  0.00  0.00    +0.097 C 
ATOM     13  C   UNL     1      -8.849  18.900  67.963  0.00  0.00    +0.248 C 
ATOM     14  O   UNL     1      -9.584  19.571  68.746  0.00  0.00    -0.273 OA
ENDBRANCH   1  13
TORSDOF 2
ENDMDL
MODEL 7
REMARK VINA RESULT:      -5.1      4.059      5.092
REMARK  Name = 
REMARK  2 active torsions:
REMARK  status: ('A' for Active; 'I' for Inactive)
REMARK    1  A    between atoms: C_2  and  N_4
REMARK    2  A    between atoms: C_7  and  S_8
REMARK                            x       y       z     vdW  Elec       q    Type
REMARK                         _______ _______ _______ _____ _____    ______ ____
ROOT
ATOM      1  N   UNL     1      -8.020  17.276  67.100  0.00  0.00    -0.154 NA
ATOM      2  C   UNL     1      -9.005  16.596  66.601  0.00  0.00    +0.186 A 
ATOM      3  N   UNL     1     -10.137  17.060  66.011  0.00  0.00    -0.227 N 
ATOM      4  C   UNL     1     -10.518  18.472  66.055  0.00  0.00    +0.156 C 
ATOM      5  N   UNL     1     -10.529  16.269  65.041  0.00  0.00    -0.140 NA
ATOM      6  C   UNL     1     -10.632  14.983  65.422  0.00  0.00    +0.257 A 
ATOM      7  S   UNL     1      -9.299  14.904  66.506  0.00  0.00    -0.011 S 
ENDROOT
BRANCH   6   8
ATOM      8  S   UNL     1     -11.560  13.683  64.680  0.00  0.00    +0.118 S 
ATOM      9  O   UNL     1     -12.610  14.248  63.751  0.00  0.00    -0.148 OA
ATOM     10  O   UNL     1     -10.574  12.863  63.895  0.00  0.00    -0.148 OA
ATOM     11  N   UNL     1     -12.288  12.712  65.882  0.00  0.00    +0.041 NA
ENDBRANCH   6   8
BRANCH   1  13
ATOM     12  C   UNL     1      -7.237  19.662  67.233  0.00  0.00    +0.097 C 
ATOM     13  C   UNL     1      -7.448  18.404  66.465  0.00  0.00    +0.248 C 
ATOM     14  O   UNL     1      -7.078  18.373  65.255  0.00  0.00    -0.273 OA
ENDBRANCH   1  13
TORSDOF 2
ENDMDL
MODEL 8
REMARK VINA RESULT:      -5.0      2.668      5.925
REMARK  Name = 
REMARK  2 active torsions:
REMARK  status: ('A' for Active; 'I' for Inactive)
REMARK    1  A    between atoms: C_2  and  N_4
REMARK    2  A    between atoms: C_7  and  S_8
REMARK                            x       y       z     vdW  Elec       q    Type
REMARK                         _______ _______ _______ _____ _____    ______ ____
ROOT
ATOM      1  N   UNL     1     -11.601  12.038  66.285  0.00  0.00    -0.154 NA
ATOM      2  C   UNL     1     -11.631  12.754  67.365  0.00  0.00    +0.186 A 
ATOM      3  N   UNL     1     -11.317  14.066  67.517  0.00  0.00    -0.227 N 
ATOM      4  C   UNL     1     -10.659  14.839  66.463  0.00  0.00    +0.156 C 
ATOM      5  N   UNL     1     -12.078  14.639  68.419  0.00  0.00    -0.140 NA
ATOM      6  C   UNL     1     -12.098  13.973  69.587  0.00  0.00    +0.257 A 
ATOM      7  S   UNL     1     -12.030  12.361  68.992  0.00  0.00    -0.011 S 
ENDROOT
BRANCH   6   8
ATOM      8  S   UNL     1     -12.529  14.565  71.189  0.00  0.00    +0.118 S 
ATOM      9  O   UNL     1     -11.300  15.064  71.915  0.00  0.00    -0.148 OA
ATOM     10  O   UNL     1     -13.486  15.704  70.969  0.00  0.00    -0.148 OA
ATOM     11  N   UNL     1     -13.296  13.334  72.091  0.00  0.00    +0.041 NA
ENDBRANCH   6   8
BRANCH   1  13
ATOM     12  C   UNL     1     -11.287  12.258  63.800  0.00  0.00    +0.097 C 
ATOM     13  C   UNL     1     -12.087  12.489  65.034  0.00  0.00    +0.248 C 
ATOM     14  O   UNL     1     -13.208  13.066  64.923  0.00  0.00    -0.273 OA
ENDBRANCH   1  13
TORSDOF 2
ENDMDL
MODEL 9
REMARK VINA RESULT:      -4.9      3.772      5.643
REMARK  Name = 
REMARK  2 active torsions:
REMARK  status: ('A' for Active; 'I' for Inactive)
REMARK    1  A    between atoms: C_2  and  N_4
REMARK    2  A    between atoms: C_7  and  S_8
REMARK                            x       y       z     vdW  Elec       q    Type
REMARK                         _______ _______ _______ _____ _____    ______ ____
ROOT
ATOM      1  N   UNL     1     -12.441  14.018  63.836  0.00  0.00    -0.154 NA
ATOM      2  C   UNL     1     -11.781  14.688  64.729  0.00  0.00    +0.186 A 
ATOM      3  N   UNL     1     -11.428  14.302  65.982  0.00  0.00    -0.227 N 
ATOM      4  C   UNL     1     -11.964  13.091  66.606  0.00  0.00    +0.156 C 
ATOM      5  N   UNL     1     -10.264  14.798  66.326  0.00  0.00    -0.140 NA
ATOM      6  C   UNL     1     -10.190  16.130  66.154  0.00  0.00    +0.257 A 
ATOM      7  S   UNL     1     -11.129  16.280  64.720  0.00  0.00    -0.011 S 
ENDROOT
BRANCH   6   8
ATOM      8  S   UNL     1      -9.089  17.281  66.904  0.00  0.00    +0.118 S 
ATOM      9  O   UNL     1      -9.821  18.555  67.263  0.00  0.00    -0.148 OA
ATOM     10  O   UNL     1      -8.581  16.618  68.154  0.00  0.00    -0.148 OA
ATOM     11  N   UNL     1      -7.780  17.620  65.859  0.00  0.00    +0.041 NA
ENDBRANCH   6   8
BRANCH   1  13
ATOM     12  C   UNL     1     -10.810  12.163  63.366  0.00  0.00    +0.097 C 
ATOM     13  C   UNL     1     -12.204  12.653  63.549  0.00  0.00    +0.248 C 
ATOM     14  O   UNL     1     -13.149  11.815  63.469  0.00  0.00    -0.273 OA
ENDBRANCH   1  13
TORSDOF 2
ENDMDL
