MODEL 1
REMARK VINA RESULT:      -4.4      0.000      0.000
REMARK  Name = 
REMARK  3 active torsions:
REMARK  status: ('A' for Active; 'I' for Inactive)
REMARK    1  A    between atoms: N_2  and  C_3
REMARK    2  A    between atoms: C_3  and  C_4
REMARK    3  A    between atoms: C_4  and  C_5
REMARK                            x       y       z     vdW  Elec       q    Type
REMARK                         _______ _______ _______ _____ _____    ______ ____
ROOT
ATOM      1  C   UNL     1     -11.507  13.138  65.707  0.00  0.00    -0.021 A 
ATOM      2  C   UNL     1     -10.736  12.009  65.959  0.00  0.00    -0.004 A 
ATOM      3  C   UNL     1     -10.443  11.212  64.853  0.00  0.00    -0.000 A 
ATOM      4  C   UNL     1     -11.148  11.342  63.659  0.00  0.00    -0.000 A 
ATOM      5  C   UNL     1     -12.143  12.308  63.548  0.00  0.00    -0.000 A 
ATOM      6  C   UNL     1     -12.482  12.949  64.737  0.00  0.00    -0.004 A 
ENDROOT
BRANCH   1   7
ATOM      7  C   UNL     1     -11.180  14.481  66.278  0.00  0.00    +0.047 C 
BRANCH   7   8
ATOM      8  C   UNL     1     -10.271  15.159  65.274  0.00  0.00    +0.116 C 
BRANCH   8  10
ATOM      9  N   UNL     1     -11.555  16.568  63.999  0.00  0.00    -0.020 NA
ATOM     10  N   UNL     1     -10.670  16.541  65.087  0.00  0.00    -0.112 NA
ENDBRANCH   8  10
ENDBRANCH   7   8
ENDBRANCH   1   7
TORSDOF 3
ENDMDL
MODEL 2
REMARK VINA RESULT:      -4.2      5.672      7.207
REMARK  Name = 
REMARK  3 active torsions:
REMARK  status: ('A' for Active; 'I' for Inactive)
REMARK    1  A    between atoms: N_2  and  C_3
REMARK    2  A    between atoms: C_3  and  C_4
REMARK    3  A    between atoms: C_4  and  C_5
REMARK                            x       y       z     vdW  Elec       q    Type
REMARK                         _______ _______ _______ _____ _____    ______ ____
ROOT
ATOM      1  C   UNL     1     -12.731  13.613  71.161  0.00  0.00    -0.021 A 
ATOM      2  C   UNL     1     -12.244  14.739  70.508  0.00  0.00    -0.004 A 
ATOM      3  C   UNL     1     -11.794  15.772  71.330  0.00  0.00    -0.000 A 
ATOM      4  C   UNL     1     -12.122  15.818  72.682  0.00  0.00    -0.000 A 
ATOM      5  C   UNL     1     -12.887  14.799  73.241  0.00  0.00    -0.000 A 
ATOM      6  C   UNL     1     -13.428  13.896  72.328  0.00  0.00    -0.004 A 
ENDROOT
BRANCH   1   7
ATOM      7  C   UNL     1     -12.363  12.222  70.754  0.00  0.00    +0.047 C 
BRANCH   7   8
ATOM      8  C   UNL     1     -11.687  12.339  69.404  0.00  0.00    +0.116 C 
BRANCH   8  10
ATOM      9  N   UNL     1     -11.907  11.651  67.227  0.00  0.00    -0.020 NA
ATOM     10  N   UNL     1     -12.063  11.225  68.555  0.00  0.00    -0.112 NA
ENDBRANCH   8  10
ENDBRANCH   7   8
ENDBRANCH   1   7
TORSDOF 3
ENDMDL
MODEL 3
REMARK VINA RESULT:      -4.2      5.322      6.926
REMARK  Name = 
REMARK  3 active torsions:
REMARK  status: ('A' for Active; 'I' for Inactive)
REMARK    1  A    between atoms: N_2  and  C_3
REMARK    2  A    between atoms: C_3  and  C_4
REMARK    3  A    between atoms: C_4  and  C_5
REMARK                            x       y       z     vdW  Elec       q    Type
REMARK                         _______ _______ _______ _____ _____    ______ ____
ROOT
ATOM      1  C   UNL     1     -12.574  15.635  70.755  0.00  0.00    -0.021 A 
ATOM      2  C   UNL     1     -11.849  16.199  71.798  0.00  0.00    -0.004 A 
ATOM      3  C   UNL     1     -11.959  15.560  73.032  0.00  0.00    -0.000 A 
ATOM      4  C   UNL     1     -12.976  14.643  73.285  0.00  0.00    -0.000 A 
ATOM      5  C   UNL     1     -13.885  14.327  72.280  0.00  0.00    -0.000 A 
ATOM      6  C   UNL     1     -13.806  15.121  71.138  0.00  0.00    -0.004 A 
ENDROOT
BRANCH   1   7
ATOM      7  C   UNL     1     -11.993  15.419  69.393  0.00  0.00    +0.047 C 
BRANCH   7   8
ATOM      8  C   UNL     1     -10.740  16.265  69.327  0.00  0.00    +0.116 C 
BRANCH   8  10
ATOM      9  N   UNL     1      -9.960  18.324  68.685  0.00  0.00    -0.020 NA
ATOM     10  N   UNL     1     -10.909  17.341  68.369  0.00  0.00    -0.112 NA
ENDBRANCH   8  10
ENDBRANCH   7   8
ENDBRANCH   1   7
TORSDOF 3
ENDMDL
MODEL 4
REMARK VINA RESULT:      -4.2      6.124      7.313
REMARK  Name = 
REMARK  3 active torsions:
REMARK  status: ('A' for Active; 'I' for Inactive)
REMARK    1  A    between atoms: N_2  and  C_3
REMARK    2  A    between atoms: C_3  and  C_4
REMARK    3  A    between atoms: C_4  and  C_5
REMARK                            x       y       z     vdW  Elec       q    Type
REMARK                         _______ _______ _______ _____ _____    ______ ____
ROOT
ATOM      1  C   UNL     1     -12.603  14.726  71.101  0.00  0.00    -0.021 A 
ATOM      2  C   UNL     1     -12.007  15.858  70.558  0.00  0.00    -0.004 A 
ATOM      3  C   UNL     1     -11.731  15.805  69.192  0.00  0.00    -0.000 A 
ATOM      4  C   UNL     1     -11.731  14.598  68.499  0.00  0.00    -0.000 A 
ATOM      5  C   UNL     1     -12.045  13.420  69.167  0.00  0.00    -0.000 A 
ATOM      6  C   UNL     1     -12.151  13.533  70.552  0.00  0.00    -0.004 A 
ENDROOT
BRANCH   1   7
ATOM      7  C   UNL     1     -13.767  14.797  72.038  0.00  0.00    +0.047 C 
BRANCH   7   8
ATOM      8  C   UNL     1     -13.425  15.861  73.059  0.00  0.00    +0.116 C 
BRANCH   8  10
ATOM      9  N   UNL     1     -12.500  16.248  75.122  0.00  0.00    -0.020 NA
ATOM     10  N   UNL     1     -12.535  15.322  74.069  0.00  0.00    -0.112 NA
ENDBRANCH   8  10
ENDBRANCH   7   8
ENDBRANCH   1   7
TORSDOF 3
ENDMDL
MODEL 5
REMARK VINA RESULT:      -4.2      5.492      6.989
REMARK  Name = 
REMARK  3 active torsions:
REMARK  status: ('A' for Active; 'I' for Inactive)
REMARK    1  A    between atoms: N_2  and  C_3
REMARK    2  A    between atoms: C_3  and  C_4
REMARK    3  A    between atoms: C_4  and  C_5
REMARK                            x       y       z     vdW  Elec       q    Type
REMARK                         _______ _______ _______ _____ _____    ______ ____
ROOT
ATOM      1  C   UNL     1     -12.213  13.714  70.810  0.00  0.00    -0.021 A 
ATOM      2  C   UNL     1     -13.162  13.128  71.640  0.00  0.00    -0.004 A 
ATOM      3  C   UNL     1     -14.038  14.005  72.278  0.00  0.00    -0.000 A 
ATOM      4  C   UNL     1     -13.770  15.369  72.354  0.00  0.00    -0.000 A 
ATOM      5  C   UNL     1     -12.624  15.881  71.754  0.00  0.00    -0.000 A 
ATOM      6  C   UNL     1     -11.727  14.927  71.280  0.00  0.00    -0.004 A 
ENDROOT
BRANCH   1   7
ATOM      7  C   UNL     1     -11.901  13.189  69.445  0.00  0.00    +0.047 C 
BRANCH   7   8
ATOM      8  C   UNL     1     -11.762  11.688  69.589  0.00  0.00    +0.116 C 
BRANCH   8  10
ATOM      9  N   UNL     1     -11.899  11.990  67.319  0.00  0.00    -0.020 NA
ATOM     10  N   UNL     1     -12.062  11.032  68.331  0.00  0.00    -0.112 NA
ENDBRANCH   8  10
ENDBRANCH   7   8
ENDBRANCH   1   7
TORSDOF 3
ENDMDL
MODEL 6
REMARK VINA RESULT:      -4.1      3.888      6.391
REMARK  Name = 
REMARK  3 active torsions:
REMARK  status: ('A' for Active; 'I' for Inactive)
REMARK    1  A    between atoms: N_2  and  C_3
REMARK    2  A    between atoms: C_3  and  C_4
REMARK    3  A    between atoms: C_4  and  C_5
REMARK                            x       y       z     vdW  Elec       q    Type
REMARK                         _______ _______ _______ _____ _____    ______ ____
ROOT
ATOM      1  C   UNL     1     -10.317  18.023  67.554  0.00  0.00    -0.021 A 
ATOM      2  C   UNL     1     -10.659  19.074  66.710  0.00  0.00    -0.004 A 
ATOM      3  C   UNL     1      -9.697  20.072  66.561  0.00  0.00    -0.000 A 
ATOM      4  C   UNL     1      -8.628  20.187  67.445  0.00  0.00    -0.000 A 
ATOM      5  C   UNL     1      -8.490  19.270  68.483  0.00  0.00    -0.000 A 
ATOM      6  C   UNL     1      -9.570  18.408  68.659  0.00  0.00    -0.004 A 
ENDROOT
BRANCH   1   7
ATOM      7  C   UNL     1     -10.555  16.591  67.195  0.00  0.00    +0.047 C 
BRANCH   7   8
ATOM      8  C   UNL     1      -9.806  16.346  65.902  0.00  0.00    +0.116 C 
BRANCH   8  10
ATOM      9  N   UNL     1     -11.289  16.712  64.191  0.00  0.00    -0.020 NA
ATOM     10  N   UNL     1     -10.670  15.696  64.935  0.00  0.00    -0.112 NA
ENDBRANCH   8  10
ENDBRANCH   7   8
ENDBRANCH   1   7
TORSDOF 3
ENDMDL
MODEL 7
REMARK VINA RESULT:      -4.0      6.093      6.918
REMARK  Name = 
REMARK  3 active torsions:
REMARK  status: ('A' for Active; 'I' for Inactive)
REMARK    1  A    between atoms: N_2  and  C_3
REMARK    2  A    between atoms: C_3  and  C_4
REMARK    3  A    between atoms: C_4  and  C_5
REMARK                            x       y       z     vdW  Elec       q    Type
REMARK                         _______ _______ _______ _____ _____    ______ ____
ROOT
ATOM      1  C   UNL     1     -12.514  11.905  70.737  0.00  0.00    -0.021 A 
ATOM      2  C   UNL     1     -13.006  10.860  71.511  0.00  0.00    -0.004 A 
ATOM      3  C   UNL     1     -12.191   9.733  71.600  0.00  0.00    -0.000 A 
ATOM      4  C   UNL     1     -11.138   9.528  70.713  0.00  0.00    -0.000 A 
ATOM      5  C   UNL     1     -10.864  10.480  69.736  0.00  0.00    -0.000 A 
ATOM      6  C   UNL     1     -11.814  11.491  69.611  0.00  0.00    -0.004 A 
ENDROOT
BRANCH   1   7
ATOM      7  C   UNL     1     -12.559  13.332  71.185  0.00  0.00    +0.047 C 
BRANCH   7   8
ATOM      8  C   UNL     1     -13.667  13.419  72.213  0.00  0.00    +0.116 C 
BRANCH   8  10
ATOM      9  N   UNL     1     -14.223  15.645  72.244  0.00  0.00    -0.020 NA
ATOM     10  N   UNL     1     -13.552  14.650  72.972  0.00  0.00    -0.112 NA
ENDBRANCH   8  10
ENDBRANCH   7   8
ENDBRANCH   1   7
TORSDOF 3
ENDMDL
MODEL 8
REMARK VINA RESULT:      -4.0      1.950      3.005
REMARK  Name = 
REMARK  3 active torsions:
REMARK  status: ('A' for Active; 'I' for Inactive)
REMARK    1  A    between atoms: N_2  and  C_3
REMARK    2  A    between atoms: C_3  and  C_4
REMARK    3  A    between atoms: C_4  and  C_5
REMARK                            x       y       z     vdW  Elec       q    Type
REMARK                         _______ _______ _______ _____ _____    ______ ____
ROOT
ATOM      1  C   UNL     1     -11.636  13.093  66.960  0.00  0.00    -0.021 A 
ATOM      2  C   UNL     1     -11.055  11.939  66.446  0.00  0.00    -0.004 A 
ATOM      3  C   UNL     1     -11.153  10.800  67.243  0.00  0.00    -0.000 A 
ATOM      4  C   UNL     1     -11.497  10.885  68.590  0.00  0.00    -0.000 A 
ATOM      5  C   UNL     1     -11.783  12.125  69.151  0.00  0.00    -0.000 A 
ATOM      6  C   UNL     1     -11.508  13.222  68.337  0.00  0.00    -0.004 A 
ENDROOT
BRANCH   1   7
ATOM      7  C   UNL     1     -12.494  14.000  66.137  0.00  0.00    +0.047 C 
BRANCH   7   8
ATOM      8  C   UNL     1     -11.763  14.204  64.828  0.00  0.00    +0.116 C 
BRANCH   8  10
ATOM      9  N   UNL     1     -11.709  16.329  63.966  0.00  0.00    -0.020 NA
ATOM     10  N   UNL     1     -12.476  15.154  63.996  0.00  0.00    -0.112 NA
ENDBRANCH   8  10
ENDBRANCH   7   8
ENDBRANCH   1   7
TORSDOF 3
ENDMDL
MODEL 9
REMARK VINA RESULT:      -4.0      3.336      4.419
REMARK  Name = 
REMARK  3 active torsions:
REMARK  status: ('A' for Active; 'I' for Inactive)
REMARK    1  A    between atoms: N_2  and  C_3
REMARK    2  A    between atoms: C_3  and  C_4
REMARK    3  A    between atoms: C_4  and  C_5
REMARK                            x       y       z     vdW  Elec       q    Type
REMARK                         _______ _______ _______ _____ _____    ______ ____
ROOT
ATOM      1  C   UNL     1     -11.590  12.985  67.874  0.00  0.00    -0.021 A 
ATOM      2  C   UNL     1     -11.380  11.616  67.992  0.00  0.00    -0.004 A 
ATOM      3  C   UNL     1     -11.851  11.026  69.164  0.00  0.00    -0.000 A 
ATOM      4  C   UNL     1     -12.190  11.792  70.275  0.00  0.00    -0.000 A 
ATOM      5  C   UNL     1     -12.094  13.178  70.212  0.00  0.00    -0.000 A 
ATOM      6  C   UNL     1     -11.468  13.677  69.072  0.00  0.00    -0.004 A 
ENDROOT
BRANCH   1   7
ATOM      7  C   UNL     1     -12.099  13.618  66.619  0.00  0.00    +0.047 C 
BRANCH   7   8
ATOM      8  C   UNL     1     -12.000  12.561  65.540  0.00  0.00    +0.116 C 
BRANCH   8  10
ATOM      9  N   UNL     1     -12.761  12.148  63.415  0.00  0.00    -0.020 NA
ATOM     10  N   UNL     1     -13.164  12.614  64.676  0.00  0.00    -0.112 NA
ENDBRANCH   8  10
ENDBRANCH   7   8
ENDBRANCH   1   7
TORSDOF 3
ENDMDL
