MODEL 1
REMARK VINA RESULT:      -5.2      0.000      0.000
REMARK  Name = 
REMARK  2 active torsions:
REMARK  status: ('A' for Active; 'I' for Inactive)
REMARK    1  A    between atoms: C_2  and  C_4
REMARK    2  A    between atoms: C_4  and  C_6
REMARK                            x       y       z     vdW  Elec       q    Type
REMARK                         _______ _______ _______ _____ _____    ______ ____
ROOT
ATOM      1  C   UNL     1     -12.266  14.547  69.944  0.00  0.00    +0.013 A 
ATOM      2  C   UNL     1     -12.042  13.220  69.574  0.00  0.00    +0.044 A 
ATOM      3  C   UNL     1     -11.775  12.869  68.255  0.00  0.00    +0.234 A 
ATOM      4  O   UNL     1     -11.935  11.568  67.833  0.00  0.00    -0.283 OA
ATOM      5  C   UNL     1     -10.990  13.792  67.587  0.00  0.00    +0.234 A 
ATOM      6  O   UNL     1     -10.447  13.455  66.347  0.00  0.00    -0.283 OA
ATOM      7  C   UNL     1     -11.394  15.115  67.743  0.00  0.00    +0.045 A 
ATOM      8  C   UNL     1     -11.783  15.443  69.036  0.00  0.00    +0.002 A 
ENDROOT
BRANCH   1   9
ATOM      9  C   UNL     1     -11.910  14.804  71.509  0.00  0.00    +0.192 C 
ATOM     10  O   UNL     1     -11.544  16.268  71.286  0.00  0.00    -0.217 OA
BRANCH   9  12
ATOM     11  C   UNL     1     -13.236  15.885  73.315  0.00  0.00    +0.024 C 
ATOM     12  C   UNL     1     -13.563  15.184  71.872  0.00  0.00    +0.126 C 
ATOM     13  N   UNL     1     -13.805  13.801  72.572  0.00  0.00    -0.130 NA
ENDBRANCH   9  12
ENDBRANCH   1   9
TORSDOF 2
ENDMDL
MODEL 2
REMARK VINA RESULT:      -5.2      2.671      3.782
REMARK  Name = 
REMARK  2 active torsions:
REMARK  status: ('A' for Active; 'I' for Inactive)
REMARK    1  A    between atoms: C_2  and  C_4
REMARK    2  A    between atoms: C_4  and  C_6
REMARK                            x       y       z     vdW  Elec       q    Type
REMARK                         _______ _______ _______ _____ _____    ______ ____
ROOT
ATOM      1  C   UNL     1     -11.598  13.801  67.315  0.00  0.00    +0.013 A 
ATOM      2  C   UNL     1     -12.272  14.514  66.322  0.00  0.00    +0.044 A 
ATOM      3  C   UNL     1     -12.336  14.052  65.012  0.00  0.00    +0.234 A 
ATOM      4  O   UNL     1     -12.653  14.912  63.984  0.00  0.00    -0.283 OA
ATOM      5  C   UNL     1     -12.463  12.677  64.917  0.00  0.00    +0.234 A 
ATOM      6  O   UNL     1     -12.781  12.106  63.686  0.00  0.00    -0.283 OA
ATOM      7  C   UNL     1     -11.582  11.960  65.721  0.00  0.00    +0.045 A 
ATOM      8  C   UNL     1     -11.415  12.487  66.996  0.00  0.00    +0.002 A 
ENDROOT
BRANCH   1   9
ATOM      9  C   UNL     1     -12.175  14.136  68.796  0.00  0.00    +0.192 C 
ATOM     10  O   UNL     1     -11.574  12.882  69.421  0.00  0.00    -0.217 OA
BRANCH   9  12
ATOM     11  C   UNL     1     -11.125  15.230  70.769  0.00  0.00    +0.024 C 
ATOM     12  C   UNL     1     -10.781  15.097  69.174  0.00  0.00    +0.126 C 
ATOM     13  N   UNL     1     -11.532  16.441  68.875  0.00  0.00    -0.130 NA
ENDBRANCH   9  12
ENDBRANCH   1   9
TORSDOF 2
ENDMDL
MODEL 3
REMARK VINA RESULT:      -5.2      3.144      5.731
REMARK  Name = 
REMARK  2 active torsions:
REMARK  status: ('A' for Active; 'I' for Inactive)
REMARK    1  A    between atoms: C_2  and  C_4
REMARK    2  A    between atoms: C_4  and  C_6
REMARK                            x       y       z     vdW  Elec       q    Type
REMARK                         _______ _______ _______ _____ _____    ______ ____
ROOT
ATOM      1  C   UNL     1     -11.765  13.863  66.848  0.00  0.00    +0.013 A 
ATOM      2  C   UNL     1     -11.279  15.146  67.101  0.00  0.00    +0.044 A 
ATOM      3  C   UNL     1     -11.339  15.709  68.372  0.00  0.00    +0.234 A 
ATOM      4  O   UNL     1     -11.222  17.071  68.537  0.00  0.00    -0.283 OA
ATOM      5  C   UNL     1     -11.113  14.799  69.389  0.00  0.00    +0.234 A 
ATOM      6  O   UNL     1     -10.904  15.265  70.686  0.00  0.00    -0.283 OA
ATOM      7  C   UNL     1     -11.827  13.610  69.269  0.00  0.00    +0.045 A 
ATOM      8  C   UNL     1     -11.878  13.104  67.976  0.00  0.00    +0.002 A 
ENDROOT
BRANCH   1   9
ATOM      9  C   UNL     1     -11.038  13.186  65.562  0.00  0.00    +0.192 C 
ATOM     10  O   UNL     1     -10.970  11.805  66.205  0.00  0.00    -0.217 OA
BRANCH   9  12
ATOM     11  C   UNL     1     -11.936  12.000  63.567  0.00  0.00    +0.024 C 
ATOM     12  C   UNL     1     -12.567  12.855  64.812  0.00  0.00    +0.126 C 
ATOM     13  N   UNL     1     -12.520  14.173  63.962  0.00  0.00    -0.130 NA
ENDBRANCH   9  12
ENDBRANCH   1   9
TORSDOF 2
ENDMDL
MODEL 4
REMARK VINA RESULT:      -5.1      2.680      4.847
REMARK  Name = 
REMARK  2 active torsions:
REMARK  status: ('A' for Active; 'I' for Inactive)
REMARK    1  A    between atoms: C_2  and  C_4
REMARK    2  A    between atoms: C_4  and  C_6
REMARK                            x       y       z     vdW  Elec       q    Type
REMARK                         _______ _______ _______ _____ _____    ______ ____
ROOT
ATOM      1  C   UNL     1     -11.721  14.857  70.167  0.00  0.00    +0.013 A 
ATOM      2  C   UNL     1     -12.835  14.189  70.678  0.00  0.00    +0.044 A 
ATOM      3  C   UNL     1     -13.268  14.392  71.984  0.00  0.00    +0.234 A 
ATOM      4  O   UNL     1     -14.098  13.478  72.593  0.00  0.00    -0.283 OA
ATOM      5  C   UNL     1     -13.137  15.702  72.412  0.00  0.00    +0.234 A 
ATOM      6  O   UNL     1     -13.750  16.094  73.600  0.00  0.00    -0.283 OA
ATOM      7  C   UNL     1     -11.901  16.278  72.135  0.00  0.00    +0.045 A 
ATOM      8  C   UNL     1     -11.401  15.978  70.875  0.00  0.00    +0.002 A 
ENDROOT
BRANCH   1   9
ATOM      9  C   UNL     1     -11.787  14.987  68.549  0.00  0.00    +0.192 C 
ATOM     10  O   UNL     1     -11.495  16.484  68.560  0.00  0.00    -0.217 OA
BRANCH   9  12
ATOM     11  C   UNL     1     -10.043  14.820  66.782  0.00  0.00    +0.024 C 
ATOM     12  C   UNL     1     -10.108  14.575  68.399  0.00  0.00    +0.126 C 
ATOM     13  N   UNL     1     -10.425  13.054  68.180  0.00  0.00    -0.130 NA
ENDBRANCH   9  12
ENDBRANCH   1   9
TORSDOF 2
ENDMDL
MODEL 5
REMARK VINA RESULT:      -5.0      3.938      4.736
REMARK  Name = 
REMARK  2 active torsions:
REMARK  status: ('A' for Active; 'I' for Inactive)
REMARK    1  A    between atoms: C_2  and  C_4
REMARK    2  A    between atoms: C_4  and  C_6
REMARK                            x       y       z     vdW  Elec       q    Type
REMARK                         _______ _______ _______ _____ _____    ______ ____
ROOT
ATOM      1  C   UNL     1     -10.916  13.455  66.734  0.00  0.00    +0.013 A 
ATOM      2  C   UNL     1     -11.469  13.405  65.453  0.00  0.00    +0.044 A 
ATOM      3  C   UNL     1     -11.864  14.559  64.786  0.00  0.00    +0.234 A 
ATOM      4  O   UNL     1     -12.737  14.487  63.724  0.00  0.00    -0.283 OA
ATOM      5  C   UNL     1     -11.026  15.638  65.008  0.00  0.00    +0.234 A 
ATOM      6  O   UNL     1     -11.161  16.779  64.218  0.00  0.00    -0.283 OA
ATOM      7  C   UNL     1     -10.696  15.848  66.344  0.00  0.00    +0.045 A 
ATOM      8  C   UNL     1     -10.421  14.685  67.052  0.00  0.00    +0.002 A 
ENDROOT
BRANCH   1   9
ATOM      9  C   UNL     1      -9.970  12.168  67.032  0.00  0.00    +0.192 C 
ATOM     10  O   UNL     1      -8.883  13.000  67.703  0.00  0.00    -0.217 OA
BRANCH   9  12
ATOM     11  C   UNL     1      -9.835  10.591  68.952  0.00  0.00    +0.024 C 
ATOM     12  C   UNL     1     -10.781  11.860  68.535  0.00  0.00    +0.126 C 
ATOM     13  N   UNL     1     -11.820  10.897  67.864  0.00  0.00    -0.130 NA
ENDBRANCH   9  12
ENDBRANCH   1   9
TORSDOF 2
ENDMDL
MODEL 6
REMARK VINA RESULT:      -5.0      2.734      4.828
REMARK  Name = 
REMARK  2 active torsions:
REMARK  status: ('A' for Active; 'I' for Inactive)
REMARK    1  A    between atoms: C_2  and  C_4
REMARK    2  A    between atoms: C_4  and  C_6
REMARK                            x       y       z     vdW  Elec       q    Type
REMARK                         _______ _______ _______ _____ _____    ______ ____
ROOT
ATOM      1  C   UNL     1     -11.679  15.171  69.701  0.00  0.00    +0.013 A 
ATOM      2  C   UNL     1     -12.400  15.829  70.699  0.00  0.00    +0.044 A 
ATOM      3  C   UNL     1     -13.381  15.177  71.438  0.00  0.00    +0.234 A 
ATOM      4  O   UNL     1     -14.329  15.898  72.128  0.00  0.00    -0.283 OA
ATOM      5  C   UNL     1     -13.067  13.861  71.729  0.00  0.00    +0.234 A 
ATOM      6  O   UNL     1     -13.839  13.167  72.661  0.00  0.00    -0.283 OA
ATOM      7  C   UNL     1     -12.601  13.124  70.645  0.00  0.00    +0.045 A 
ATOM      8  C   UNL     1     -11.713  13.813  69.828  0.00  0.00    +0.002 A 
ENDROOT
BRANCH   1   9
ATOM      9  C   UNL     1     -10.230  15.861  69.449  0.00  0.00    +0.192 C 
ATOM     10  O   UNL     1      -9.566  14.549  69.044  0.00  0.00    -0.217 OA
BRANCH   9  12
ATOM     11  C   UNL     1      -9.114  16.576  67.343  0.00  0.00    +0.024 C 
ATOM     12  C   UNL     1     -10.649  16.254  67.812  0.00  0.00    +0.126 C 
ATOM     13  N   UNL     1     -10.887  17.765  68.156  0.00  0.00    -0.130 NA
ENDBRANCH   9  12
ENDBRANCH   1   9
TORSDOF 2
ENDMDL
MODEL 7
REMARK VINA RESULT:      -4.9      3.875      5.892
REMARK  Name = 
REMARK  2 active torsions:
REMARK  status: ('A' for Active; 'I' for Inactive)
REMARK    1  A    between atoms: C_2  and  C_4
REMARK    2  A    between atoms: C_4  and  C_6
REMARK                            x       y       z     vdW  Elec       q    Type
REMARK                         _______ _______ _______ _____ _____    ______ ____
ROOT
ATOM      1  C   UNL     1     -11.138  14.698  65.936  0.00  0.00    +0.013 A 
ATOM      2  C   UNL     1     -11.329  14.809  67.314  0.00  0.00    +0.044 A 
ATOM      3  C   UNL     1     -10.735  15.828  68.051  0.00  0.00    +0.234 A 
ATOM      4  O   UNL     1     -10.607  15.718  69.417  0.00  0.00    -0.283 OA
ATOM      5  C   UNL     1     -10.686  17.037  67.379  0.00  0.00    +0.234 A 
ATOM      6  O   UNL     1     -10.342  18.192  68.080  0.00  0.00    -0.283 OA
ATOM      7  C   UNL     1     -10.224  16.951  66.069  0.00  0.00    +0.045 A 
ATOM      8  C   UNL     1     -10.717  15.862  65.362  0.00  0.00    +0.002 A 
ENDROOT
BRANCH   1   9
ATOM      9  C   UNL     1     -12.366  13.913  65.219  0.00  0.00    +0.192 C 
ATOM     10  O   UNL     1     -12.495  14.937  64.097  0.00  0.00    -0.217 OA
BRANCH   9  12
ATOM     11  C   UNL     1     -12.435  12.145  63.469  0.00  0.00    +0.024 C 
ATOM     12  C   UNL     1     -11.267  12.927  64.308  0.00  0.00    +0.126 C 
ATOM     13  N   UNL     1     -11.260  11.798  65.397  0.00  0.00    -0.130 NA
ENDBRANCH   9  12
ENDBRANCH   1   9
TORSDOF 2
ENDMDL
MODEL 8
REMARK VINA RESULT:      -4.9      3.894      6.234
REMARK  Name = 
REMARK  2 active torsions:
REMARK  status: ('A' for Active; 'I' for Inactive)
REMARK    1  A    between atoms: C_2  and  C_4
REMARK    2  A    between atoms: C_4  and  C_6
REMARK                            x       y       z     vdW  Elec       q    Type
REMARK                         _______ _______ _______ _____ _____    ______ ____
ROOT
ATOM      1  C   UNL     1     -11.130  14.871  65.747  0.00  0.00    +0.013 A 
ATOM      2  C   UNL     1     -10.499  16.066  65.397  0.00  0.00    +0.044 A 
ATOM      3  C   UNL     1     -10.378  17.116  66.301  0.00  0.00    +0.234 A 
ATOM      4  O   UNL     1     -10.114  18.392  65.856  0.00  0.00    -0.283 OA
ATOM      5  C   UNL     1     -10.142  16.702  67.600  0.00  0.00    +0.234 A 
ATOM      6  O   UNL     1      -9.761  17.642  68.556  0.00  0.00    -0.283 OA
ATOM      7  C   UNL     1     -10.976  15.678  68.039  0.00  0.00    +0.045 A 
ATOM      8  C   UNL     1     -11.204  14.683  67.097  0.00  0.00    +0.002 A 
ENDROOT
BRANCH   1   9
ATOM      9  C   UNL     1     -10.604  13.625  64.847  0.00  0.00    +0.192 C 
ATOM     10  O   UNL     1     -10.306  12.749  66.059  0.00  0.00    -0.217 OA
BRANCH   9  12
ATOM     11  C   UNL     1     -11.793  11.774  63.685  0.00  0.00    +0.024 C 
ATOM     12  C   UNL     1     -12.214  13.000  64.685  0.00  0.00    +0.126 C 
ATOM     13  N   UNL     1     -12.530  13.925  63.458  0.00  0.00    -0.130 NA
ENDBRANCH   9  12
ENDBRANCH   1   9
TORSDOF 2
ENDMDL
MODEL 9
REMARK VINA RESULT:      -4.9      4.100      5.263
REMARK  Name = 
REMARK  2 active torsions:
REMARK  status: ('A' for Active; 'I' for Inactive)
REMARK    1  A    between atoms: C_2  and  C_4
REMARK    2  A    between atoms: C_4  and  C_6
REMARK                            x       y       z     vdW  Elec       q    Type
REMARK                         _______ _______ _______ _____ _____    ______ ____
ROOT
ATOM      1  C   UNL     1     -10.127  16.207  66.680  0.00  0.00    +0.013 A 
ATOM      2  C   UNL     1     -10.195  15.512  65.472  0.00  0.00    +0.044 A 
ATOM      3  C   UNL     1     -10.640  14.196  65.415  0.00  0.00    +0.234 A 
ATOM      4  O   UNL     1     -10.350  13.408  64.324  0.00  0.00    -0.283 OA
ATOM      5  C   UNL     1     -11.676  13.925  66.292  0.00  0.00    +0.234 A 
ATOM      6  O   UNL     1     -12.375  12.725  66.170  0.00  0.00    -0.283 OA
ATOM      7  C   UNL     1     -11.472  14.392  67.587  0.00  0.00    +0.045 A 
ATOM      8  C   UNL     1     -10.910  15.660  67.654  0.00  0.00    +0.002 A 
ENDROOT
BRANCH   1   9
ATOM      9  C   UNL     1     -10.225  17.814  66.457  0.00  0.00    +0.192 C 
ATOM     10  O   UNL     1     -10.960  18.050  67.773  0.00  0.00    -0.217 OA
BRANCH   9  12
ATOM     11  C   UNL     1      -8.791  19.689  67.242  0.00  0.00    +0.024 C 
ATOM     12  C   UNL     1      -8.669  18.058  67.184  0.00  0.00    +0.126 C 
ATOM     13  N   UNL     1      -7.949  18.137  65.793  0.00  0.00    -0.130 NA
ENDBRANCH   9  12
ENDBRANCH   1   9
TORSDOF 2
ENDMDL
