MODEL 1
REMARK VINA RESULT:      -7.4      0.000      0.000
REMARK  Name = 
REMARK  1 active torsions:
REMARK  status: ('A' for Active; 'I' for Inactive)
REMARK    1  A    between atoms: C_5  and  C_6
REMARK                            x       y       z     vdW  Elec       q    Type
REMARK                         _______ _______ _______ _____ _____    ______ ____
ROOT
ATOM      1  C   UNL     1     -10.536  13.900  68.369  0.00  0.00    +0.062 C 
ATOM      2  C   UNL     1     -11.693  13.150  69.255  0.00  0.00    -0.017 A 
ATOM      3  C   UNL     1     -11.986  13.619  70.524  0.00  0.00    -0.010 A 
ATOM      4  C   UNL     1     -12.705  12.768  71.354  0.00  0.00    +0.096 A 
ATOM      5  C   UNL     1     -12.661  11.405  71.086  0.00  0.00    +0.244 A 
ATOM      6  C   UNL     1     -11.826  10.886  70.105  0.00  0.00    +0.235 A 
ATOM      7  O   UNL     1     -11.152   9.690  70.361  0.00  0.00    -0.283 OA
ATOM      8  O   UNL     1     -13.408  10.532  71.849  0.00  0.00    -0.282 OA
ATOM      9 CL   UNL     1     -13.847  13.441  72.511  0.00  0.00    -0.079 Cl
ATOM     10  C   UNL     1     -11.667  14.841  71.278  0.00  0.00    +0.046 C 
ATOM     11  C   UNL     1     -11.782  16.101  70.474  0.00  0.00    +0.093 C 
ATOM     12  N   UNL     1     -10.847  16.076  69.379  0.00  0.00    -0.217 NA
ATOM     13  C   UNL     1     -11.391  11.795  69.149  0.00  0.00    +0.041 A 
ATOM     14  C   UNL     1     -11.427  15.310  68.300  0.00  0.00    +0.097 C 
ENDROOT
BRANCH   1  19
ATOM     15  O   UNL     1     -12.297  12.978  63.076  0.00  0.00    -0.287 OA
ATOM     16  C   UNL     1     -12.028  12.903  64.443  0.00  0.00    +0.196 A 
ATOM     17  C   UNL     1     -10.912  12.242  64.942  0.00  0.00    +0.042 A 
ATOM     18  C   UNL     1     -10.325  12.698  66.120  0.00  0.00    -0.001 A 
ATOM     19  C   UNL     1     -11.145  13.366  66.953  0.00  0.00    -0.017 A 
ATOM     20  C   UNL     1     -12.328  13.951  66.588  0.00  0.00    -0.001 A 
ATOM     21  C   UNL     1     -12.831  13.590  65.343  0.00  0.00    +0.042 A 
ENDBRANCH   1  19
TORSDOF 1
ENDMDL
MODEL 2
REMARK VINA RESULT:      -7.3      3.324      6.451
REMARK  Name = 
REMARK  1 active torsions:
REMARK  status: ('A' for Active; 'I' for Inactive)
REMARK    1  A    between atoms: C_5  and  C_6
REMARK                            x       y       z     vdW  Elec       q    Type
REMARK                         _______ _______ _______ _____ _____    ______ ____
ROOT
ATOM      1  C   UNL     1     -10.294  13.725  68.611  0.00  0.00    +0.062 C 
ATOM      2  C   UNL     1     -11.030  14.323  67.274  0.00  0.00    -0.017 A 
ATOM      3  C   UNL     1     -10.955  13.616  66.087  0.00  0.00    -0.010 A 
ATOM      4  C   UNL     1     -11.285  14.308  64.927  0.00  0.00    +0.096 A 
ATOM      5  C   UNL     1     -11.186  15.693  64.944  0.00  0.00    +0.244 A 
ATOM      6  C   UNL     1     -10.654  16.368  66.035  0.00  0.00    +0.235 A 
ATOM      7  O   UNL     1      -9.814  17.460  65.803  0.00  0.00    -0.283 OA
ATOM      8  O   UNL     1     -11.561  16.421  63.834  0.00  0.00    -0.282 OA
ATOM      9 CL   UNL     1     -12.068  13.457  63.600  0.00  0.00    -0.079 Cl
ATOM     10  C   UNL     1     -10.543  12.255  65.712  0.00  0.00    +0.046 C 
ATOM     11  C   UNL     1     -11.035  11.190  66.647  0.00  0.00    +0.093 C 
ATOM     12  N   UNL     1     -10.495  11.402  67.965  0.00  0.00    -0.217 NA
ATOM     13  C   UNL     1     -10.638  15.658  67.228  0.00  0.00    +0.041 A 
ATOM     14  C   UNL     1     -11.302  12.394  68.636  0.00  0.00    +0.097 C 
ENDROOT
BRANCH   1  19
ATOM     15  O   UNL     1     -13.322  15.907  72.859  0.00  0.00    -0.287 OA
ATOM     16  C   UNL     1     -12.743  15.611  71.624  0.00  0.00    +0.196 A 
ATOM     17  C   UNL     1     -11.594  16.251  71.174  0.00  0.00    +0.042 A 
ATOM     18  C   UNL     1     -10.713  15.556  70.349  0.00  0.00    -0.001 A 
ATOM     19  C   UNL     1     -11.259  14.560  69.628  0.00  0.00    -0.017 A 
ATOM     20  C   UNL     1     -12.448  13.943  69.916  0.00  0.00    -0.001 A 
ATOM     21  C   UNL     1     -13.256  14.580  70.851  0.00  0.00    +0.042 A 
ENDBRANCH   1  19
TORSDOF 1
ENDMDL
MODEL 3
REMARK VINA RESULT:      -7.2      3.672      5.228
REMARK  Name = 
REMARK  1 active torsions:
REMARK  status: ('A' for Active; 'I' for Inactive)
REMARK    1  A    between atoms: C_5  and  C_6
REMARK                            x       y       z     vdW  Elec       q    Type
REMARK                         _______ _______ _______ _____ _____    ______ ____
ROOT
ATOM      1  C   UNL     1     -11.914  12.638  66.236  0.00  0.00    +0.062 C 
ATOM      2  C   UNL     1     -10.999  13.995  66.307  0.00  0.00    -0.017 A 
ATOM      3  C   UNL     1     -11.104  14.827  67.408  0.00  0.00    -0.010 A 
ATOM      4  C   UNL     1     -10.586  16.109  67.274  0.00  0.00    +0.096 A 
ATOM      5  C   UNL     1     -10.457  16.630  65.992  0.00  0.00    +0.244 A 
ATOM      6  C   UNL     1     -10.947  15.953  64.883  0.00  0.00    +0.235 A 
ATOM      7  O   UNL     1     -11.579  16.686  63.875  0.00  0.00    -0.283 OA
ATOM      8  O   UNL     1      -9.891  17.874  65.812  0.00  0.00    -0.282 OA
ATOM      9 CL   UNL     1      -9.861  16.905  68.667  0.00  0.00    -0.079 Cl
ATOM     10  C   UNL     1     -11.706  14.709  68.745  0.00  0.00    +0.046 C 
ATOM     11  C   UNL     1     -11.462  13.386  69.408  0.00  0.00    +0.093 C 
ATOM     12  N   UNL     1     -12.051  12.327  68.631  0.00  0.00    -0.217 NA
ATOM     13  C   UNL     1     -11.162  14.593  65.060  0.00  0.00    +0.041 A 
ATOM     14  C   UNL     1     -11.142  11.983  67.563  0.00  0.00    +0.097 C 
ENDROOT
BRANCH   1  19
ATOM     15  O   UNL     1      -8.866   9.178  62.963  0.00  0.00    -0.287 OA
ATOM     16  C   UNL     1      -9.403  10.275  63.640  0.00  0.00    +0.196 A 
ATOM     17  C   UNL     1     -10.408  11.062  63.092  0.00  0.00    +0.042 A 
ATOM     18  C   UNL     1     -11.331  11.668  63.941  0.00  0.00    -0.001 A 
ATOM     19  C   UNL     1     -10.900  11.898  65.194  0.00  0.00    -0.017 A 
ATOM     20  C   UNL     1      -9.841  11.263  65.789  0.00  0.00    -0.001 A 
ATOM     21  C   UNL     1      -9.006  10.543  64.942  0.00  0.00    +0.042 A 
ENDBRANCH   1  19
TORSDOF 1
ENDMDL
MODEL 4
REMARK VINA RESULT:      -6.9      4.077      5.688
REMARK  Name = 
REMARK  1 active torsions:
REMARK  status: ('A' for Active; 'I' for Inactive)
REMARK    1  A    between atoms: C_5  and  C_6
REMARK                            x       y       z     vdW  Elec       q    Type
REMARK                         _______ _______ _______ _____ _____    ______ ____
ROOT
ATOM      1  C   UNL     1     -10.659  17.101  66.962  0.00  0.00    +0.062 C 
ATOM      2  C   UNL     1     -10.817  15.787  67.930  0.00  0.00    -0.017 A 
ATOM      3  C   UNL     1     -11.445  14.656  67.441  0.00  0.00    -0.010 A 
ATOM      4  C   UNL     1     -11.857  13.716  68.377  0.00  0.00    +0.096 A 
ATOM      5  C   UNL     1     -12.067  14.144  69.682  0.00  0.00    +0.244 A 
ATOM      6  C   UNL     1     -11.996  15.488  70.024  0.00  0.00    +0.235 A 
ATOM      7  O   UNL     1     -12.932  16.002  70.925  0.00  0.00    -0.283 OA
ATOM      8  O   UNL     1     -12.417  13.231  70.655  0.00  0.00    -0.282 OA
ATOM      9 CL   UNL     1     -11.827  12.005  67.964  0.00  0.00    -0.079 Cl
ATOM     10  C   UNL     1     -11.858  14.192  66.107  0.00  0.00    +0.046 C 
ATOM     11  C   UNL     1     -10.841  14.441  65.034  0.00  0.00    +0.093 C 
ATOM     12  N   UNL     1     -10.609  15.855  64.890  0.00  0.00    -0.217 NA
ATOM     13  C   UNL     1     -11.301  16.295  69.133  0.00  0.00    +0.041 A 
ATOM     14  C   UNL     1      -9.670  16.270  65.905  0.00  0.00    +0.097 C 
ENDROOT
BRANCH   1  19
ATOM     15  O   UNL     1      -5.811  19.257  68.918  0.00  0.00    -0.287 OA
ATOM     16  C   UNL     1      -7.074  18.678  68.775  0.00  0.00    +0.196 A 
ATOM     17  C   UNL     1      -8.239  19.436  68.786  0.00  0.00    +0.042 A 
ATOM     18  C   UNL     1      -9.332  19.006  68.038  0.00  0.00    -0.001 A 
ATOM     19  C   UNL     1      -9.388  17.682  67.803  0.00  0.00    -0.017 A 
ATOM     20  C   UNL     1      -8.322  16.825  67.883  0.00  0.00    -0.001 A 
ATOM     21  C   UNL     1      -7.185  17.321  68.512  0.00  0.00    +0.042 A 
ENDBRANCH   1  19
TORSDOF 1
ENDMDL
MODEL 5
REMARK VINA RESULT:      -6.6      3.080      5.562
REMARK  Name = 
REMARK  1 active torsions:
REMARK  status: ('A' for Active; 'I' for Inactive)
REMARK    1  A    between atoms: C_5  and  C_6
REMARK                            x       y       z     vdW  Elec       q    Type
REMARK                         _______ _______ _______ _____ _____    ______ ____
ROOT
ATOM      1  C   UNL     1     -12.095  15.438  68.967  0.00  0.00    +0.062 C 
ATOM      2  C   UNL     1     -11.010  14.210  68.975  0.00  0.00    -0.017 A 
ATOM      3  C   UNL     1     -10.049  14.147  67.981  0.00  0.00    -0.010 A 
ATOM      4  C   UNL     1      -9.387  12.936  67.827  0.00  0.00    +0.096 A 
ATOM      5  C   UNL     1     -10.016  11.786  68.289  0.00  0.00    +0.244 A 
ATOM      6  C   UNL     1     -11.318  11.817  68.771  0.00  0.00    +0.235 A 
ATOM      7  O   UNL     1     -12.183  10.771  68.437  0.00  0.00    -0.283 OA
ATOM      8  O   UNL     1      -9.368  10.571  68.210  0.00  0.00    -0.282 OA
ATOM      9 CL   UNL     1      -7.700  12.923  67.328  0.00  0.00    -0.079 Cl
ATOM     10  C   UNL     1      -9.557  15.077  66.952  0.00  0.00    +0.046 C 
ATOM     11  C   UNL     1      -9.374  16.483  67.439  0.00  0.00    +0.093 C 
ATOM     12  N   UNL     1     -10.637  17.026  67.870  0.00  0.00    -0.217 NA
ATOM     13  C   UNL     1     -11.780  13.065  69.167  0.00  0.00    +0.041 A 
ATOM     14  C   UNL     1     -10.894  16.572  69.216  0.00  0.00    +0.097 C 
ENDROOT
BRANCH   1  19
ATOM     15  O   UNL     1     -13.048  16.037  74.508  0.00  0.00    -0.287 OA
ATOM     16  C   UNL     1     -12.824  15.549  73.219  0.00  0.00    +0.196 A 
ATOM     17  C   UNL     1     -13.867  15.246  72.352  0.00  0.00    +0.042 A 
ATOM     18  C   UNL     1     -13.672  15.399  70.981  0.00  0.00    -0.001 A 
ATOM     19  C   UNL     1     -12.396  15.305  70.564  0.00  0.00    -0.017 A 
ATOM     20  C   UNL     1     -11.295  15.466  71.364  0.00  0.00    -0.001 A 
ATOM     21  C   UNL     1     -11.528  15.452  72.735  0.00  0.00    +0.042 A 
ENDBRANCH   1  19
TORSDOF 1
ENDMDL
MODEL 6
REMARK VINA RESULT:      -6.6      3.390      4.905
REMARK  Name = 
REMARK  1 active torsions:
REMARK  status: ('A' for Active; 'I' for Inactive)
REMARK    1  A    between atoms: C_5  and  C_6
REMARK                            x       y       z     vdW  Elec       q    Type
REMARK                         _______ _______ _______ _____ _____    ______ ____
ROOT
ATOM      1  C   UNL     1     -11.148  15.402  67.366  0.00  0.00    +0.062 C 
ATOM      2  C   UNL     1     -11.286  14.633  68.807  0.00  0.00    -0.017 A 
ATOM      3  C   UNL     1     -11.657  13.300  68.831  0.00  0.00    -0.010 A 
ATOM      4  C   UNL     1     -12.090  12.794  70.051  0.00  0.00    +0.096 A 
ATOM      5  C   UNL     1     -12.580  13.692  70.991  0.00  0.00    +0.244 A 
ATOM      6  C   UNL     1     -12.758  15.035  70.687  0.00  0.00    +0.235 A 
ATOM      7  O   UNL     1     -13.899  15.686  71.164  0.00  0.00    -0.283 OA
ATOM      8  O   UNL     1     -12.964  13.239  72.236  0.00  0.00    -0.282 OA
ATOM      9 CL   UNL     1     -11.751  11.119  70.468  0.00  0.00    -0.079 Cl
ATOM     10  C   UNL     1     -11.763  12.233  67.824  0.00  0.00    +0.046 C 
ATOM     11  C   UNL     1     -10.619  12.194  66.855  0.00  0.00    +0.093 C 
ATOM     12  N   UNL     1     -10.566  13.422  66.104  0.00  0.00    -0.217 NA
ATOM     13  C   UNL     1     -12.038  15.501  69.595  0.00  0.00    +0.041 A 
ATOM     14  C   UNL     1      -9.884  14.415  66.900  0.00  0.00    +0.097 C 
ENDROOT
BRANCH   1  19
ATOM     15  O   UNL     1      -7.203  19.301  68.462  0.00  0.00    -0.287 OA
ATOM     16  C   UNL     1      -8.246  18.376  68.532  0.00  0.00    +0.196 A 
ATOM     17  C   UNL     1      -9.574  18.744  68.358  0.00  0.00    +0.042 A 
ATOM     18  C   UNL     1     -10.463  17.828  67.800  0.00  0.00    -0.001 A 
ATOM     19  C   UNL     1     -10.136  16.533  67.962  0.00  0.00    -0.017 A 
ATOM     20  C   UNL     1      -8.879  16.072  68.256  0.00  0.00    -0.001 A 
ATOM     21  C   UNL     1      -7.961  17.026  68.679  0.00  0.00    +0.042 A 
ENDBRANCH   1  19
TORSDOF 1
ENDMDL
MODEL 7
REMARK VINA RESULT:      -6.4      3.476      5.350
REMARK  Name = 
REMARK  1 active torsions:
REMARK  status: ('A' for Active; 'I' for Inactive)
REMARK    1  A    between atoms: C_5  and  C_6
REMARK                            x       y       z     vdW  Elec       q    Type
REMARK                         _______ _______ _______ _____ _____    ______ ____
ROOT
ATOM      1  C   UNL     1     -12.144  14.239  66.577  0.00  0.00    +0.062 C 
ATOM      2  C   UNL     1     -11.036  13.031  66.603  0.00  0.00    -0.017 A 
ATOM      3  C   UNL     1     -11.129  12.006  65.678  0.00  0.00    -0.010 A 
ATOM      4  C   UNL     1     -10.400  10.854  65.946  0.00  0.00    +0.096 A 
ATOM      5  C   UNL     1     -10.048  10.599  67.265  0.00  0.00    +0.244 A 
ATOM      6  C   UNL     1     -10.513  11.392  68.306  0.00  0.00    +0.235 A 
ATOM      7  O   UNL     1     -10.903  10.774  69.497  0.00  0.00    -0.283 OA
ATOM      8  O   UNL     1      -9.273   9.498  67.567  0.00  0.00    -0.282 OA
ATOM      9 CL   UNL     1      -9.718   9.927  64.615  0.00  0.00    -0.079 Cl
ATOM     10  C   UNL     1     -11.888  11.795  64.435  0.00  0.00    +0.046 C 
ATOM     11  C   UNL     1     -11.935  12.995  63.538  0.00  0.00    +0.093 C 
ATOM     12  N   UNL     1     -12.596  14.087  64.206  0.00  0.00    -0.217 NA
ATOM     13  C   UNL     1     -10.962  12.654  67.941  0.00  0.00    +0.041 A 
ATOM     14  C   UNL     1     -11.639  14.742  65.067  0.00  0.00    +0.097 C 
ENDROOT
BRANCH   1  19
ATOM     15  O   UNL     1      -9.264  18.625  68.687  0.00  0.00    -0.287 OA
ATOM     16  C   UNL     1      -9.733  17.357  68.337  0.00  0.00    +0.196 A 
ATOM     17  C   UNL     1     -10.637  16.659  69.129  0.00  0.00    +0.042 A 
ATOM     18  C   UNL     1     -11.541  15.793  68.519  0.00  0.00    -0.001 A 
ATOM     19  C   UNL     1     -11.151  15.290  67.334  0.00  0.00    -0.017 A 
ATOM     20  C   UNL     1     -10.182  15.832  66.531  0.00  0.00    -0.001 A 
ATOM     21  C   UNL     1      -9.375  16.801  67.117  0.00  0.00    +0.042 A 
ENDBRANCH   1  19
TORSDOF 1
ENDMDL
MODEL 8
REMARK VINA RESULT:      -6.3      4.392      6.153
REMARK  Name = 
REMARK  1 active torsions:
REMARK  status: ('A' for Active; 'I' for Inactive)
REMARK    1  A    between atoms: C_5  and  C_6
REMARK                            x       y       z     vdW  Elec       q    Type
REMARK                         _______ _______ _______ _____ _____    ______ ____
ROOT
ATOM      1  C   UNL     1      -9.792  14.584  67.705  0.00  0.00    +0.062 C 
ATOM      2  C   UNL     1      -9.226  15.923  66.949  0.00  0.00    -0.017 A 
ATOM      3  C   UNL     1      -7.999  16.444  67.321  0.00  0.00    -0.010 A 
ATOM      4  C   UNL     1      -7.721  17.742  66.911  0.00  0.00    +0.096 A 
ATOM      5  C   UNL     1      -8.792  18.575  66.614  0.00  0.00    +0.244 A 
ATOM      6  C   UNL     1     -10.104  18.177  66.839  0.00  0.00    +0.235 A 
ATOM      7  O   UNL     1     -11.008  19.109  67.355  0.00  0.00    -0.283 OA
ATOM      8  O   UNL     1      -8.559  19.851  66.146  0.00  0.00    -0.282 OA
ATOM      9 CL   UNL     1      -6.067  18.195  66.516  0.00  0.00    -0.079 Cl
ATOM     10  C   UNL     1      -6.868  15.962  68.130  0.00  0.00    +0.046 C 
ATOM     11  C   UNL     1      -6.506  14.529  67.879  0.00  0.00    +0.093 C 
ATOM     12  N   UNL     1      -7.612  13.673  68.223  0.00  0.00    -0.217 NA
ATOM     13  C   UNL     1     -10.301  16.808  66.951  0.00  0.00    +0.041 A 
ATOM     14  C   UNL     1      -8.538  13.654  67.114  0.00  0.00    +0.097 C 
ENDROOT
BRANCH   1  19
ATOM     15  O   UNL     1     -12.988  12.189  63.703  0.00  0.00    -0.287 OA
ATOM     16  C   UNL     1     -12.277  13.073  64.516  0.00  0.00    +0.196 A 
ATOM     17  C   UNL     1     -12.865  13.717  65.598  0.00  0.00    +0.042 A 
ATOM     18  C   UNL     1     -12.082  14.030  66.706  0.00  0.00    -0.001 A 
ATOM     19  C   UNL     1     -10.767  14.182  66.461  0.00  0.00    -0.017 A 
ATOM     20  C   UNL     1     -10.112  13.690  65.363  0.00  0.00    -0.001 A 
ATOM     21  C   UNL     1     -10.916  13.250  64.317  0.00  0.00    +0.042 A 
ENDBRANCH   1  19
TORSDOF 1
ENDMDL
MODEL 9
REMARK VINA RESULT:      -6.3      1.656      2.298
REMARK  Name = 
REMARK  1 active torsions:
REMARK  status: ('A' for Active; 'I' for Inactive)
REMARK    1  A    between atoms: C_5  and  C_6
REMARK                            x       y       z     vdW  Elec       q    Type
REMARK                         _______ _______ _______ _____ _____    ______ ____
ROOT
ATOM      1  C   UNL     1      -9.734  14.724  66.763  0.00  0.00    +0.062 C 
ATOM      2  C   UNL     1     -10.936  14.417  67.835  0.00  0.00    -0.017 A 
ATOM      3  C   UNL     1     -11.022  15.171  68.992  0.00  0.00    -0.010 A 
ATOM      4  C   UNL     1     -11.821  14.665  70.009  0.00  0.00    +0.096 A 
ATOM      5  C   UNL     1     -12.069  13.298  70.025  0.00  0.00    +0.244 A 
ATOM      6  C   UNL     1     -11.439  12.437  69.135  0.00  0.00    +0.235 A 
ATOM      7  O   UNL     1     -10.994  11.198  69.601  0.00  0.00    -0.283 OA
ATOM      8  O   UNL     1     -12.905  12.764  70.982  0.00  0.00    -0.282 OA
ATOM      9 CL   UNL     1     -12.705  15.771  71.054  0.00  0.00    -0.079 Cl
ATOM     10  C   UNL     1     -10.405  16.420  69.466  0.00  0.00    +0.046 C 
ATOM     11  C   UNL     1     -10.338  17.499  68.426  0.00  0.00    +0.093 C 
ATOM     12  N   UNL     1      -9.523  17.069  67.319  0.00  0.00    -0.217 NA
ATOM     13  C   UNL     1     -10.917  13.034  67.995  0.00  0.00    +0.041 A 
ATOM     14  C   UNL     1     -10.333  16.250  66.447  0.00  0.00    +0.097 C 
ENDROOT
BRANCH   1  19
ATOM     15  O   UNL     1     -13.016  11.831  63.181  0.00  0.00    -0.287 OA
ATOM     16  C   UNL     1     -12.084  12.688  63.770  0.00  0.00    +0.196 A 
ATOM     17  C   UNL     1     -12.398  13.996  64.115  0.00  0.00    +0.042 A 
ATOM     18  C   UNL     1     -11.762  14.578  65.210  0.00  0.00    -0.001 A 
ATOM     19  C   UNL     1     -10.555  14.069  65.515  0.00  0.00    -0.017 A 
ATOM     20  C   UNL     1     -10.100  12.837  65.122  0.00  0.00    -0.001 A 
ATOM     21  C   UNL     1     -10.831  12.206  64.122  0.00  0.00    +0.042 A 
ENDBRANCH   1  19
TORSDOF 1
ENDMDL
