MODEL 1
REMARK VINA RESULT:      -6.5      0.000      0.000
REMARK  Name = 
REMARK  18 active torsions:
REMARK  status: ('A' for Active; 'I' for Inactive)
REMARK    1  A    between atoms: O_2  and  C_3
REMARK    2  A    between atoms: N_5  and  C_6
REMARK    3  A    between atoms: C_6  and  C_7
REMARK    4  A    between atoms: C_6  and  C_48
REMARK    5  A    between atoms: N_9  and  C_10
REMARK    6  A    between atoms: C_10  and  C_11
REMARK    7  A    between atoms: C_10  and  C_18
REMARK    8  A    between atoms: C_11  and  C_12
REMARK    9  A    between atoms: C_18  and  C_20
REMARK   10  A    between atoms: C_20  and  N_21
REMARK   11  A    between atoms: N_21  and  C_22
REMARK   12  A    between atoms: N_21  and  N_35
REMARK   13  A    between atoms: C_22  and  C_23
REMARK   14  A    between atoms: C_26  and  C_27
REMARK   15  A    between atoms: C_36  and  C_38
REMARK   16  A    between atoms: C_38  and  N_39
REMARK   17  A    between atoms: C_38  and  C_44
REMARK   18  A    between atoms: C_40  and  O_42
REMARK                            x       y       z     vdW  Elec       q    Type
REMARK                         _______ _______ _______ _____ _____    ______ ____
ROOT
ATOM      1  N   UNL     1      -7.184  14.371  67.550  0.00  0.00    -0.177 NA
ENDROOT
BRANCH   1   2
ATOM      2  N   UNL     1      -5.986  15.007  67.237  0.00  0.00    -0.126 NA
ATOM      3  C   UNL     1      -5.340  15.985  68.076  0.00  0.00    +0.276 C 
ATOM      4  O   UNL     1      -6.206  16.439  68.900  0.00  0.00    -0.270 OA
BRANCH   3   5
ATOM      5  C   UNL     1      -4.976  17.328  67.188  0.00  0.00    +0.177 C 
BRANCH   5   6
ATOM      6  C   UNL     1      -3.979  18.034  68.318  0.00  0.00    +0.027 C 
ATOM      7  C   UNL     1      -3.140  17.082  68.963  0.00  0.00    +0.002 C 
ATOM      8  C   UNL     1      -4.662  19.121  68.980  0.00  0.00    +0.002 C 
ATOM      9  C   UNL     1      -3.054  18.747  67.315  0.00  0.00    +0.002 C 
ENDBRANCH   5   6
BRANCH   5  10
ATOM     10  N   UNL     1      -6.287  18.127  67.627  0.00  0.00    -0.161 NA
ATOM     11  C   UNL     1      -7.244  18.427  66.701  0.00  0.00    +0.422 C 
ATOM     12  O   UNL     1      -7.124  18.222  65.492  0.00  0.00    -0.225 OA
BRANCH  11  13
ATOM     13  O   UNL     1      -8.459  18.931  67.145  0.00  0.00    -0.429 OA
ATOM     14  C   UNL     1      -8.634  19.219  68.521  0.00  0.00    +0.257 C 
ENDBRANCH  11  13
ENDBRANCH   5  10
ENDBRANCH   3   5
ENDBRANCH   1   2
BRANCH   1  15
ATOM     15  C   UNL     1      -7.135  12.936  67.300  0.00  0.00    +0.129 C 
BRANCH  15  16
ATOM     16  C   UNL     1      -7.682  12.242  68.703  0.00  0.00    +0.190 C 
ATOM     17  O   UNL     1      -6.491  11.287  68.733  0.00  0.00    -0.220 OA
BRANCH  16  18
ATOM     18  C   UNL     1      -8.661  11.094  67.829  0.00  0.00    +0.131 C 
BRANCH  18  20
ATOM     19  C   UNL     1      -9.448   8.945  68.718  0.00  0.00    +0.261 C 
ATOM     20  N   UNL     1      -8.901  10.219  69.116  0.00  0.00    -0.203 NA
ATOM     21  O   UNL     1     -10.682   9.189  68.646  0.00  0.00    -0.271 OA
BRANCH  19  22
ATOM     22  C   UNL     1      -9.075   7.729  69.744  0.00  0.00    +0.176 C 
BRANCH  22  23
ATOM     23  C   UNL     1      -8.828   6.681  68.472  0.00  0.00    +0.027 C 
ATOM     24  C   UNL     1      -8.221   7.469  67.378  0.00  0.00    +0.002 C 
ATOM     25  C   UNL     1      -7.814   5.704  69.007  0.00  0.00    +0.002 C 
ATOM     26  C   UNL     1     -10.143   6.052  68.198  0.00  0.00    +0.002 C 
ENDBRANCH  22  23
BRANCH  22  28
ATOM     27  C   UNL     1     -11.049   7.311  71.258  0.00  0.00    +0.422 C 
ATOM     28  N   UNL     1     -10.607   7.294  69.913  0.00  0.00    -0.161 NA
ATOM     29  O   UNL     1     -10.774   8.310  71.957  0.00  0.00    -0.225 OA
BRANCH  27  31
ATOM     30  C   UNL     1     -13.407   7.227  71.549  0.00  0.00    +0.257 C 
ATOM     31  O   UNL     1     -12.247   6.654  71.554  0.00  0.00    -0.429 OA
ENDBRANCH  27  31
ENDBRANCH  22  28
ENDBRANCH  19  22
ENDBRANCH  18  20
BRANCH  18  32
ATOM     32  C   UNL     1     -10.011  12.017  68.002  0.00  0.00    +0.051 C 
BRANCH  32  33
ATOM     33  C   UNL     1     -10.660  11.914  66.652  0.00  0.00    -0.020 A 
ATOM     34  C   UNL     1      -9.926  11.868  65.472  0.00  0.00    -0.004 A 
ATOM     35  C   UNL     1     -10.211  12.803  64.479  0.00  0.00    -0.000 A 
ATOM     36  C   UNL     1     -11.468  13.393  64.407  0.00  0.00    -0.000 A 
ATOM     37  C   UNL     1     -12.426  12.813  65.232  0.00  0.00    -0.000 A 
ATOM     38  C   UNL     1     -11.989  12.266  66.435  0.00  0.00    -0.004 A 
ENDBRANCH  32  33
ENDBRANCH  18  32
ENDBRANCH  16  18
ENDBRANCH  15  16
ENDBRANCH   1  15
BRANCH   1  39
ATOM     39  C   UNL     1      -8.272  15.006  66.855  0.00  0.00    +0.120 C 
BRANCH  39  40
ATOM     40  C   UNL     1      -9.353  15.488  67.734  0.00  0.00    -0.004 A 
ATOM     41  C   UNL     1      -9.192  15.536  69.113  0.00  0.00    -0.003 A 
ATOM     42  C   UNL     1     -10.305  15.928  69.847  0.00  0.00    +0.001 A 
ATOM     43  C   UNL     1     -11.562  15.543  69.398  0.00  0.00    +0.018 A 
ATOM     44  C   UNL     1     -11.730  15.361  68.030  0.00  0.00    +0.001 A 
ATOM     45  C   UNL     1     -10.635  15.595  67.206  0.00  0.00    -0.003 A 
BRANCH  43  46
ATOM     46  C   UNL     1     -12.561  14.933  70.286  0.00  0.00    +0.081 A 
ATOM     47  N   UNL     1     -13.222  15.765  71.103  0.00  0.00    -0.244 NA
ATOM     48  C   UNL     1     -13.899  15.253  72.134  0.00  0.00    +0.099 A 
ATOM     49  C   UNL     1     -13.920  13.896  72.343  0.00  0.00    +0.021 A 
ATOM     50  C   UNL     1     -13.123  13.058  71.605  0.00  0.00    +0.003 A 
ATOM     51  C   UNL     1     -12.307  13.616  70.651  0.00  0.00    +0.019 A 
ENDBRANCH  43  46
ENDBRANCH  39  40
ENDBRANCH   1  39
TORSDOF 18
ENDMDL
MODEL 2
REMARK VINA RESULT:      -6.5      1.431      1.764
REMARK  Name = 
REMARK  18 active torsions:
REMARK  status: ('A' for Active; 'I' for Inactive)
REMARK    1  A    between atoms: O_2  and  C_3
REMARK    2  A    between atoms: N_5  and  C_6
REMARK    3  A    between atoms: C_6  and  C_7
REMARK    4  A    between atoms: C_6  and  C_48
REMARK    5  A    between atoms: N_9  and  C_10
REMARK    6  A    between atoms: C_10  and  C_11
REMARK    7  A    between atoms: C_10  and  C_18
REMARK    8  A    between atoms: C_11  and  C_12
REMARK    9  A    between atoms: C_18  and  C_20
REMARK   10  A    between atoms: C_20  and  N_21
REMARK   11  A    between atoms: N_21  and  C_22
REMARK   12  A    between atoms: N_21  and  N_35
REMARK   13  A    between atoms: C_22  and  C_23
REMARK   14  A    between atoms: C_26  and  C_27
REMARK   15  A    between atoms: C_36  and  C_38
REMARK   16  A    between atoms: C_38  and  N_39
REMARK   17  A    between atoms: C_38  and  C_44
REMARK   18  A    between atoms: C_40  and  O_42
REMARK                            x       y       z     vdW  Elec       q    Type
REMARK                         _______ _______ _______ _____ _____    ______ ____
ROOT
ATOM      1  N   UNL     1      -7.382  14.214  67.606  0.00  0.00    -0.177 NA
ENDROOT
BRANCH   1   2
ATOM      2  N   UNL     1      -6.057  14.596  67.415  0.00  0.00    -0.126 NA
ATOM      3  C   UNL     1      -5.130  14.880  68.481  0.00  0.00    +0.276 C 
ATOM      4  O   UNL     1      -5.801  15.107  69.546  0.00  0.00    -0.270 OA
BRANCH   3   5
ATOM      5  C   UNL     1      -4.405  16.339  68.216  0.00  0.00    +0.177 C 
BRANCH   5   6
ATOM      6  C   UNL     1      -2.838  15.785  68.292  0.00  0.00    +0.027 C 
ATOM      7  C   UNL     1      -2.566  14.803  67.297  0.00  0.00    +0.002 C 
ATOM      8  C   UNL     1      -2.395  15.718  69.666  0.00  0.00    +0.002 C 
ATOM      9  C   UNL     1      -2.172  17.068  67.761  0.00  0.00    +0.002 C 
ENDBRANCH   5   6
BRANCH   5  10
ATOM     10  N   UNL     1      -4.476  16.793  69.745  0.00  0.00    -0.161 NA
ATOM     11  C   UNL     1      -4.783  18.085  70.058  0.00  0.00    +0.422 C 
ATOM     12  O   UNL     1      -4.905  18.987  69.228  0.00  0.00    -0.225 OA
BRANCH  11  13
ATOM     13  O   UNL     1      -5.043  18.401  71.385  0.00  0.00    -0.429 OA
ATOM     14  C   UNL     1      -5.382  19.732  71.733  0.00  0.00    +0.257 C 
ENDBRANCH  11  13
ENDBRANCH   5  10
ENDBRANCH   3   5
ENDBRANCH   1   2
BRANCH   1  15
ATOM     15  C   UNL     1      -7.629  12.837  67.198  0.00  0.00    +0.129 C 
BRANCH  15  16
ATOM     16  C   UNL     1      -8.066  12.052  68.593  0.00  0.00    +0.190 C 
ATOM     17  O   UNL     1      -6.842  11.144  68.502  0.00  0.00    -0.220 OA
BRANCH  16  18
ATOM     18  C   UNL     1      -9.054  10.912  67.718  0.00  0.00    +0.131 C 
BRANCH  18  20
ATOM     19  C   UNL     1      -9.674   8.819  68.840  0.00  0.00    +0.261 C 
ATOM     20  N   UNL     1      -9.573  10.243  69.045  0.00  0.00    -0.203 NA
ATOM     21  O   UNL     1     -10.819   8.700  68.325  0.00  0.00    -0.271 OA
BRANCH  19  22
ATOM     22  C   UNL     1      -9.474   7.951  70.210  0.00  0.00    +0.176 C 
BRANCH  22  23
ATOM     23  C   UNL     1      -8.801   6.688  69.354  0.00  0.00    +0.027 C 
ATOM     24  C   UNL     1      -7.912   7.285  68.336  0.00  0.00    +0.002 C 
ATOM     25  C   UNL     1      -7.971   5.964  70.382  0.00  0.00    +0.002 C 
ATOM     26  C   UNL     1      -9.940   5.876  68.860  0.00  0.00    +0.002 C 
ENDBRANCH  22  23
BRANCH  22  28
ATOM     27  C   UNL     1     -11.741   7.618  71.264  0.00  0.00    +0.422 C 
ATOM     28  N   UNL     1     -10.947   7.330  70.127  0.00  0.00    -0.161 NA
ATOM     29  O   UNL     1     -11.759   8.795  71.686  0.00  0.00    -0.225 OA
BRANCH  27  31
ATOM     30  C   UNL     1     -14.090   7.393  71.559  0.00  0.00    +0.257 C 
ATOM     31  O   UNL     1     -12.911   6.874  71.443  0.00  0.00    -0.429 OA
ENDBRANCH  27  31
ENDBRANCH  22  28
ENDBRANCH  19  22
ENDBRANCH  18  20
BRANCH  18  32
ATOM     32  C   UNL     1     -10.288  11.990  67.582  0.00  0.00    +0.051 C 
BRANCH  32  33
ATOM     33  C   UNL     1     -10.940  11.590  66.289  0.00  0.00    -0.020 A 
ATOM     34  C   UNL     1     -10.344  10.706  65.396  0.00  0.00    -0.004 A 
ATOM     35  C   UNL     1     -10.171  11.117  64.076  0.00  0.00    -0.000 A 
ATOM     36  C   UNL     1     -10.995  12.094  63.528  0.00  0.00    -0.000 A 
ATOM     37  C   UNL     1     -12.094  12.428  64.313  0.00  0.00    -0.000 A 
ATOM     38  C   UNL     1     -11.943  12.348  65.694  0.00  0.00    -0.004 A 
ENDBRANCH  32  33
ENDBRANCH  18  32
ENDBRANCH  16  18
ENDBRANCH  15  16
ENDBRANCH   1  15
BRANCH   1  39
ATOM     39  C   UNL     1      -8.260  15.142  66.945  0.00  0.00    +0.120 C 
BRANCH  39  40
ATOM     40  C   UNL     1      -9.404  15.583  67.765  0.00  0.00    -0.004 A 
ATOM     41  C   UNL     1      -9.280  15.760  69.137  0.00  0.00    -0.003 A 
ATOM     42  C   UNL     1     -10.443  16.097  69.820  0.00  0.00    +0.001 A 
ATOM     43  C   UNL     1     -11.644  15.551  69.386  0.00  0.00    +0.018 A 
ATOM     44  C   UNL     1     -11.762  15.241  68.036  0.00  0.00    +0.001 A 
ATOM     45  C   UNL     1     -10.677  15.516  67.211  0.00  0.00    -0.003 A 
BRANCH  43  46
ATOM     46  C   UNL     1     -12.598  14.918  70.307  0.00  0.00    +0.081 A 
ATOM     47  N   UNL     1     -13.225  15.730  71.169  0.00  0.00    -0.244 NA
ATOM     48  C   UNL     1     -13.851  15.195  72.221  0.00  0.00    +0.099 A 
ATOM     49  C   UNL     1     -13.854  13.834  72.406  0.00  0.00    +0.021 A 
ATOM     50  C   UNL     1     -13.087  13.015  71.616  0.00  0.00    +0.003 A 
ATOM     51  C   UNL     1     -12.319  13.596  70.636  0.00  0.00    +0.019 A 
ENDBRANCH  43  46
ENDBRANCH  39  40
ENDBRANCH   1  39
TORSDOF 18
ENDMDL
MODEL 3
REMARK VINA RESULT:      -6.4      2.752     10.157
REMARK  Name = 
REMARK  18 active torsions:
REMARK  status: ('A' for Active; 'I' for Inactive)
REMARK    1  A    between atoms: O_2  and  C_3
REMARK    2  A    between atoms: N_5  and  C_6
REMARK    3  A    between atoms: C_6  and  C_7
REMARK    4  A    between atoms: C_6  and  C_48
REMARK    5  A    between atoms: N_9  and  C_10
REMARK    6  A    between atoms: C_10  and  C_11
REMARK    7  A    between atoms: C_10  and  C_18
REMARK    8  A    between atoms: C_11  and  C_12
REMARK    9  A    between atoms: C_18  and  C_20
REMARK   10  A    between atoms: C_20  and  N_21
REMARK   11  A    between atoms: N_21  and  C_22
REMARK   12  A    between atoms: N_21  and  N_35
REMARK   13  A    between atoms: C_22  and  C_23
REMARK   14  A    between atoms: C_26  and  C_27
REMARK   15  A    between atoms: C_36  and  C_38
REMARK   16  A    between atoms: C_38  and  N_39
REMARK   17  A    between atoms: C_38  and  C_44
REMARK   18  A    between atoms: C_40  and  O_42
REMARK                            x       y       z     vdW  Elec       q    Type
REMARK                         _______ _______ _______ _____ _____    ______ ____
ROOT
ATOM      1  N   UNL     1     -10.836  11.340  68.402  0.00  0.00    -0.177 NA
ENDROOT
BRANCH   1   2
ATOM      2  N   UNL     1     -11.546  10.604  69.347  0.00  0.00    -0.126 NA
ATOM      3  C   UNL     1     -10.938   9.814  70.388  0.00  0.00    +0.276 C 
ATOM      4  O   UNL     1      -9.722   9.590  70.061  0.00  0.00    -0.270 OA
BRANCH   3   5
ATOM      5  C   UNL     1     -11.580   8.294  70.381  0.00  0.00    +0.177 C 
BRANCH   5   6
ATOM      6  C   UNL     1     -12.145   8.323  71.946  0.00  0.00    +0.027 C 
ATOM      7  C   UNL     1     -13.008   9.430  72.185  0.00  0.00    +0.002 C 
ATOM      8  C   UNL     1     -11.125   7.855  72.856  0.00  0.00    +0.002 C 
ATOM      9  C   UNL     1     -13.091   7.116  71.814  0.00  0.00    +0.002 C 
ENDBRANCH   5   6
BRANCH   5  10
ATOM     10  N   UNL     1     -10.199   7.574  70.736  0.00  0.00    -0.161 NA
ATOM     11  C   UNL     1      -9.908   6.355  70.195  0.00  0.00    +0.422 C 
ATOM     12  O   UNL     1     -10.698   5.692  69.520  0.00  0.00    -0.225 OA
BRANCH  11  13
ATOM     13  O   UNL     1      -8.624   5.852  70.349  0.00  0.00    -0.429 OA
ATOM     14  C   UNL     1      -8.253   5.251  71.578  0.00  0.00    +0.257 C 
ENDBRANCH  11  13
ENDBRANCH   5  10
ENDBRANCH   3   5
ENDBRANCH   1   2
BRANCH   1  15
ATOM     15  C   UNL     1     -11.203  12.751  68.403  0.00  0.00    +0.129 C 
BRANCH  15  16
ATOM     16  C   UNL     1      -9.760  13.565  68.469  0.00  0.00    +0.190 C 
ATOM     17  O   UNL     1     -10.324  14.546  69.495  0.00  0.00    -0.220 OA
BRANCH  16  18
ATOM     18  C   UNL     1     -10.209  14.599  67.139  0.00  0.00    +0.131 C 
BRANCH  18  20
ATOM     19  C   UNL     1      -9.237  16.806  66.681  0.00  0.00    +0.261 C 
ATOM     20  N   UNL     1      -9.013  15.584  67.414  0.00  0.00    -0.203 NA
ATOM     21  O   UNL     1      -8.760  16.534  65.547  0.00  0.00    -0.271 OA
BRANCH  19  22
ATOM     22  C   UNL     1      -8.561  18.117  67.384  0.00  0.00    +0.176 C 
BRANCH  22  23
ATOM     23  C   UNL     1     -10.043  18.873  67.486  0.00  0.00    +0.027 C 
ATOM     24  C   UNL     1      -9.820  20.164  68.171  0.00  0.00    +0.002 C 
ATOM     25  C   UNL     1     -10.413  19.127  66.048  0.00  0.00    +0.002 C 
ATOM     26  C   UNL     1     -10.950  17.907  68.152  0.00  0.00    +0.002 C 
ENDBRANCH  22  23
BRANCH  22  28
ATOM     27  C   UNL     1      -6.930  19.379  65.929  0.00  0.00    +0.422 C 
ATOM     28  N   UNL     1      -8.220  18.796  65.974  0.00  0.00    -0.161 NA
ATOM     29  O   UNL     1      -5.967  18.711  66.365  0.00  0.00    -0.225 OA
BRANCH  27  31
ATOM     30  C   UNL     1      -5.937  19.958  63.848  0.00  0.00    +0.257 C 
ATOM     31  O   UNL     1      -6.654  20.261  64.882  0.00  0.00    -0.429 OA
ENDBRANCH  27  31
ENDBRANCH  22  28
ENDBRANCH  19  22
ENDBRANCH  18  20
BRANCH  18  32
ATOM     32  C   UNL     1      -9.406  13.660  66.055  0.00  0.00    +0.051 C 
BRANCH  32  33
ATOM     33  C   UNL     1     -10.392  13.530  64.930  0.00  0.00    -0.020 A 
ATOM     34  C   UNL     1     -11.691  14.020  65.017  0.00  0.00    -0.004 A 
ATOM     35  C   UNL     1     -12.746  13.142  64.772  0.00  0.00    -0.000 A 
ATOM     36  C   UNL     1     -12.556  12.017  63.977  0.00  0.00    -0.000 A 
ATOM     37  C   UNL     1     -11.342  11.987  63.300  0.00  0.00    -0.000 A 
ATOM     38  C   UNL     1     -10.248  12.587  63.917  0.00  0.00    -0.004 A 
ENDBRANCH  32  33
ENDBRANCH  18  32
ENDBRANCH  16  18
ENDBRANCH  15  16
ENDBRANCH   1  15
BRANCH   1  39
ATOM     39  C   UNL     1     -10.985  10.742  67.102  0.00  0.00    +0.120 C 
BRANCH  39  40
ATOM     40  C   UNL     1      -9.758  10.111  66.581  0.00  0.00    -0.004 A 
ATOM     41  C   UNL     1      -8.500  10.557  66.966  0.00  0.00    -0.003 A 
ATOM     42  C   UNL     1      -7.416   9.943  66.349  0.00  0.00    +0.001 A 
ATOM     43  C   UNL     1      -7.543   9.562  65.020  0.00  0.00    +0.018 A 
ATOM     44  C   UNL     1      -8.813   9.228  64.561  0.00  0.00    +0.001 A 
ATOM     45  C   UNL     1      -9.863   9.282  65.471  0.00  0.00    -0.003 A 
BRANCH  43  46
ATOM     46  C   UNL     1      -6.527   9.887  64.009  0.00  0.00    +0.081 A 
ATOM     47  N   UNL     1      -5.337  10.298  64.469  0.00  0.00    -0.244 NA
ATOM     48  C   UNL     1      -4.493  10.899  63.625  0.00  0.00    +0.099 A 
ATOM     49  C   UNL     1      -4.842  11.083  62.310  0.00  0.00    +0.021 A 
ATOM     50  C   UNL     1      -6.112  10.805  61.874  0.00  0.00    +0.003 A 
ATOM     51  C   UNL     1      -7.023  10.336  62.790  0.00  0.00    +0.019 A 
ENDBRANCH  43  46
ENDBRANCH  39  40
ENDBRANCH   1  39
TORSDOF 18
ENDMDL
MODEL 4
REMARK VINA RESULT:      -6.3      3.366      6.583
REMARK  Name = 
REMARK  18 active torsions:
REMARK  status: ('A' for Active; 'I' for Inactive)
REMARK    1  A    between atoms: O_2  and  C_3
REMARK    2  A    between atoms: N_5  and  C_6
REMARK    3  A    between atoms: C_6  and  C_7
REMARK    4  A    between atoms: C_6  and  C_48
REMARK    5  A    between atoms: N_9  and  C_10
REMARK    6  A    between atoms: C_10  and  C_11
REMARK    7  A    between atoms: C_10  and  C_18
REMARK    8  A    between atoms: C_11  and  C_12
REMARK    9  A    between atoms: C_18  and  C_20
REMARK   10  A    between atoms: C_20  and  N_21
REMARK   11  A    between atoms: N_21  and  C_22
REMARK   12  A    between atoms: N_21  and  N_35
REMARK   13  A    between atoms: C_22  and  C_23
REMARK   14  A    between atoms: C_26  and  C_27
REMARK   15  A    between atoms: C_36  and  C_38
REMARK   16  A    between atoms: C_38  and  N_39
REMARK   17  A    between atoms: C_38  and  C_44
REMARK   18  A    between atoms: C_40  and  O_42
REMARK                            x       y       z     vdW  Elec       q    Type
REMARK                         _______ _______ _______ _____ _____    ______ ____
ROOT
ATOM      1  N   UNL     1      -9.956  11.482  64.720  0.00  0.00    -0.177 NA
ENDROOT
BRANCH   1   2
ATOM      2  N   UNL     1      -9.798  10.598  63.656  0.00  0.00    -0.126 NA
ATOM      3  C   UNL     1      -8.574   9.903  63.350  0.00  0.00    +0.276 C 
ATOM      4  O   UNL     1      -7.612  10.512  63.933  0.00  0.00    -0.270 OA
BRANCH   3   5
ATOM      5  C   UNL     1      -8.198  10.113  61.757  0.00  0.00    +0.177 C 
BRANCH   5   6
ATOM      6  C   UNL     1      -8.102   8.497  61.373  0.00  0.00    +0.027 C 
ATOM      7  C   UNL     1      -8.241   7.664  62.519  0.00  0.00    +0.002 C 
ATOM      8  C   UNL     1      -7.150   8.289  60.307  0.00  0.00    +0.002 C 
ATOM      9  C   UNL     1      -9.465   8.405  60.661  0.00  0.00    +0.002 C 
ENDBRANCH   5   6
BRANCH   5  10
ATOM     10  N   UNL     1      -6.633  10.295  62.021  0.00  0.00    -0.161 NA
ATOM     11  C   UNL     1      -5.985  11.397  61.544  0.00  0.00    +0.422 C 
ATOM     12  O   UNL     1      -6.502  12.237  60.807  0.00  0.00    -0.225 OA
BRANCH  11  13
ATOM     13  O   UNL     1      -4.683  11.633  61.965  0.00  0.00    -0.429 OA
ATOM     14  C   UNL     1      -4.226  11.055  63.176  0.00  0.00    +0.257 C 
ENDBRANCH  11  13
ENDBRANCH   5  10
ENDBRANCH   3   5
ENDBRANCH   1   2
BRANCH   1  15
ATOM     15  C   UNL     1     -10.778  10.928  65.789  0.00  0.00    +0.129 C 
BRANCH  15  16
ATOM     16  C   UNL     1      -9.702  10.194  66.816  0.00  0.00    +0.190 C 
ATOM     17  O   UNL     1     -10.231   8.813  66.436  0.00  0.00    -0.220 OA
BRANCH  16  18
ATOM     18  C   UNL     1     -10.804  10.316  68.161  0.00  0.00    +0.131 C 
BRANCH  18  20
ATOM     19  C   UNL     1     -10.524   8.619  69.912  0.00  0.00    +0.261 C 
ATOM     20  N   UNL     1      -9.800   9.594  69.135  0.00  0.00    -0.203 NA
ATOM     21  O   UNL     1     -10.966   9.309  70.870  0.00  0.00    -0.271 OA
BRANCH  19  22
ATOM     22  C   UNL     1      -9.606   7.351  70.382  0.00  0.00    +0.176 C 
BRANCH  22  23
ATOM     23  C   UNL     1     -10.823   6.279  69.994  0.00  0.00    +0.027 C 
ATOM     24  C   UNL     1     -11.016   6.361  68.530  0.00  0.00    +0.002 C 
ATOM     25  C   UNL     1     -10.240   4.936  70.347  0.00  0.00    +0.002 C 
ATOM     26  C   UNL     1     -11.980   6.647  70.846  0.00  0.00    +0.002 C 
ENDBRANCH  22  23
BRANCH  22  28
ATOM     27  C   UNL     1      -9.013   7.650  72.815  0.00  0.00    +0.422 C 
ATOM     28  N   UNL     1     -10.083   7.467  71.906  0.00  0.00    -0.161 NA
ATOM     29  O   UNL     1      -8.143   8.504  72.537  0.00  0.00    -0.225 OA
BRANCH  27  31
ATOM     30  C   UNL     1      -9.782   6.358  74.658  0.00  0.00    +0.257 C 
ATOM     31  O   UNL     1      -9.275   7.446  74.173  0.00  0.00    -0.429 OA
ENDBRANCH  27  31
ENDBRANCH  22  28
ENDBRANCH  19  22
ENDBRANCH  18  20
BRANCH  18  32
ATOM     32  C   UNL     1     -10.306  11.844  68.512  0.00  0.00    +0.051 C 
BRANCH  32  33
ATOM     33  C   UNL     1     -11.537  12.469  69.101  0.00  0.00    -0.020 A 
ATOM     34  C   UNL     1     -11.962  13.748  68.758  0.00  0.00    -0.004 A 
ATOM     35  C   UNL     1     -12.163  14.675  69.779  0.00  0.00    -0.000 A 
ATOM     36  C   UNL     1     -12.455  14.247  71.070  0.00  0.00    -0.000 A 
ATOM     37  C   UNL     1     -12.743  12.890  71.177  0.00  0.00    -0.000 A 
ATOM     38  C   UNL     1     -12.100  12.028  70.295  0.00  0.00    -0.004 A 
ENDBRANCH  32  33
ENDBRANCH  18  32
ENDBRANCH  16  18
ENDBRANCH  15  16
ENDBRANCH   1  15
BRANCH   1  39
ATOM     39  C   UNL     1     -10.464  12.740  64.242  0.00  0.00    +0.120 C 
BRANCH  39  40
ATOM     40  C   UNL     1     -10.476  13.813  65.253  0.00  0.00    -0.004 A 
ATOM     41  C   UNL     1     -11.497  14.754  65.293  0.00  0.00    -0.003 A 
ATOM     42  C   UNL     1     -11.361  15.768  66.235  0.00  0.00    +0.001 A 
ATOM     43  C   UNL     1     -10.086  16.245  66.511  0.00  0.00    +0.018 A 
ATOM     44  C   UNL     1      -9.020  15.365  66.360  0.00  0.00    +0.001 A 
ATOM     45  C   UNL     1      -9.306  14.064  65.962  0.00  0.00    -0.003 A 
BRANCH  43  46
ATOM     46  C   UNL     1      -9.774  17.680  66.541  0.00  0.00    +0.081 A 
ATOM     47  N   UNL     1      -8.584  18.044  66.042  0.00  0.00    -0.244 NA
ATOM     48  C   UNL     1      -8.114  19.263  66.320  0.00  0.00    +0.099 A 
ATOM     49  C   UNL     1      -8.846  20.127  67.098  0.00  0.00    +0.021 A 
ATOM     50  C   UNL     1      -9.986  19.706  67.734  0.00  0.00    +0.003 A 
ATOM     51  C   UNL     1     -10.374  18.399  67.569  0.00  0.00    +0.019 A 
ENDBRANCH  43  46
ENDBRANCH  39  40
ENDBRANCH   1  39
TORSDOF 18
ENDMDL
MODEL 5
REMARK VINA RESULT:      -6.3      1.129      1.403
REMARK  Name = 
REMARK  18 active torsions:
REMARK  status: ('A' for Active; 'I' for Inactive)
REMARK    1  A    between atoms: O_2  and  C_3
REMARK    2  A    between atoms: N_5  and  C_6
REMARK    3  A    between atoms: C_6  and  C_7
REMARK    4  A    between atoms: C_6  and  C_48
REMARK    5  A    between atoms: N_9  and  C_10
REMARK    6  A    between atoms: C_10  and  C_11
REMARK    7  A    between atoms: C_10  and  C_18
REMARK    8  A    between atoms: C_11  and  C_12
REMARK    9  A    between atoms: C_18  and  C_20
REMARK   10  A    between atoms: C_20  and  N_21
REMARK   11  A    between atoms: N_21  and  C_22
REMARK   12  A    between atoms: N_21  and  N_35
REMARK   13  A    between atoms: C_22  and  C_23
REMARK   14  A    between atoms: C_26  and  C_27
REMARK   15  A    between atoms: C_36  and  C_38
REMARK   16  A    between atoms: C_38  and  N_39
REMARK   17  A    between atoms: C_38  and  C_44
REMARK   18  A    between atoms: C_40  and  O_42
REMARK                            x       y       z     vdW  Elec       q    Type
REMARK                         _______ _______ _______ _____ _____    ______ ____
ROOT
ATOM      1  N   UNL     1      -7.195  15.041  67.596  0.00  0.00    -0.177 NA
ENDROOT
BRANCH   1   2
ATOM      2  N   UNL     1      -6.045  15.781  67.336  0.00  0.00    -0.126 NA
ATOM      3  C   UNL     1      -5.334  16.553  68.322  0.00  0.00    +0.276 C 
ATOM      4  O   UNL     1      -6.119  16.762  69.310  0.00  0.00    -0.270 OA
BRANCH   3   5
ATOM      5  C   UNL     1      -5.082  18.083  67.756  0.00  0.00    +0.177 C 
BRANCH   5   6
ATOM      6  C   UNL     1      -3.420  18.007  67.746  0.00  0.00    +0.027 C 
ATOM      7  C   UNL     1      -2.926  16.935  68.542  0.00  0.00    +0.002 C 
ATOM      8  C   UNL     1      -2.857  19.337  67.704  0.00  0.00    +0.002 C 
ATOM      9  C   UNL     1      -3.276  17.510  66.295  0.00  0.00    +0.002 C 
ENDBRANCH   5   6
BRANCH   5  10
ATOM     10  N   UNL     1      -5.189  18.768  69.195  0.00  0.00    -0.161 NA
ATOM     11  C   UNL     1      -5.812  19.975  69.330  0.00  0.00    +0.422 C 
ATOM     12  O   UNL     1      -6.213  20.655  68.385  0.00  0.00    -0.225 OA
BRANCH  11  13
ATOM     13  O   UNL     1      -6.076  20.443  70.610  0.00  0.00    -0.429 OA
ATOM     14  C   UNL     1      -5.259  20.023  71.689  0.00  0.00    +0.257 C 
ENDBRANCH  11  13
ENDBRANCH   5  10
ENDBRANCH   3   5
ENDBRANCH   1   2
BRANCH   1  15
ATOM     15  C   UNL     1      -7.025  13.623  67.306  0.00  0.00    +0.129 C 
BRANCH  15  16
ATOM     16  C   UNL     1      -7.452  12.848  68.708  0.00  0.00    +0.190 C 
ATOM     17  O   UNL     1      -6.183  11.999  68.663  0.00  0.00    -0.220 OA
BRANCH  16  18
ATOM     18  C   UNL     1      -8.365  11.643  67.839  0.00  0.00    +0.131 C 
BRANCH  18  20
ATOM     19  C   UNL     1      -8.843   9.402  68.720  0.00  0.00    +0.261 C 
ATOM     20  N   UNL     1      -8.541  10.753  69.126  0.00  0.00    -0.203 NA
ATOM     21  O   UNL     1     -10.094   9.438  68.567  0.00  0.00    -0.271 OA
BRANCH  19  22
ATOM     22  C   UNL     1      -8.343   8.276  69.793  0.00  0.00    +0.176 C 
BRANCH  22  23
ATOM     23  C   UNL     1      -7.755   7.314  68.565  0.00  0.00    +0.027 C 
ATOM     24  C   UNL     1      -6.794   8.135  67.800  0.00  0.00    +0.002 C 
ATOM     25  C   UNL     1      -7.013   6.222  69.292  0.00  0.00    +0.002 C 
ATOM     26  C   UNL     1      -8.943   6.812  67.834  0.00  0.00    +0.002 C 
ENDBRANCH  22  23
BRANCH  22  28
ATOM     27  C   UNL     1     -10.347   7.460  71.091  0.00  0.00    +0.422 C 
ATOM     28  N   UNL     1      -9.764   7.538  69.802  0.00  0.00    -0.161 NA
ATOM     29  O   UNL     1     -10.359   8.493  71.795  0.00  0.00    -0.225 OA
BRANCH  27  31
ATOM     30  C   UNL     1     -12.647   6.939  71.393  0.00  0.00    +0.257 C 
ATOM     31  O   UNL     1     -11.412   6.573  71.267  0.00  0.00    -0.429 OA
ENDBRANCH  27  31
ENDBRANCH  22  28
ENDBRANCH  19  22
ENDBRANCH  18  20
BRANCH  18  32
ATOM     32  C   UNL     1      -9.767  12.481  68.023  0.00  0.00    +0.051 C 
BRANCH  32  33
ATOM     33  C   UNL     1     -10.474  12.240  66.720  0.00  0.00    -0.020 A 
ATOM     34  C   UNL     1      -9.813  12.270  65.497  0.00  0.00    -0.004 A 
ATOM     35  C   UNL     1     -10.297  13.121  64.505  0.00  0.00    -0.000 A 
ATOM     36  C   UNL     1     -11.632  13.511  64.501  0.00  0.00    -0.000 A 
ATOM     37  C   UNL     1     -12.438  12.817  65.398  0.00  0.00    -0.000 A 
ATOM     38  C   UNL     1     -11.851  12.380  66.582  0.00  0.00    -0.004 A 
ENDBRANCH  32  33
ENDBRANCH  18  32
ENDBRANCH  16  18
ENDBRANCH  15  16
ENDBRANCH   1  15
BRANCH   1  39
ATOM     39  C   UNL     1      -8.314  15.608  66.891  0.00  0.00    +0.120 C 
BRANCH  39  40
ATOM     40  C   UNL     1      -9.463  15.950  67.750  0.00  0.00    -0.004 A 
ATOM     41  C   UNL     1      -9.340  15.988  69.133  0.00  0.00    -0.003 A 
ATOM     42  C   UNL     1     -10.507  16.239  69.845  0.00  0.00    +0.001 A 
ATOM     43  C   UNL     1     -11.702  15.726  69.357  0.00  0.00    +0.018 A 
ATOM     44  C   UNL     1     -11.817  15.554  67.983  0.00  0.00    +0.001 A 
ATOM     45  C   UNL     1     -10.735  15.924  67.191  0.00  0.00    -0.003 A 
BRANCH  43  46
ATOM     46  C   UNL     1     -12.647  14.991  70.209  0.00  0.00    +0.081 A 
ATOM     47  N   UNL     1     -13.404  15.727  71.034  0.00  0.00    -0.244 NA
ATOM     48  C   UNL     1     -14.043  15.118  72.038  0.00  0.00    +0.099 A 
ATOM     49  C   UNL     1     -13.927  13.761  72.210  0.00  0.00    +0.021 A 
ATOM     50  C   UNL     1     -13.035  13.031  71.466  0.00  0.00    +0.003 A 
ATOM     51  C   UNL     1     -12.265  13.698  70.544  0.00  0.00    +0.019 A 
ENDBRANCH  43  46
ENDBRANCH  39  40
ENDBRANCH   1  39
TORSDOF 18
ENDMDL
MODEL 6
REMARK VINA RESULT:      -6.2      2.548     10.184
REMARK  Name = 
REMARK  18 active torsions:
REMARK  status: ('A' for Active; 'I' for Inactive)
REMARK    1  A    between atoms: O_2  and  C_3
REMARK    2  A    between atoms: N_5  and  C_6
REMARK    3  A    between atoms: C_6  and  C_7
REMARK    4  A    between atoms: C_6  and  C_48
REMARK    5  A    between atoms: N_9  and  C_10
REMARK    6  A    between atoms: C_10  and  C_11
REMARK    7  A    between atoms: C_10  and  C_18
REMARK    8  A    between atoms: C_11  and  C_12
REMARK    9  A    between atoms: C_18  and  C_20
REMARK   10  A    between atoms: C_20  and  N_21
REMARK   11  A    between atoms: N_21  and  C_22
REMARK   12  A    between atoms: N_21  and  N_35
REMARK   13  A    between atoms: C_22  and  C_23
REMARK   14  A    between atoms: C_26  and  C_27
REMARK   15  A    between atoms: C_36  and  C_38
REMARK   16  A    between atoms: C_38  and  N_39
REMARK   17  A    between atoms: C_38  and  C_44
REMARK   18  A    between atoms: C_40  and  O_42
REMARK                            x       y       z     vdW  Elec       q    Type
REMARK                         _______ _______ _______ _____ _____    ______ ____
ROOT
ATOM      1  N   UNL     1     -10.394  10.925  67.908  0.00  0.00    -0.177 NA
ENDROOT
BRANCH   1   2
ATOM      2  N   UNL     1     -11.247  10.373  68.861  0.00  0.00    -0.126 NA
ATOM      3  C   UNL     1     -10.805   9.671  70.039  0.00  0.00    +0.276 C 
ATOM      4  O   UNL     1      -9.592   9.308  69.857  0.00  0.00    -0.270 OA
BRANCH   3   5
ATOM      5  C   UNL     1     -11.585   8.221  70.148  0.00  0.00    +0.177 C 
BRANCH   5   6
ATOM      6  C   UNL     1     -12.184   8.446  71.685  0.00  0.00    +0.027 C 
ATOM      7  C   UNL     1     -12.895   9.673  71.809  0.00  0.00    +0.002 C 
ATOM      8  C   UNL     1     -11.263   7.918  72.665  0.00  0.00    +0.002 C 
ATOM      9  C   UNL     1     -13.281   7.369  71.604  0.00  0.00    +0.002 C 
ENDBRANCH   5   6
BRANCH   5  10
ATOM     10  N   UNL     1     -10.286   7.416  70.613  0.00  0.00    -0.161 NA
ATOM     11  C   UNL     1     -10.070   6.148  70.156  0.00  0.00    +0.422 C 
ATOM     12  O   UNL     1     -10.879   5.510  69.480  0.00  0.00    -0.225 OA
BRANCH  11  13
ATOM     13  O   UNL     1      -8.840   5.555  70.405  0.00  0.00    -0.429 OA
ATOM     14  C   UNL     1      -7.863   6.261  71.150  0.00  0.00    +0.257 C 
ENDBRANCH  11  13
ENDBRANCH   5  10
ENDBRANCH   3   5
ENDBRANCH   1   2
BRANCH   1  15
ATOM     15  C   UNL     1      -9.730  12.131  68.386  0.00  0.00    +0.129 C 
BRANCH  15  16
ATOM     16  C   UNL     1     -10.377  13.360  67.479  0.00  0.00    +0.190 C 
ATOM     17  O   UNL     1      -9.049  13.567  66.755  0.00  0.00    -0.220 OA
BRANCH  16  18
ATOM     18  C   UNL     1      -9.977  14.550  68.688  0.00  0.00    +0.131 C 
BRANCH  18  20
ATOM     19  C   UNL     1      -8.635  16.517  68.091  0.00  0.00    +0.261 C 
ATOM     20  N   UNL     1      -9.679  15.650  67.603  0.00  0.00    -0.203 NA
ATOM     21  O   UNL     1      -9.278  17.358  68.775  0.00  0.00    -0.271 OA
BRANCH  19  22
ATOM     22  C   UNL     1      -7.737  17.185  66.900  0.00  0.00    +0.176 C 
BRANCH  22  23
ATOM     23  C   UNL     1      -6.326  16.682  67.632  0.00  0.00    +0.027 C 
ATOM     24  C   UNL     1      -6.372  15.205  67.682  0.00  0.00    +0.002 C 
ATOM     25  C   UNL     1      -5.251  17.118  66.671  0.00  0.00    +0.002 C 
ATOM     26  C   UNL     1      -6.260  17.397  68.930  0.00  0.00    +0.002 C 
ENDBRANCH  22  23
BRANCH  22  28
ATOM     27  C   UNL     1      -7.685  19.700  66.713  0.00  0.00    +0.422 C 
ATOM     28  N   UNL     1      -7.698  18.614  67.622  0.00  0.00    -0.161 NA
ATOM     29  O   UNL     1      -8.499  19.684  65.764  0.00  0.00    -0.225 OA
BRANCH  27  31
ATOM     30  C   UNL     1      -6.179  21.237  67.724  0.00  0.00    +0.257 C 
ATOM     31  O   UNL     1      -7.334  20.958  67.212  0.00  0.00    -0.429 OA
ENDBRANCH  27  31
ENDBRANCH  22  28
ENDBRANCH  19  22
ENDBRANCH  18  20
BRANCH  18  32
ATOM     32  C   UNL     1     -11.555  14.953  68.906  0.00  0.00    +0.051 C 
BRANCH  32  33
ATOM     33  C   UNL     1     -11.736  14.806  70.389  0.00  0.00    -0.020 A 
ATOM     34  C   UNL     1     -12.404  13.725  70.956  0.00  0.00    -0.004 A 
ATOM     35  C   UNL     1     -13.470  13.983  71.814  0.00  0.00    -0.000 A 
ATOM     36  C   UNL     1     -13.546  15.190  72.501  0.00  0.00    -0.000 A 
ATOM     37  C   UNL     1     -12.396  15.968  72.427  0.00  0.00    -0.000 A 
ATOM     38  C   UNL     1     -11.637  15.883  71.264  0.00  0.00    -0.004 A 
ENDBRANCH  32  33
ENDBRANCH  18  32
ENDBRANCH  16  18
ENDBRANCH  15  16
ENDBRANCH   1  15
BRANCH   1  39
ATOM     39  C   UNL     1     -11.110  11.150  66.681  0.00  0.00    +0.120 C 
BRANCH  39  40
ATOM     40  C   UNL     1     -10.477  10.551  65.491  0.00  0.00    -0.004 A 
ATOM     41  C   UNL     1      -9.433   9.643  65.613  0.00  0.00    -0.003 A 
ATOM     42  C   UNL     1      -8.858   9.207  64.424  0.00  0.00    +0.001 A 
ATOM     43  C   UNL     1      -8.760  10.106  63.370  0.00  0.00    +0.018 A 
ATOM     44  C   UNL     1      -9.718  11.110  63.286  0.00  0.00    +0.001 A 
ATOM     45  C   UNL     1     -10.717  11.133  64.253  0.00  0.00    -0.003 A 
BRANCH  43  46
ATOM     46  C   UNL     1      -7.513  10.301  62.618  0.00  0.00    +0.081 A 
ATOM     47  N   UNL     1      -6.373  10.212  63.318  0.00  0.00    -0.244 NA
ATOM     48  C   UNL     1      -5.245  10.681  62.776  0.00  0.00    +0.099 A 
ATOM     49  C   UNL     1      -5.260  11.238  61.521  0.00  0.00    +0.021 A 
ATOM     50  C   UNL     1      -6.443  11.471  60.868  0.00  0.00    +0.003 A 
ATOM     51  C   UNL     1      -7.612  11.129  61.506  0.00  0.00    +0.019 A 
ENDBRANCH  43  46
ENDBRANCH  39  40
ENDBRANCH   1  39
TORSDOF 18
ENDMDL
MODEL 7
REMARK VINA RESULT:      -6.1      2.701     10.106
REMARK  Name = 
REMARK  18 active torsions:
REMARK  status: ('A' for Active; 'I' for Inactive)
REMARK    1  A    between atoms: O_2  and  C_3
REMARK    2  A    between atoms: N_5  and  C_6
REMARK    3  A    between atoms: C_6  and  C_7
REMARK    4  A    between atoms: C_6  and  C_48
REMARK    5  A    between atoms: N_9  and  C_10
REMARK    6  A    between atoms: C_10  and  C_11
REMARK    7  A    between atoms: C_10  and  C_18
REMARK    8  A    between atoms: C_11  and  C_12
REMARK    9  A    between atoms: C_18  and  C_20
REMARK   10  A    between atoms: C_20  and  N_21
REMARK   11  A    between atoms: N_21  and  C_22
REMARK   12  A    between atoms: N_21  and  N_35
REMARK   13  A    between atoms: C_22  and  C_23
REMARK   14  A    between atoms: C_26  and  C_27
REMARK   15  A    between atoms: C_36  and  C_38
REMARK   16  A    between atoms: C_38  and  N_39
REMARK   17  A    between atoms: C_38  and  C_44
REMARK   18  A    between atoms: C_40  and  O_42
REMARK                            x       y       z     vdW  Elec       q    Type
REMARK                         _______ _______ _______ _____ _____    ______ ____
ROOT
ATOM      1  N   UNL     1     -10.776  11.389  68.438  0.00  0.00    -0.177 NA
ENDROOT
BRANCH   1   2
ATOM      2  N   UNL     1     -11.499  10.655  69.375  0.00  0.00    -0.126 NA
ATOM      3  C   UNL     1     -10.905   9.833  70.398  0.00  0.00    +0.276 C 
ATOM      4  O   UNL     1      -9.696   9.584  70.061  0.00  0.00    -0.270 OA
BRANCH   3   5
ATOM      5  C   UNL     1     -11.585   8.329  70.370  0.00  0.00    +0.177 C 
BRANCH   5   6
ATOM      6  C   UNL     1     -12.167   8.359  71.929  0.00  0.00    +0.027 C 
ATOM      7  C   UNL     1     -13.010   9.481  72.165  0.00  0.00    +0.002 C 
ATOM      8  C   UNL     1     -11.168   7.863  72.847  0.00  0.00    +0.002 C 
ATOM      9  C   UNL     1     -13.136   7.172  71.776  0.00  0.00    +0.002 C 
ENDBRANCH   5   6
BRANCH   5  10
ATOM     10  N   UNL     1     -10.226   7.572  70.734  0.00  0.00    -0.161 NA
ATOM     11  C   UNL     1      -9.953   6.357  70.176  0.00  0.00    +0.422 C 
ATOM     12  O   UNL     1     -10.746   5.724  69.476  0.00  0.00    -0.225 OA
BRANCH  11  13
ATOM     13  O   UNL     1      -8.683   5.823  70.343  0.00  0.00    -0.429 OA
ATOM     14  C   UNL     1      -7.885   6.247  71.434  0.00  0.00    +0.257 C 
ENDBRANCH  11  13
ENDBRANCH   5  10
ENDBRANCH   3   5
ENDBRANCH   1   2
BRANCH   1  15
ATOM     15  C   UNL     1     -11.054  12.818  68.515  0.00  0.00    +0.129 C 
BRANCH  15  16
ATOM     16  C   UNL     1      -9.568  13.546  68.391  0.00  0.00    +0.190 C 
ATOM     17  O   UNL     1      -9.972  14.614  69.405  0.00  0.00    -0.220 OA
BRANCH  16  18
ATOM     18  C   UNL     1     -10.092  14.530  67.050  0.00  0.00    +0.131 C 
BRANCH  18  20
ATOM     19  C   UNL     1      -9.254  16.809  66.690  0.00  0.00    +0.261 C 
ATOM     20  N   UNL     1      -8.879  15.520  67.218  0.00  0.00    -0.203 NA
ATOM     21  O   UNL     1      -8.992  16.687  65.463  0.00  0.00    -0.271 OA
BRANCH  19  22
ATOM     22  C   UNL     1      -8.478  18.055  67.409  0.00  0.00    +0.176 C 
BRANCH  22  23
ATOM     23  C   UNL     1      -9.924  18.820  67.729  0.00  0.00    +0.027 C 
ATOM     24  C   UNL     1     -10.358  19.461  66.469  0.00  0.00    +0.002 C 
ATOM     25  C   UNL     1     -10.860  17.687  68.062  0.00  0.00    +0.002 C 
ATOM     26  C   UNL     1      -9.668  19.714  68.885  0.00  0.00    +0.002 C 
ENDBRANCH  22  23
BRANCH  22  28
ATOM     27  C   UNL     1      -6.949  19.278  65.819  0.00  0.00    +0.422 C 
ATOM     28  N   UNL     1      -8.277  18.834  66.025  0.00  0.00    -0.161 NA
ATOM     29  O   UNL     1      -6.018  18.471  66.033  0.00  0.00    -0.225 OA
BRANCH  27  31
ATOM     30  C   UNL     1      -5.877  20.085  63.856  0.00  0.00    +0.257 C 
ATOM     31  O   UNL     1      -6.731  20.228  64.818  0.00  0.00    -0.429 OA
ENDBRANCH  27  31
ENDBRANCH  22  28
ENDBRANCH  19  22
ENDBRANCH  18  20
BRANCH  18  32
ATOM     32  C   UNL     1      -9.354  13.547  65.958  0.00  0.00    +0.051 C 
BRANCH  32  33
ATOM     33  C   UNL     1     -10.371  13.446  64.859  0.00  0.00    -0.020 A 
ATOM     34  C   UNL     1     -11.626  14.040  64.946  0.00  0.00    -0.004 A 
ATOM     35  C   UNL     1     -12.751  13.238  64.762  0.00  0.00    -0.000 A 
ATOM     36  C   UNL     1     -12.667  12.068  64.016  0.00  0.00    -0.000 A 
ATOM     37  C   UNL     1     -11.474  11.912  63.318  0.00  0.00    -0.000 A 
ATOM     38  C   UNL     1     -10.324  12.450  63.888  0.00  0.00    -0.004 A 
ENDBRANCH  32  33
ENDBRANCH  18  32
ENDBRANCH  16  18
ENDBRANCH  15  16
ENDBRANCH   1  15
BRANCH   1  39
ATOM     39  C   UNL     1     -11.006  10.862  67.119  0.00  0.00    +0.120 C 
BRANCH  39  40
ATOM     40  C   UNL     1     -10.072   9.792  66.722  0.00  0.00    -0.004 A 
ATOM     41  C   UNL     1     -10.453   8.457  66.750  0.00  0.00    -0.003 A 
ATOM     42  C   UNL     1      -9.466   7.530  66.436  0.00  0.00    +0.001 A 
ATOM     43  C   UNL     1      -8.161   7.796  66.832  0.00  0.00    +0.018 A 
ATOM     44  C   UNL     1      -7.777   9.128  66.939  0.00  0.00    +0.001 A 
ATOM     45  C   UNL     1      -8.720  10.100  66.624  0.00  0.00    -0.003 A 
BRANCH  43  46
ATOM     46  C   UNL     1      -7.332   6.799  67.524  0.00  0.00    +0.081 A 
ATOM     47  N   UNL     1      -6.177   7.238  68.041  0.00  0.00    -0.244 NA
ATOM     48  C   UNL     1      -5.249   6.345  68.397  0.00  0.00    +0.099 A 
ATOM     49  C   UNL     1      -5.484   5.002  68.239  0.00  0.00    +0.021 A 
ATOM     50  C   UNL     1      -6.596   4.556  67.570  0.00  0.00    +0.003 A 
ATOM     51  C   UNL     1      -7.466   5.493  67.067  0.00  0.00    +0.019 A 
ENDBRANCH  43  46
ENDBRANCH  39  40
ENDBRANCH   1  39
TORSDOF 18
ENDMDL
MODEL 8
REMARK VINA RESULT:      -6.1      2.758      9.325
REMARK  Name = 
REMARK  18 active torsions:
REMARK  status: ('A' for Active; 'I' for Inactive)
REMARK    1  A    between atoms: O_2  and  C_3
REMARK    2  A    between atoms: N_5  and  C_6
REMARK    3  A    between atoms: C_6  and  C_7
REMARK    4  A    between atoms: C_6  and  C_48
REMARK    5  A    between atoms: N_9  and  C_10
REMARK    6  A    between atoms: C_10  and  C_11
REMARK    7  A    between atoms: C_10  and  C_18
REMARK    8  A    between atoms: C_11  and  C_12
REMARK    9  A    between atoms: C_18  and  C_20
REMARK   10  A    between atoms: C_20  and  N_21
REMARK   11  A    between atoms: N_21  and  C_22
REMARK   12  A    between atoms: N_21  and  N_35
REMARK   13  A    between atoms: C_22  and  C_23
REMARK   14  A    between atoms: C_26  and  C_27
REMARK   15  A    between atoms: C_36  and  C_38
REMARK   16  A    between atoms: C_38  and  N_39
REMARK   17  A    between atoms: C_38  and  C_44
REMARK   18  A    between atoms: C_40  and  O_42
REMARK                            x       y       z     vdW  Elec       q    Type
REMARK                         _______ _______ _______ _____ _____    ______ ____
ROOT
ATOM      1  N   UNL     1     -11.369  11.901  68.745  0.00  0.00    -0.177 NA
ENDROOT
BRANCH   1   2
ATOM      2  N   UNL     1     -10.068  11.468  68.510  0.00  0.00    -0.126 NA
ATOM      3  C   UNL     1      -9.650  10.746  67.335  0.00  0.00    +0.276 C 
ATOM      4  O   UNL     1     -10.689  10.247  66.781  0.00  0.00    -0.270 OA
BRANCH   3   5
ATOM      5  C   UNL     1      -8.815   9.393  67.779  0.00  0.00    +0.177 C 
BRANCH   5   6
ATOM      6  C   UNL     1      -7.616   9.529  66.633  0.00  0.00    +0.027 C 
ATOM      7  C   UNL     1      -7.093  10.851  66.557  0.00  0.00    +0.002 C 
ATOM      8  C   UNL     1      -7.911   8.687  65.496  0.00  0.00    +0.002 C 
ATOM      9  C   UNL     1      -6.547   8.733  67.403  0.00  0.00    +0.002 C 
ENDBRANCH   5   6
BRANCH   5  10
ATOM     10  N   UNL     1      -9.726   8.398  66.923  0.00  0.00    -0.161 NA
ATOM     11  C   UNL     1      -9.915   7.114  67.346  0.00  0.00    +0.422 C 
ATOM     12  O   UNL     1      -9.331   6.610  68.306  0.00  0.00    -0.225 OA
BRANCH  11  13
ATOM     13  O   UNL     1     -10.871   6.341  66.703  0.00  0.00    -0.429 OA
ATOM     14  C   UNL     1     -10.535   5.035  66.266  0.00  0.00    +0.257 C 
ENDBRANCH  11  13
ENDBRANCH   5  10
ENDBRANCH   3   5
ENDBRANCH   1   2
BRANCH   1  15
ATOM     15  C   UNL     1     -11.610  13.246  68.238  0.00  0.00    +0.129 C 
BRANCH  15  16
ATOM     16  C   UNL     1     -10.207  14.074  68.549  0.00  0.00    +0.190 C 
ATOM     17  O   UNL     1     -10.974  15.145  69.323  0.00  0.00    -0.220 OA
BRANCH  16  18
ATOM     18  C   UNL     1     -10.331  14.972  67.060  0.00  0.00    +0.131 C 
BRANCH  18  20
ATOM     19  C   UNL     1      -9.071  17.016  66.549  0.00  0.00    +0.261 C 
ATOM     20  N   UNL     1      -9.084  15.865  67.417  0.00  0.00    -0.203 NA
ATOM     21  O   UNL     1      -8.474  16.580  65.528  0.00  0.00    -0.271 OA
BRANCH  19  22
ATOM     22  C   UNL     1      -8.361  18.326  67.219  0.00  0.00    +0.176 C 
BRANCH  22  23
ATOM     23  C   UNL     1      -9.832  19.098  67.361  0.00  0.00    +0.027 C 
ATOM     24  C   UNL     1     -10.503  18.526  68.547  0.00  0.00    +0.002 C 
ATOM     25  C   UNL     1      -9.457  20.530  67.640  0.00  0.00    +0.002 C 
ATOM     26  C   UNL     1     -10.513  18.925  66.055  0.00  0.00    +0.002 C 
ENDBRANCH  22  23
BRANCH  22  28
ATOM     27  C   UNL     1      -6.746  19.513  65.686  0.00  0.00    +0.422 C 
ATOM     28  N   UNL     1      -8.058  18.990  65.793  0.00  0.00    -0.161 NA
ATOM     29  O   UNL     1      -5.794  18.801  66.075  0.00  0.00    -0.225 OA
BRANCH  27  31
ATOM     30  C   UNL     1      -5.425  20.315  63.878  0.00  0.00    +0.257 C 
ATOM     31  O   UNL     1      -6.480  20.383  64.625  0.00  0.00    -0.429 OA
ENDBRANCH  27  31
ENDBRANCH  22  28
ENDBRANCH  19  22
ENDBRANCH  18  20
BRANCH  18  32
ATOM     32  C   UNL     1      -9.487  13.832  66.229  0.00  0.00    +0.051 C 
BRANCH  32  33
ATOM     33  C   UNL     1     -10.301  13.659  64.979  0.00  0.00    -0.020 A 
ATOM     34  C   UNL     1     -11.499  14.334  64.770  0.00  0.00    -0.004 A 
ATOM     35  C   UNL     1     -12.636  13.585  64.472  0.00  0.00    -0.000 A 
ATOM     36  C   UNL     1     -12.519  12.329  63.887  0.00  0.00    -0.000 A 
ATOM     37  C   UNL     1     -11.239  12.018  63.440  0.00  0.00    -0.000 A 
ATOM     38  C   UNL     1     -10.166  12.551  64.148  0.00  0.00    -0.004 A 
ENDBRANCH  32  33
ENDBRANCH  18  32
ENDBRANCH  16  18
ENDBRANCH  15  16
ENDBRANCH   1  15
BRANCH   1  39
ATOM     39  C   UNL     1     -11.679  11.786  70.145  0.00  0.00    +0.120 C 
BRANCH  39  40
ATOM     40  C   UNL     1     -12.067  10.428  70.571  0.00  0.00    -0.004 A 
ATOM     41  C   UNL     1     -12.821  10.222  71.719  0.00  0.00    -0.003 A 
ATOM     42  C   UNL     1     -13.057   8.897  72.069  0.00  0.00    +0.001 A 
ATOM     43  C   UNL     1     -12.059   7.963  71.823  0.00  0.00    +0.018 A 
ATOM     44  C   UNL     1     -11.201   8.199  70.755  0.00  0.00    +0.001 A 
ATOM     45  C   UNL     1     -11.414   9.345  69.996  0.00  0.00    -0.003 A 
BRANCH  43  46
ATOM     46  C   UNL     1     -11.616   7.001  72.842  0.00  0.00    +0.081 A 
ATOM     47  N   UNL     1     -10.651   7.416  73.675  0.00  0.00    -0.244 NA
ATOM     48  C   UNL     1      -9.994   6.508  74.402  0.00  0.00    +0.099 A 
ATOM     49  C   UNL     1     -10.311   5.176  74.299  0.00  0.00    +0.021 A 
ATOM     50  C   UNL     1     -11.185   4.734  73.339  0.00  0.00    +0.003 A 
ATOM     51  C   UNL     1     -11.735   5.662  72.489  0.00  0.00    +0.019 A 
ENDBRANCH  43  46
ENDBRANCH  39  40
ENDBRANCH   1  39
TORSDOF 18
ENDMDL
MODEL 9
REMARK VINA RESULT:      -6.0      3.899      7.027
REMARK  Name = 
REMARK  18 active torsions:
REMARK  status: ('A' for Active; 'I' for Inactive)
REMARK    1  A    between atoms: O_2  and  C_3
REMARK    2  A    between atoms: N_5  and  C_6
REMARK    3  A    between atoms: C_6  and  C_7
REMARK    4  A    between atoms: C_6  and  C_48
REMARK    5  A    between atoms: N_9  and  C_10
REMARK    6  A    between atoms: C_10  and  C_11
REMARK    7  A    between atoms: C_10  and  C_18
REMARK    8  A    between atoms: C_11  and  C_12
REMARK    9  A    between atoms: C_18  and  C_20
REMARK   10  A    between atoms: C_20  and  N_21
REMARK   11  A    between atoms: N_21  and  C_22
REMARK   12  A    between atoms: N_21  and  N_35
REMARK   13  A    between atoms: C_22  and  C_23
REMARK   14  A    between atoms: C_26  and  C_27
REMARK   15  A    between atoms: C_36  and  C_38
REMARK   16  A    between atoms: C_38  and  N_39
REMARK   17  A    between atoms: C_38  and  C_44
REMARK   18  A    between atoms: C_40  and  O_42
REMARK                            x       y       z     vdW  Elec       q    Type
REMARK                         _______ _______ _______ _____ _____    ______ ____
ROOT
ATOM      1  N   UNL     1     -10.650  11.956  67.305  0.00  0.00    -0.177 NA
ENDROOT
BRANCH   1   2
ATOM      2  N   UNL     1     -10.602  13.270  66.847  0.00  0.00    -0.126 NA
ATOM      3  C   UNL     1      -9.727  14.285  67.376  0.00  0.00    +0.276 C 
ATOM      4  O   UNL     1      -9.329  13.907  68.531  0.00  0.00    -0.270 OA
BRANCH   3   5
ATOM      5  C   UNL     1     -10.599  15.638  67.739  0.00  0.00    +0.177 C 
BRANCH   5   6
ATOM      6  C   UNL     1      -9.375  16.730  67.457  0.00  0.00    +0.027 C 
ATOM      7  C   UNL     1      -8.713  16.487  66.220  0.00  0.00    +0.002 C 
ATOM      8  C   UNL     1      -8.718  17.078  68.695  0.00  0.00    +0.002 C 
ATOM      9  C   UNL     1     -10.283  17.942  67.178  0.00  0.00    +0.002 C 
ENDBRANCH   5   6
BRANCH   5  10
ATOM     10  N   UNL     1     -10.343  15.532  69.312  0.00  0.00    -0.161 NA
ATOM     11  C   UNL     1     -11.387  15.660  70.182  0.00  0.00    +0.422 C 
ATOM     12  O   UNL     1     -12.531  15.971  69.848  0.00  0.00    -0.225 OA
BRANCH  11  13
ATOM     13  O   UNL     1     -11.174  15.357  71.520  0.00  0.00    -0.429 OA
ATOM     14  C   UNL     1     -11.998  15.948  72.510  0.00  0.00    +0.257 C 
ENDBRANCH  11  13
ENDBRANCH   5  10
ENDBRANCH   3   5
ENDBRANCH   1   2
BRANCH   1  15
ATOM     15  C   UNL     1     -10.691  10.987  66.218  0.00  0.00    +0.129 C 
BRANCH  15  16
ATOM     16  C   UNL     1      -9.151  10.975  65.601  0.00  0.00    +0.190 C 
ATOM     17  O   UNL     1      -9.681  11.207  64.188  0.00  0.00    -0.220 OA
BRANCH  16  18
ATOM     18  C   UNL     1      -9.177   9.244  65.395  0.00  0.00    +0.131 C 
BRANCH  18  20
ATOM     19  C   UNL     1      -7.887   8.218  63.577  0.00  0.00    +0.261 C 
ATOM     20  N   UNL     1      -7.832   9.254  64.579  0.00  0.00    -0.203 NA
ATOM     21  O   UNL     1      -7.499   7.203  64.215  0.00  0.00    -0.271 OA
BRANCH  19  22
ATOM     22  C   UNL     1      -6.988   8.548  62.253  0.00  0.00    +0.176 C 
BRANCH  22  23
ATOM     23  C   UNL     1      -8.275   8.207  61.249  0.00  0.00    +0.027 C 
ATOM     24  C   UNL     1      -9.312   9.224  61.521  0.00  0.00    +0.002 C 
ATOM     25  C   UNL     1      -7.714   8.420  59.867  0.00  0.00    +0.002 C 
ATOM     26  C   UNL     1      -8.635   6.792  61.511  0.00  0.00    +0.002 C 
ENDBRANCH  22  23
BRANCH  22  28
ATOM     27  C   UNL     1      -5.013   6.996  62.017  0.00  0.00    +0.422 C 
ATOM     28  N   UNL     1      -6.420   7.053  62.168  0.00  0.00    -0.161 NA
ATOM     29  O   UNL     1      -4.311   7.715  62.762  0.00  0.00    -0.225 OA
BRANCH  27  31
ATOM     30  C   UNL     1      -4.881   4.622  62.007  0.00  0.00    +0.257 C 
ATOM     31  O   UNL     1      -4.453   5.779  61.617  0.00  0.00    -0.429 OA
ENDBRANCH  27  31
ENDBRANCH  22  28
ENDBRANCH  19  22
ENDBRANCH  18  20
BRANCH  18  32
ATOM     32  C   UNL     1      -8.480   8.995  66.863  0.00  0.00    +0.051 C 
BRANCH  32  33
ATOM     33  C   UNL     1      -9.199   7.780  67.373  0.00  0.00    -0.020 A 
ATOM     34  C   UNL     1      -8.533   6.610  67.720  0.00  0.00    -0.004 A 
ATOM     35  C   UNL     1      -8.934   5.418  67.118  0.00  0.00    -0.000 A 
ATOM     36  C   UNL     1     -10.228   5.277  66.629  0.00  0.00    -0.000 A 
ATOM     37  C   UNL     1     -11.098   6.300  66.993  0.00  0.00    -0.000 A 
ATOM     38  C   UNL     1     -10.558   7.572  67.156  0.00  0.00    -0.004 A 
ENDBRANCH  32  33
ENDBRANCH  18  32
ENDBRANCH  16  18
ENDBRANCH  15  16
ENDBRANCH   1  15
BRANCH   1  39
ATOM     39  C   UNL     1     -11.752  11.795  68.217  0.00  0.00    +0.120 C 
BRANCH  39  40
ATOM     40  C   UNL     1     -11.419  11.048  69.444  0.00  0.00    -0.004 A 
ATOM     41  C   UNL     1     -10.222  10.354  69.561  0.00  0.00    -0.003 A 
ATOM     42  C   UNL     1     -10.051   9.617  70.728  0.00  0.00    +0.001 A 
ATOM     43  C   UNL     1     -11.164   9.005  71.290  0.00  0.00    +0.018 A 
ATOM     44  C   UNL     1     -12.402   9.604  71.087  0.00  0.00    +0.001 A 
ATOM     45  C   UNL     1     -12.438  10.783  70.351  0.00  0.00    -0.003 A 
BRANCH  43  46
ATOM     46  C   UNL     1     -11.158   7.596  71.707  0.00  0.00    +0.081 A 
ATOM     47  N   UNL     1     -10.977   7.361  73.014  0.00  0.00    -0.244 NA
ATOM     48  C   UNL     1     -10.651   6.126  73.408  0.00  0.00    +0.099 A 
ATOM     49  C   UNL     1     -10.513   5.119  72.485  0.00  0.00    +0.021 A 
ATOM     50  C   UNL     1     -10.544   5.388  71.140  0.00  0.00    +0.003 A 
ATOM     51  C   UNL     1     -10.721   6.692  70.746  0.00  0.00    +0.019 A 
ENDBRANCH  43  46
ENDBRANCH  39  40
ENDBRANCH   1  39
TORSDOF 18
ENDMDL
