MODEL 1
REMARK VINA RESULT:      -3.8      0.000      0.000
REMARK  Name = 
REMARK  3 active torsions:
REMARK  status: ('A' for Active; 'I' for Inactive)
REMARK    1  A    between atoms: C_2  and  C_4
REMARK    2  A    between atoms: C_4  and  C_5
REMARK    3  A    between atoms: C_5  and  C_6
REMARK                            x       y       z     vdW  Elec       q    Type
REMARK                         _______ _______ _______ _____ _____    ______ ____
ROOT
ATOM      1  C   UNL     1     -12.529  14.976  71.900  0.00  0.00    +0.117 C 
ENDROOT
BRANCH   1   3
ATOM      2  O   UNL     1     -14.389  13.542  72.456  0.00  0.00    -0.246 OA
ATOM      3  C   UNL     1     -13.978  14.676  72.086  0.00  0.00    +0.365 C 
ATOM      4  O   UNL     1     -14.969  15.540  71.619  0.00  0.00    -0.246 OA
ENDBRANCH   1   3
BRANCH   1   5
ATOM      5  C   UNL     1     -12.116  16.048  72.897  0.00  0.00    +0.047 C 
BRANCH   5   6
ATOM      6  C   UNL     1     -12.455  15.671  74.314  0.00  0.00    +0.183 C 
ATOM      7  O   UNL     1     -12.408  16.735  75.195  0.00  0.00    -0.220 OA
ENDBRANCH   5   6
ENDBRANCH   1   5
TORSDOF 3
ENDMDL
MODEL 2
REMARK VINA RESULT:      -3.6      8.120      9.132
REMARK  Name = 
REMARK  3 active torsions:
REMARK  status: ('A' for Active; 'I' for Inactive)
REMARK    1  A    between atoms: C_2  and  C_4
REMARK    2  A    between atoms: C_4  and  C_5
REMARK    3  A    between atoms: C_5  and  C_6
REMARK                            x       y       z     vdW  Elec       q    Type
REMARK                         _______ _______ _______ _____ _____    ______ ____
ROOT
ATOM      1  C   UNL     1     -11.406  14.611  65.463  0.00  0.00    +0.117 C 
ENDROOT
BRANCH   1   3
ATOM      2  O   UNL     1      -9.941  16.529  65.413  0.00  0.00    -0.246 OA
ATOM      3  C   UNL     1     -10.902  15.896  64.896  0.00  0.00    +0.365 C 
ATOM      4  O   UNL     1     -11.620  16.599  63.929  0.00  0.00    -0.246 OA
ENDBRANCH   1   3
BRANCH   1   5
ATOM      5  C   UNL     1     -10.944  13.467  64.573  0.00  0.00    +0.047 C 
BRANCH   5   6
ATOM      6  C   UNL     1     -12.073  12.870  63.777  0.00  0.00    +0.183 C 
ATOM      7  O   UNL     1     -13.133  12.443  64.556  0.00  0.00    -0.220 OA
ENDBRANCH   5   6
ENDBRANCH   1   5
TORSDOF 3
ENDMDL
MODEL 3
REMARK VINA RESULT:      -3.5      1.878      2.040
REMARK  Name = 
REMARK  3 active torsions:
REMARK  status: ('A' for Active; 'I' for Inactive)
REMARK    1  A    between atoms: C_2  and  C_4
REMARK    2  A    between atoms: C_4  and  C_5
REMARK    3  A    between atoms: C_5  and  C_6
REMARK                            x       y       z     vdW  Elec       q    Type
REMARK                         _______ _______ _______ _____ _____    ______ ____
ROOT
ATOM      1  C   UNL     1     -11.983  16.127  71.943  0.00  0.00    +0.117 C 
ENDROOT
BRANCH   1   3
ATOM      2  O   UNL     1     -12.930  14.469  70.466  0.00  0.00    -0.246 OA
ATOM      3  C   UNL     1     -12.407  15.609  70.610  0.00  0.00    +0.365 C 
ATOM      4  O   UNL     1     -12.020  16.235  69.426  0.00  0.00    -0.246 OA
ENDBRANCH   1   3
BRANCH   1   5
ATOM      5  C   UNL     1     -13.046  15.769  72.971  0.00  0.00    +0.047 C 
BRANCH   5   6
ATOM      6  C   UNL     1     -12.452  15.442  74.315  0.00  0.00    +0.183 C 
ATOM      7  O   UNL     1     -12.461  16.507  75.196  0.00  0.00    -0.220 OA
ENDBRANCH   5   6
ENDBRANCH   1   5
TORSDOF 3
ENDMDL
MODEL 4
REMARK VINA RESULT:      -3.5      7.154      8.079
REMARK  Name = 
REMARK  3 active torsions:
REMARK  status: ('A' for Active; 'I' for Inactive)
REMARK    1  A    between atoms: C_2  and  C_4
REMARK    2  A    between atoms: C_4  and  C_5
REMARK    3  A    between atoms: C_5  and  C_6
REMARK                            x       y       z     vdW  Elec       q    Type
REMARK                         _______ _______ _______ _____ _____    ______ ____
ROOT
ATOM      1  C   UNL     1     -10.923  14.831  65.621  0.00  0.00    +0.117 C 
ENDROOT
BRANCH   1   3
ATOM      2  O   UNL     1     -12.597  14.584  63.900  0.00  0.00    -0.246 OA
ATOM      3  C   UNL     1     -11.792  15.334  64.517  0.00  0.00    +0.365 C 
ATOM      4  O   UNL     1     -11.583  16.583  63.933  0.00  0.00    -0.246 OA
ENDBRANCH   1   3
BRANCH   1   5
ATOM      5  C   UNL     1     -11.804  14.416  66.789  0.00  0.00    +0.047 C 
BRANCH   5   6
ATOM      6  C   UNL     1     -11.666  12.953  67.117  0.00  0.00    +0.183 C 
ATOM      7  O   UNL     1     -12.175  12.118  66.140  0.00  0.00    -0.220 OA
ENDBRANCH   5   6
ENDBRANCH   1   5
TORSDOF 3
ENDMDL
MODEL 5
REMARK VINA RESULT:      -3.5      2.205      3.691
REMARK  Name = 
REMARK  3 active torsions:
REMARK  status: ('A' for Active; 'I' for Inactive)
REMARK    1  A    between atoms: C_2  and  C_4
REMARK    2  A    between atoms: C_4  and  C_5
REMARK    3  A    between atoms: C_5  and  C_6
REMARK                            x       y       z     vdW  Elec       q    Type
REMARK                         _______ _______ _______ _____ _____    ______ ____
ROOT
ATOM      1  C   UNL     1     -11.943  15.986  72.041  0.00  0.00    +0.117 C 
ENDROOT
BRANCH   1   3
ATOM      2  O   UNL     1     -14.233  16.072  72.797  0.00  0.00    -0.246 OA
ATOM      3  C   UNL     1     -13.009  15.968  73.084  0.00  0.00    +0.365 C 
ATOM      4  O   UNL     1     -12.707  16.095  74.439  0.00  0.00    -0.246 OA
ENDBRANCH   1   3
BRANCH   1   5
ATOM      5  C   UNL     1     -12.555  15.590  70.706  0.00  0.00    +0.047 C 
BRANCH   5   6
ATOM      6  C   UNL     1     -11.538  15.563  69.597  0.00  0.00    +0.183 C 
ATOM      7  O   UNL     1     -11.613  16.654  68.751  0.00  0.00    -0.220 OA
ENDBRANCH   5   6
ENDBRANCH   1   5
TORSDOF 3
ENDMDL
MODEL 6
REMARK VINA RESULT:      -3.4      7.649      8.385
REMARK  Name = 
REMARK  3 active torsions:
REMARK  status: ('A' for Active; 'I' for Inactive)
REMARK    1  A    between atoms: C_2  and  C_4
REMARK    2  A    between atoms: C_4  and  C_5
REMARK    3  A    between atoms: C_5  and  C_6
REMARK                            x       y       z     vdW  Elec       q    Type
REMARK                         _______ _______ _______ _____ _____    ______ ____
ROOT
ATOM      1  C   UNL     1     -11.018  13.844  64.921  0.00  0.00    +0.117 C 
ENDROOT
BRANCH   1   3
ATOM      2  O   UNL     1     -12.746  12.642  63.739  0.00  0.00    -0.246 OA
ATOM      3  C   UNL     1     -12.422  13.389  64.703  0.00  0.00    +0.365 C 
ATOM      4  O   UNL     1     -13.491  13.964  65.390  0.00  0.00    -0.246 OA
ENDBRANCH   1   3
BRANCH   1   5
ATOM      5  C   UNL     1     -11.025  15.013  65.894  0.00  0.00    +0.047 C 
BRANCH   5   6
ATOM      6  C   UNL     1     -10.530  16.286  65.261  0.00  0.00    +0.183 C 
ATOM      7  O   UNL     1     -11.346  16.754  64.248  0.00  0.00    -0.220 OA
ENDBRANCH   5   6
ENDBRANCH   1   5
TORSDOF 3
ENDMDL
MODEL 7
REMARK VINA RESULT:      -3.3      8.564      9.205
REMARK  Name = 
REMARK  3 active torsions:
REMARK  status: ('A' for Active; 'I' for Inactive)
REMARK    1  A    between atoms: C_2  and  C_4
REMARK    2  A    between atoms: C_4  and  C_5
REMARK    3  A    between atoms: C_5  and  C_6
REMARK                            x       y       z     vdW  Elec       q    Type
REMARK                         _______ _______ _______ _____ _____    ______ ____
ROOT
ATOM      1  C   UNL     1     -12.055  12.727  65.349  0.00  0.00    +0.117 C 
ENDROOT
BRANCH   1   3
ATOM      2  O   UNL     1     -12.992  11.990  63.250  0.00  0.00    -0.246 OA
ATOM      3  C   UNL     1     -11.966  12.244  63.940  0.00  0.00    +0.365 C 
ATOM      4  O   UNL     1     -10.762  11.802  63.394  0.00  0.00    -0.246 OA
ENDBRANCH   1   3
BRANCH   1   5
ATOM      5  C   UNL     1     -12.531  14.171  65.345  0.00  0.00    +0.047 C 
BRANCH   5   6
ATOM      6  C   UNL     1     -11.510  15.107  64.755  0.00  0.00    +0.183 C 
ATOM      7  O   UNL     1     -12.059  16.091  63.954  0.00  0.00    -0.220 OA
ENDBRANCH   5   6
ENDBRANCH   1   5
TORSDOF 3
ENDMDL
MODEL 8
REMARK VINA RESULT:      -3.3      7.161      8.409
REMARK  Name = 
REMARK  3 active torsions:
REMARK  status: ('A' for Active; 'I' for Inactive)
REMARK    1  A    between atoms: C_2  and  C_4
REMARK    2  A    between atoms: C_4  and  C_5
REMARK    3  A    between atoms: C_5  and  C_6
REMARK                            x       y       z     vdW  Elec       q    Type
REMARK                         _______ _______ _______ _____ _____    ______ ____
ROOT
ATOM      1  C   UNL     1     -10.453  16.935  67.132  0.00  0.00    +0.117 C 
ENDROOT
BRANCH   1   3
ATOM      2  O   UNL     1     -11.044  19.253  67.459  0.00  0.00    -0.246 OA
ATOM      3  C   UNL     1     -10.263  18.403  66.948  0.00  0.00    +0.365 C 
ATOM      4  O   UNL     1      -9.377  18.912  65.999  0.00  0.00    -0.246 OA
ENDBRANCH   1   3
BRANCH   1   5
ATOM      5  C   UNL     1      -9.876  16.209  65.927  0.00  0.00    +0.047 C 
BRANCH   5   6
ATOM      6  C   UNL     1     -10.944  15.746  64.973  0.00  0.00    +0.183 C 
ATOM      7  O   UNL     1     -11.380  16.735  64.110  0.00  0.00    -0.220 OA
ENDBRANCH   5   6
ENDBRANCH   1   5
TORSDOF 3
ENDMDL
MODEL 9
REMARK VINA RESULT:      -3.3      1.959      3.134
REMARK  Name = 
REMARK  3 active torsions:
REMARK  status: ('A' for Active; 'I' for Inactive)
REMARK    1  A    between atoms: C_2  and  C_4
REMARK    2  A    between atoms: C_4  and  C_5
REMARK    3  A    between atoms: C_5  and  C_6
REMARK                            x       y       z     vdW  Elec       q    Type
REMARK                         _______ _______ _______ _____ _____    ______ ____
ROOT
ATOM      1  C   UNL     1     -12.192  16.050  71.953  0.00  0.00    +0.117 C 
ENDROOT
BRANCH   1   3
ATOM      2  O   UNL     1     -13.429  14.319  73.093  0.00  0.00    -0.246 OA
ATOM      3  C   UNL     1     -13.434  15.435  72.504  0.00  0.00    +0.365 C 
ATOM      4  O   UNL     1     -14.699  15.924  72.179  0.00  0.00    -0.246 OA
ENDBRANCH   1   3
BRANCH   1   5
ATOM      5  C   UNL     1     -11.466  15.016  71.106  0.00  0.00    +0.047 C 
BRANCH   5   6
ATOM      6  C   UNL     1     -11.927  15.025  69.674  0.00  0.00    +0.183 C 
ATOM      7  O   UNL     1     -12.031  16.294  69.135  0.00  0.00    -0.220 OA
ENDBRANCH   5   6
ENDBRANCH   1   5
TORSDOF 3
ENDMDL
