MODEL 1
REMARK VINA RESULT:      -3.5      0.000      0.000
REMARK  Name = 
REMARK  2 active torsions:
REMARK  status: ('A' for Active; 'I' for Inactive)
REMARK    1  A    between atoms: C_2  and  C_3
REMARK    2  A    between atoms: C_3  and  C_5
REMARK                            x       y       z     vdW  Elec       q    Type
REMARK                         _______ _______ _______ _____ _____    ______ ____
ROOT
ATOM      1  C   UNL     1     -11.698  14.457  64.755  0.00  0.00    +0.217 C 
ATOM      2  O   UNL     1     -12.678  14.585  63.793  0.00  0.00    -0.217 OA
ENDROOT
BRANCH   1   4
ATOM      3  O   UNL     1     -11.315  16.770  64.206  0.00  0.00    -0.217 OA
ATOM      4  C   UNL     1     -10.897  15.695  65.008  0.00  0.00    +0.217 C 
ENDBRANCH   1   4
BRANCH   1   5
ATOM      5  C   UNL     1     -12.236  13.794  65.981  0.00  0.00    +0.217 C 
ATOM      6  O   UNL     1     -12.314  12.413  65.893  0.00  0.00    -0.217 OA
ENDBRANCH   1   5
TORSDOF 2
ENDMDL
MODEL 2
REMARK VINA RESULT:      -3.5      0.502      3.152
REMARK  Name = 
REMARK  2 active torsions:
REMARK  status: ('A' for Active; 'I' for Inactive)
REMARK    1  A    between atoms: C_2  and  C_3
REMARK    2  A    between atoms: C_3  and  C_5
REMARK                            x       y       z     vdW  Elec       q    Type
REMARK                         _______ _______ _______ _____ _____    ______ ____
ROOT
ATOM      1  C   UNL     1     -12.343  14.555  64.738  0.00  0.00    +0.217 C 
ATOM      2  O   UNL     1     -12.560  13.927  63.530  0.00  0.00    -0.217 OA
ENDROOT
BRANCH   1   4
ATOM      3  O   UNL     1     -12.421  12.292  65.557  0.00  0.00    -0.217 OA
ATOM      4  C   UNL     1     -12.269  13.640  65.920  0.00  0.00    +0.217 C 
ENDBRANCH   1   4
BRANCH   1   5
ATOM      5  C   UNL     1     -11.226  15.541  64.635  0.00  0.00    +0.217 C 
ATOM      6  O   UNL     1     -11.551  16.698  63.943  0.00  0.00    -0.217 OA
ENDBRANCH   1   5
TORSDOF 2
ENDMDL
MODEL 3
REMARK VINA RESULT:      -3.4      7.779      8.523
REMARK  Name = 
REMARK  2 active torsions:
REMARK  status: ('A' for Active; 'I' for Inactive)
REMARK    1  A    between atoms: C_2  and  C_3
REMARK    2  A    between atoms: C_3  and  C_5
REMARK                            x       y       z     vdW  Elec       q    Type
REMARK                         _______ _______ _______ _____ _____    ______ ____
ROOT
ATOM      1  C   UNL     1     -13.069  15.353  72.742  0.00  0.00    +0.217 C 
ATOM      2  O   UNL     1     -14.245  16.071  72.689  0.00  0.00    -0.217 OA
ENDROOT
BRANCH   1   4
ATOM      3  O   UNL     1     -12.544  16.504  74.791  0.00  0.00    -0.217 OA
ATOM      4  C   UNL     1     -12.429  15.290  74.093  0.00  0.00    +0.217 C 
ENDBRANCH   1   4
BRANCH   1   5
ATOM      5  C   UNL     1     -13.215  14.035  72.054  0.00  0.00    +0.217 C 
ATOM      6  O   UNL     1     -14.203  13.222  72.587  0.00  0.00    -0.217 OA
ENDBRANCH   1   5
TORSDOF 2
ENDMDL
MODEL 4
REMARK VINA RESULT:      -3.4      7.621      8.185
REMARK  Name = 
REMARK  2 active torsions:
REMARK  status: ('A' for Active; 'I' for Inactive)
REMARK    1  A    between atoms: C_2  and  C_3
REMARK    2  A    between atoms: C_3  and  C_5
REMARK                            x       y       z     vdW  Elec       q    Type
REMARK                         _______ _______ _______ _____ _____    ______ ____
ROOT
ATOM      1  C   UNL     1     -12.971  15.477  72.716  0.00  0.00    +0.217 C 
ATOM      2  O   UNL     1     -14.229  16.041  72.662  0.00  0.00    -0.217 OA
ENDROOT
BRANCH   1   4
ATOM      3  O   UNL     1     -12.499  15.991  70.411  0.00  0.00    -0.217 OA
ATOM      4  C   UNL     1     -11.994  16.022  71.722  0.00  0.00    +0.217 C 
ENDBRANCH   1   4
BRANCH   1   5
ATOM      5  C   UNL     1     -12.471  15.419  74.122  0.00  0.00    +0.217 C 
ATOM      6  O   UNL     1     -12.490  16.638  74.783  0.00  0.00    -0.217 OA
ENDBRANCH   1   5
TORSDOF 2
ENDMDL
MODEL 5
REMARK VINA RESULT:      -3.4      7.843      8.762
REMARK  Name = 
REMARK  2 active torsions:
REMARK  status: ('A' for Active; 'I' for Inactive)
REMARK    1  A    between atoms: C_2  and  C_3
REMARK    2  A    between atoms: C_3  and  C_5
REMARK                            x       y       z     vdW  Elec       q    Type
REMARK                         _______ _______ _______ _____ _____    ______ ____
ROOT
ATOM      1  C   UNL     1     -12.968  15.905  72.856  0.00  0.00    +0.217 C 
ATOM      2  O   UNL     1     -11.963  16.219  71.965  0.00  0.00    -0.217 OA
ENDROOT
BRANCH   1   4
ATOM      3  O   UNL     1     -14.004  13.742  72.635  0.00  0.00    -0.217 OA
ATOM      4  C   UNL     1     -14.089  15.099  72.281  0.00  0.00    +0.217 C 
ENDBRANCH   1   4
BRANCH   1   5
ATOM      5  C   UNL     1     -12.404  15.376  74.134  0.00  0.00    +0.217 C 
ATOM      6  O   UNL     1     -12.514  16.247  75.207  0.00  0.00    -0.217 OA
ENDBRANCH   1   5
TORSDOF 2
ENDMDL
MODEL 6
REMARK VINA RESULT:      -3.4      1.344      2.020
REMARK  Name = 
REMARK  2 active torsions:
REMARK  status: ('A' for Active; 'I' for Inactive)
REMARK    1  A    between atoms: C_2  and  C_3
REMARK    2  A    between atoms: C_3  and  C_5
REMARK                            x       y       z     vdW  Elec       q    Type
REMARK                         _______ _______ _______ _____ _____    ______ ____
ROOT
ATOM      1  C   UNL     1     -11.095  15.589  64.655  0.00  0.00    +0.217 C 
ATOM      2  O   UNL     1     -11.612  16.648  63.939  0.00  0.00    -0.217 OA
ENDROOT
BRANCH   1   4
ATOM      3  O   UNL     1      -9.299  16.809  65.696  0.00  0.00    -0.217 OA
ATOM      4  C   UNL     1     -10.400  15.967  65.925  0.00  0.00    +0.217 C 
ENDBRANCH   1   4
BRANCH   1   5
ATOM      5  C   UNL     1     -12.102  14.494  64.791  0.00  0.00    +0.217 C 
ATOM      6  O   UNL     1     -12.606  14.033  63.585  0.00  0.00    -0.217 OA
ENDBRANCH   1   5
TORSDOF 2
ENDMDL
MODEL 7
REMARK VINA RESULT:      -3.3      7.721      8.520
REMARK  Name = 
REMARK  2 active torsions:
REMARK  status: ('A' for Active; 'I' for Inactive)
REMARK    1  A    between atoms: C_2  and  C_3
REMARK    2  A    between atoms: C_3  and  C_5
REMARK                            x       y       z     vdW  Elec       q    Type
REMARK                         _______ _______ _______ _____ _____    ______ ____
ROOT
ATOM      1  C   UNL     1     -12.863  16.107  72.931  0.00  0.00    +0.217 C 
ATOM      2  O   UNL     1     -14.194  15.939  72.613  0.00  0.00    -0.217 OA
ENDROOT
BRANCH   1   4
ATOM      3  O   UNL     1     -12.512  16.044  75.313  0.00  0.00    -0.217 OA
ATOM      4  C   UNL     1     -12.394  15.321  74.114  0.00  0.00    +0.217 C 
ENDBRANCH   1   4
BRANCH   1   5
ATOM      5  C   UNL     1     -12.004  15.986  71.715  0.00  0.00    +0.217 C 
ATOM      6  O   UNL     1     -12.706  15.989  70.520  0.00  0.00    -0.217 OA
ENDBRANCH   1   5
TORSDOF 2
ENDMDL
MODEL 8
REMARK VINA RESULT:      -3.3      1.292      3.089
REMARK  Name = 
REMARK  2 active torsions:
REMARK  status: ('A' for Active; 'I' for Inactive)
REMARK    1  A    between atoms: C_2  and  C_3
REMARK    2  A    between atoms: C_3  and  C_5
REMARK                            x       y       z     vdW  Elec       q    Type
REMARK                         _______ _______ _______ _____ _____    ______ ____
ROOT
ATOM      1  C   UNL     1     -11.474  15.619  64.848  0.00  0.00    +0.217 C 
ATOM      2  O   UNL     1     -11.534  16.639  63.922  0.00  0.00    -0.217 OA
ENDROOT
BRANCH   1   4
ATOM      3  O   UNL     1     -13.216  13.996  65.210  0.00  0.00    -0.217 OA
ATOM      4  C   UNL     1     -12.111  14.336  64.414  0.00  0.00    +0.217 C 
ENDBRANCH   1   4
BRANCH   1   5
ATOM      5  C   UNL     1     -10.094  15.480  65.402  0.00  0.00    +0.217 C 
ATOM      6  O   UNL     1      -9.448  16.687  65.624  0.00  0.00    -0.217 OA
ENDBRANCH   1   5
TORSDOF 2
ENDMDL
MODEL 9
REMARK VINA RESULT:      -3.1      1.379      3.453
REMARK  Name = 
REMARK  2 active torsions:
REMARK  status: ('A' for Active; 'I' for Inactive)
REMARK    1  A    between atoms: C_2  and  C_3
REMARK    2  A    between atoms: C_3  and  C_5
REMARK                            x       y       z     vdW  Elec       q    Type
REMARK                         _______ _______ _______ _____ _____    ______ ____
ROOT
ATOM      1  C   UNL     1     -12.374  13.100  65.436  0.00  0.00    +0.217 C 
ATOM      2  O   UNL     1     -13.237  12.412  64.609  0.00  0.00    -0.217 OA
ENDROOT
BRANCH   1   4
ATOM      3  O   UNL     1     -12.041  11.576  67.270  0.00  0.00    -0.217 OA
ATOM      4  C   UNL     1     -11.417  12.242  66.202  0.00  0.00    +0.217 C 
ENDBRANCH   1   4
BRANCH   1   5
ATOM      5  C   UNL     1     -11.750  14.251  64.717  0.00  0.00    +0.217 C 
ATOM      6  O   UNL     1     -12.637  14.990  63.950  0.00  0.00    -0.217 OA
ENDBRANCH   1   5
TORSDOF 2
ENDMDL
