MODEL 1
REMARK VINA RESULT:      -7.9      0.000      0.000
REMARK  Name = 
REMARK  15 active torsions:
REMARK  status: ('A' for Active; 'I' for Inactive)
REMARK    1  A    between atoms: N_2  and  C_3
REMARK    2  A    between atoms: C_3  and  C_4
REMARK    3  A    between atoms: C_4  and  O_6
REMARK    4  A    between atoms: O_6  and  C_7
REMARK    5  A    between atoms: C_7  and  C_8
REMARK    6  A    between atoms: C_16  and  O_18
REMARK    7  A    between atoms: O_18  and  C_19
REMARK    8  A    between atoms: C_19  and  N_21
REMARK    9  A    between atoms: N_24  and  C_25
REMARK   10  A    between atoms: C_25  and  C_26
REMARK   11  A    between atoms: C_26  and  C_28
REMARK   12  A    between atoms: C_26  and  C_36
REMARK   13  A    between atoms: C_36  and  C_38
REMARK   14  A    between atoms: C_40  and  C_41
REMARK   15  A    between atoms: C_44  and  C_45
REMARK                            x       y       z     vdW  Elec       q    Type
REMARK                         _______ _______ _______ _____ _____    ______ ____
ROOT
ATOM      1  C   UNL     1     -10.119  11.500  68.305  0.00  0.00    +0.169 C 
ENDROOT
BRANCH   1   4
ATOM      2  N   UNL     1     -12.269  13.568  66.279  0.00  0.00    -0.091 N 
ATOM      3  C   UNL     1     -11.560  12.422  66.431  0.00  0.00    +0.402 A 
ATOM      4  N   UNL     1     -11.190  12.318  67.733  0.00  0.00    -0.181 N 
ATOM      5  N   UNL     1     -11.873  13.302  68.323  0.00  0.00    -0.092 NA
ATOM      6  C   UNL     1     -12.049  14.250  67.364  0.00  0.00    +0.423 A 
BRANCH   2   7
ATOM      7  C   UNL     1     -12.390  14.109  64.801  0.00  0.00    +0.437 C 
ATOM      8  C   UNL     1     -11.923  12.679  64.107  0.00  0.00    +0.141 C 
BRANCH   7   9
ATOM      9  O   UNL     1     -10.936  14.644  64.802  0.00  0.00    -0.375 OA
BRANCH   9  13
ATOM     10  C   UNL     1      -9.438  16.842  68.061  0.00  0.00    +0.053 A 
ATOM     11  C   UNL     1      -9.341  16.298  66.784  0.00  0.00    +0.139 A 
ATOM     12  N   UNL     1     -10.200  16.806  65.783  0.00  0.00    -0.208 N 
ATOM     13  C   UNL     1     -10.890  16.020  64.836  0.00  0.00    +0.414 C 
ATOM     14  O   UNL     1     -11.591  16.603  63.969  0.00  0.00    -0.226 OA
ATOM     15  C   UNL     1     -10.488  18.236  65.860  0.00  0.00    +0.125 C 
ATOM     16  N   UNL     1      -8.518  15.246  66.610  0.00  0.00    -0.229 NA
ATOM     17  C   UNL     1      -8.019  14.638  67.710  0.00  0.00    +0.100 A 
ATOM     18  C   UNL     1      -8.623  14.833  68.943  0.00  0.00    +0.021 A 
ATOM     19  C   UNL     1      -9.150  16.090  69.180  0.00  0.00    +0.004 A 
BRANCH  10  20
ATOM     20  C   UNL     1      -9.929  18.252  68.151  0.00  0.00    +0.238 C 
BRANCH  20  21
ATOM     21  O   UNL     1      -9.113  19.022  69.007  0.00  0.00    -0.442 OA
BRANCH  21  22
ATOM     22  C   UNL     1      -7.989  19.650  68.513  0.00  0.00    +0.335 C 
ATOM     23  O   UNL     1      -8.111  20.276  67.426  0.00  0.00    -0.248 OA
BRANCH  22  24
ATOM     24  C   UNL     1      -6.647  19.578  69.119  0.00  0.00    +0.198 C 
BRANCH  24  26
ATOM     25  C   UNL     1      -5.881  17.704  68.774  0.00  0.00    +0.108 C 
ATOM     26  N   UNL     1      -5.940  18.442  68.537  0.00  0.00    -0.205 NA
ENDBRANCH  24  26
ENDBRANCH  22  24
ENDBRANCH  21  22
ENDBRANCH  20  21
ENDBRANCH  10  20
ENDBRANCH   9  13
ENDBRANCH   7   9
ENDBRANCH   2   7
ENDBRANCH   1   4
BRANCH   1  27
ATOM     27  C   UNL     1     -10.577  10.263  68.848  0.00  0.00    +0.176 C 
ATOM     28  O   UNL     1     -11.696   9.840  68.107  0.00  0.00    -0.219 OA
BRANCH  27  29
ATOM     29  C   UNL     1     -10.887  10.104  70.260  0.00  0.00    +0.037 A 
ATOM     30  C   UNL     1     -12.214  10.207  70.663  0.00  0.00    +0.139 A 
ATOM     31  F   UNL     1     -12.790  11.392  70.306  0.00  0.00    -0.204 F 
ATOM     32  C   UNL     1     -12.716   9.417  71.693  0.00  0.00    +0.032 A 
ATOM     33  C   UNL     1     -11.980   8.335  72.161  0.00  0.00    +0.032 A 
ATOM     34  C   UNL     1     -10.602   8.446  72.021  0.00  0.00    +0.140 A 
ATOM     35  F   UNL     1      -9.748   8.066  73.017  0.00  0.00    -0.204 F 
ATOM     36  C   UNL     1     -10.110   9.229  71.013  0.00  0.00    +0.030 A 
ENDBRANCH  27  29
BRANCH  27  37
ATOM     37  C   UNL     1      -9.569   9.016  68.566  0.00  0.00    +0.080 C 
ATOM     38  C   UNL     1     -10.579   8.318  67.483  0.00  0.00    +0.010 C 
BRANCH  37  39
ATOM     39  C   UNL     1      -8.734   9.758  67.413  0.00  0.00    +0.091 A 
ATOM     40  S   UNL     1      -7.114  10.233  67.413  0.00  0.00    -0.070 S 
ATOM     41  C   UNL     1      -6.835  10.102  65.718  0.00  0.00    +0.056 A 
ATOM     42  C   UNL     1      -8.031   9.530  65.296  0.00  0.00    +0.088 A 
ATOM     43  N   UNL     1      -8.677   8.956  66.312  0.00  0.00    -0.243 NA
BRANCH  42  44
ATOM     44  C   UNL     1      -8.524   9.387  63.916  0.00  0.00    +0.018 A 
ATOM     45  C   UNL     1      -8.752  10.487  63.098  0.00  0.00    +0.002 A 
ATOM     46  C   UNL     1      -9.078  10.286  61.760  0.00  0.00    +0.010 A 
ATOM     47  C   UNL     1      -9.122   8.990  61.268  0.00  0.00    +0.068 A 
ATOM     48  C   UNL     1      -8.555   7.935  61.975  0.00  0.00    +0.010 A 
ATOM     49  C   UNL     1      -8.122   8.246  63.229  0.00  0.00    +0.002 A 
BRANCH  47  50
ATOM     50  C   UNL     1      -9.670   8.677  59.985  0.00  0.00    +0.100 C 
ATOM     51  N   UNL     1     -10.240   8.464  59.001  0.00  0.00    -0.191 NA
ENDBRANCH  47  50
ENDBRANCH  42  44
ENDBRANCH  37  39
ENDBRANCH  27  37
ENDBRANCH   1  27
TORSDOF 15
ENDMDL
MODEL 2
REMARK VINA RESULT:      -7.6      3.733      9.631
REMARK  Name = 
REMARK  15 active torsions:
REMARK  status: ('A' for Active; 'I' for Inactive)
REMARK    1  A    between atoms: N_2  and  C_3
REMARK    2  A    between atoms: C_3  and  C_4
REMARK    3  A    between atoms: C_4  and  O_6
REMARK    4  A    between atoms: O_6  and  C_7
REMARK    5  A    between atoms: C_7  and  C_8
REMARK    6  A    between atoms: C_16  and  O_18
REMARK    7  A    between atoms: O_18  and  C_19
REMARK    8  A    between atoms: C_19  and  N_21
REMARK    9  A    between atoms: N_24  and  C_25
REMARK   10  A    between atoms: C_25  and  C_26
REMARK   11  A    between atoms: C_26  and  C_28
REMARK   12  A    between atoms: C_26  and  C_36
REMARK   13  A    between atoms: C_36  and  C_38
REMARK   14  A    between atoms: C_40  and  C_41
REMARK   15  A    between atoms: C_44  and  C_45
REMARK                            x       y       z     vdW  Elec       q    Type
REMARK                         _______ _______ _______ _____ _____    ______ ____
ROOT
ATOM      1  C   UNL     1      -9.106  14.785  68.257  0.00  0.00    +0.169 C 
ENDROOT
BRANCH   1   4
ATOM      2  N   UNL     1      -7.210  11.968  67.044  0.00  0.00    -0.091 N 
ATOM      3  C   UNL     1      -8.412  12.565  67.247  0.00  0.00    +0.402 A 
ATOM      4  N   UNL     1      -8.193  13.862  67.581  0.00  0.00    -0.181 N 
ATOM      5  N   UNL     1      -6.886  14.018  67.359  0.00  0.00    -0.092 NA
ATOM      6  C   UNL     1      -6.335  12.788  67.546  0.00  0.00    +0.423 A 
BRANCH   2   7
ATOM      7  C   UNL     1      -7.207  10.391  67.105  0.00  0.00    +0.437 C 
ATOM      8  C   UNL     1      -8.324  10.218  65.893  0.00  0.00    +0.141 C 
BRANCH   7   9
ATOM      9  O   UNL     1      -8.308  10.361  68.196  0.00  0.00    -0.375 OA
BRANCH   9  13
ATOM     10  C   UNL     1      -9.819   6.754  69.745  0.00  0.00    +0.053 A 
ATOM     11  C   UNL     1      -8.861   7.510  69.078  0.00  0.00    +0.139 A 
ATOM     12  N   UNL     1      -8.155   8.486  69.819  0.00  0.00    -0.208 N 
ATOM     13  C   UNL     1      -7.862   9.789  69.366  0.00  0.00    +0.414 C 
ATOM     14  O   UNL     1      -7.187  10.546  70.111  0.00  0.00    -0.226 OA
ATOM     15  C   UNL     1      -7.856   8.134  71.206  0.00  0.00    +0.125 C 
ATOM     16  N   UNL     1      -8.746   7.347  67.746  0.00  0.00    -0.229 NA
ATOM     17  C   UNL     1      -9.708   6.644  67.105  0.00  0.00    +0.100 A 
ATOM     18  C   UNL     1     -10.937   6.438  67.713  0.00  0.00    +0.021 A 
ATOM     19  C   UNL     1     -10.924   6.260  69.085  0.00  0.00    +0.004 A 
BRANCH  10  20
ATOM     20  C   UNL     1      -9.615   6.563  71.215  0.00  0.00    +0.238 C 
BRANCH  20  21
ATOM     21  O   UNL     1     -10.409   5.505  71.706  0.00  0.00    -0.442 OA
BRANCH  21  22
ATOM     22  C   UNL     1     -10.757   5.460  73.038  0.00  0.00    +0.335 C 
ATOM     23  O   UNL     1     -11.347   4.422  73.445  0.00  0.00    -0.248 OA
BRANCH  22  24
ATOM     24  C   UNL     1     -10.562   6.561  74.000  0.00  0.00    +0.198 C 
BRANCH  24  26
ATOM     25  C   UNL     1      -8.894   6.136  75.121  0.00  0.00    +0.108 C 
ATOM     26  N   UNL     1      -9.668   6.097  75.055  0.00  0.00    -0.205 NA
ENDBRANCH  24  26
ENDBRANCH  22  24
ENDBRANCH  21  22
ENDBRANCH  20  21
ENDBRANCH  10  20
ENDBRANCH   9  13
ENDBRANCH   7   9
ENDBRANCH   2   7
ENDBRANCH   1   4
BRANCH   1  27
ATOM     27  C   UNL     1      -9.783  15.670  67.366  0.00  0.00    +0.176 C 
ATOM     28  O   UNL     1      -9.792  15.088  66.085  0.00  0.00    -0.219 OA
BRANCH  27  29
ATOM     29  C   UNL     1      -9.403  17.065  67.223  0.00  0.00    +0.037 A 
ATOM     30  C   UNL     1     -10.306  17.942  66.630  0.00  0.00    +0.139 A 
ATOM     31  F   UNL     1     -10.687  17.550  65.380  0.00  0.00    -0.204 F 
ATOM     32  C   UNL     1     -10.419  19.260  67.062  0.00  0.00    +0.032 A 
ATOM     33  C   UNL     1      -9.825  19.653  68.256  0.00  0.00    +0.032 A 
ATOM     34  C   UNL     1      -8.702  18.925  68.632  0.00  0.00    +0.140 A 
ATOM     35  F   UNL     1      -7.591  19.535  69.139  0.00  0.00    -0.204 F 
ATOM     36  C   UNL     1      -8.589  17.632  68.199  0.00  0.00    +0.030 A 
ENDBRANCH  27  29
BRANCH  27  37
ATOM     37  C   UNL     1     -11.385  15.766  67.639  0.00  0.00    +0.080 C 
ATOM     38  C   UNL     1     -11.685  14.297  66.980  0.00  0.00    +0.010 C 
BRANCH  37  39
ATOM     39  C   UNL     1     -11.320  15.164  69.125  0.00  0.00    +0.091 A 
ATOM     40  S   UNL     1     -11.599  15.938  70.599  0.00  0.00    -0.070 S 
ATOM     41  C   UNL     1     -12.171  14.570  71.475  0.00  0.00    +0.056 A 
ATOM     42  C   UNL     1     -12.244  13.618  70.461  0.00  0.00    +0.088 A 
ATOM     43  N   UNL     1     -12.270  14.194  69.259  0.00  0.00    -0.243 NA
BRANCH  42  44
ATOM     44  C   UNL     1     -12.431  12.164  70.603  0.00  0.00    +0.018 A 
ATOM     45  C   UNL     1     -11.543  11.250  70.049  0.00  0.00    +0.002 A 
ATOM     46  C   UNL     1     -11.691   9.897  70.337  0.00  0.00    +0.010 A 
ATOM     47  C   UNL     1     -12.696   9.501  71.207  0.00  0.00    +0.068 A 
ATOM     48  C   UNL     1     -13.340  10.424  72.024  0.00  0.00    +0.010 A 
ATOM     49  C   UNL     1     -13.031  11.728  71.780  0.00  0.00    +0.002 A 
BRANCH  47  50
ATOM     50  C   UNL     1     -13.068   8.131  71.375  0.00  0.00    +0.100 C 
ATOM     51  N   UNL     1     -13.491   7.071  71.571  0.00  0.00    -0.191 NA
ENDBRANCH  47  50
ENDBRANCH  42  44
ENDBRANCH  37  39
ENDBRANCH  27  37
ENDBRANCH   1  27
TORSDOF 15
ENDMDL
MODEL 3
REMARK VINA RESULT:      -7.6      2.799      5.791
REMARK  Name = 
REMARK  15 active torsions:
REMARK  status: ('A' for Active; 'I' for Inactive)
REMARK    1  A    between atoms: N_2  and  C_3
REMARK    2  A    between atoms: C_3  and  C_4
REMARK    3  A    between atoms: C_4  and  O_6
REMARK    4  A    between atoms: O_6  and  C_7
REMARK    5  A    between atoms: C_7  and  C_8
REMARK    6  A    between atoms: C_16  and  O_18
REMARK    7  A    between atoms: O_18  and  C_19
REMARK    8  A    between atoms: C_19  and  N_21
REMARK    9  A    between atoms: N_24  and  C_25
REMARK   10  A    between atoms: C_25  and  C_26
REMARK   11  A    between atoms: C_26  and  C_28
REMARK   12  A    between atoms: C_26  and  C_36
REMARK   13  A    between atoms: C_36  and  C_38
REMARK   14  A    between atoms: C_40  and  C_41
REMARK   15  A    between atoms: C_44  and  C_45
REMARK                            x       y       z     vdW  Elec       q    Type
REMARK                         _______ _______ _______ _____ _____    ______ ____
ROOT
ATOM      1  C   UNL     1     -10.505   9.270  67.215  0.00  0.00    +0.169 C 
ENDROOT
BRANCH   1   4
ATOM      2  N   UNL     1     -10.789  12.552  65.750  0.00  0.00    -0.091 N 
ATOM      3  C   UNL     1     -10.613  11.777  66.850  0.00  0.00    +0.402 A 
ATOM      4  N   UNL     1     -10.372  10.505  66.443  0.00  0.00    -0.181 N 
ATOM      5  N   UNL     1     -10.215  10.633  65.123  0.00  0.00    -0.092 NA
ATOM      6  C   UNL     1     -10.959  11.716  64.770  0.00  0.00    +0.423 A 
BRANCH   2   7
ATOM      7  C   UNL     1     -11.525  13.927  65.990  0.00  0.00    +0.437 C 
ATOM      8  C   UNL     1     -12.854  13.515  65.089  0.00  0.00    +0.141 C 
BRANCH   7   9
ATOM      9  O   UNL     1     -10.837  14.590  64.771  0.00  0.00    -0.375 OA
BRANCH   9  13
ATOM     10  C   UNL     1      -9.433  16.761  68.088  0.00  0.00    +0.053 A 
ATOM     11  C   UNL     1      -9.315  16.262  66.795  0.00  0.00    +0.139 A 
ATOM     12  N   UNL     1     -10.205  16.755  65.813  0.00  0.00    -0.208 N 
ATOM     13  C   UNL     1     -10.861  15.965  64.846  0.00  0.00    +0.414 C 
ATOM     14  O   UNL     1     -11.596  16.538  64.000  0.00  0.00    -0.226 OA
ATOM     15  C   UNL     1     -10.564  18.167  65.936  0.00  0.00    +0.125 C 
ATOM     16  N   UNL     1      -8.442  15.259  66.585  0.00  0.00    -0.229 NA
ATOM     17  C   UNL     1      -7.906  14.644  67.664  0.00  0.00    +0.100 A 
ATOM     18  C   UNL     1      -8.511  14.771  68.905  0.00  0.00    +0.021 A 
ATOM     19  C   UNL     1      -9.099  15.992  69.183  0.00  0.00    +0.004 A 
BRANCH  10  20
ATOM     20  C   UNL     1      -9.994  18.141  68.223  0.00  0.00    +0.238 C 
BRANCH  20  21
ATOM     21  O   UNL     1      -9.131  18.970  68.972  0.00  0.00    -0.442 OA
BRANCH  21  22
ATOM     22  C   UNL     1      -8.009  19.513  68.384  0.00  0.00    +0.335 C 
ATOM     23  O   UNL     1      -8.186  20.258  67.382  0.00  0.00    -0.248 OA
BRANCH  22  24
ATOM     24  C   UNL     1      -6.621  19.227  68.790  0.00  0.00    +0.198 C 
BRANCH  24  26
ATOM     25  C   UNL     1      -5.629  17.766  67.740  0.00  0.00    +0.108 C 
ATOM     26  N   UNL     1      -6.224  17.950  68.205  0.00  0.00    -0.205 NA
ENDBRANCH  24  26
ENDBRANCH  22  24
ENDBRANCH  21  22
ENDBRANCH  20  21
ENDBRANCH  10  20
ENDBRANCH   9  13
ENDBRANCH   7   9
ENDBRANCH   2   7
ENDBRANCH   1   4
BRANCH   1  27
ATOM     27  C   UNL     1      -9.271   8.574  67.391  0.00  0.00    +0.176 C 
ATOM     28  O   UNL     1      -8.221   9.433  67.020  0.00  0.00    -0.219 OA
BRANCH  27  29
ATOM     29  C   UNL     1      -9.023   7.275  66.788  0.00  0.00    +0.037 A 
ATOM     30  C   UNL     1      -7.876   6.580  67.158  0.00  0.00    +0.139 A 
ATOM     31  F   UNL     1      -6.730   7.291  66.948  0.00  0.00    -0.204 F 
ATOM     32  C   UNL     1      -7.880   5.192  67.268  0.00  0.00    +0.032 A 
ATOM     33  C   UNL     1      -9.084   4.498  67.266  0.00  0.00    +0.032 A 
ATOM     34  C   UNL     1     -10.125   5.112  66.580  0.00  0.00    +0.140 A 
ATOM     35  F   UNL     1     -10.965   4.403  65.770  0.00  0.00    -0.204 F 
ATOM     36  C   UNL     1     -10.116   6.475  66.465  0.00  0.00    +0.030 A 
ENDBRANCH  27  29
BRANCH  27  37
ATOM     37  C   UNL     1      -8.885   8.318  68.951  0.00  0.00    +0.080 C 
ATOM     38  C   UNL     1      -8.493   9.886  69.212  0.00  0.00    +0.010 C 
BRANCH  37  39
ATOM     39  C   UNL     1     -10.376   8.526  69.510  0.00  0.00    +0.091 A 
ATOM     40  S   UNL     1     -11.341   7.455  70.387  0.00  0.00    -0.070 S 
ATOM     41  C   UNL     1     -12.252   8.626  71.262  0.00  0.00    +0.056 A 
ATOM     42  C   UNL     1     -11.596   9.798  70.895  0.00  0.00    +0.088 A 
ATOM     43  N   UNL     1     -10.377   9.542  70.419  0.00  0.00    -0.243 NA
BRANCH  42  44
ATOM     44  C   UNL     1     -12.042  11.185  71.112  0.00  0.00    +0.018 A 
ATOM     45  C   UNL     1     -11.846  12.178  70.161  0.00  0.00    +0.002 A 
ATOM     46  C   UNL     1     -12.416  13.432  70.359  0.00  0.00    +0.010 A 
ATOM     47  C   UNL     1     -13.203  13.643  71.480  0.00  0.00    +0.068 A 
ATOM     48  C   UNL     1     -13.686  12.574  72.228  0.00  0.00    +0.010 A 
ATOM     49  C   UNL     1     -13.192  11.353  71.877  0.00  0.00    +0.002 A 
BRANCH  47  50
ATOM     50  C   UNL     1     -13.629  14.947  71.883  0.00  0.00    +0.100 C 
ATOM     51  N   UNL     1     -13.931  15.966  72.342  0.00  0.00    -0.191 NA
ENDBRANCH  47  50
ENDBRANCH  42  44
ENDBRANCH  37  39
ENDBRANCH  27  37
ENDBRANCH   1  27
TORSDOF 15
ENDMDL
MODEL 4
REMARK VINA RESULT:      -7.5      3.099      6.348
REMARK  Name = 
REMARK  15 active torsions:
REMARK  status: ('A' for Active; 'I' for Inactive)
REMARK    1  A    between atoms: N_2  and  C_3
REMARK    2  A    between atoms: C_3  and  C_4
REMARK    3  A    between atoms: C_4  and  O_6
REMARK    4  A    between atoms: O_6  and  C_7
REMARK    5  A    between atoms: C_7  and  C_8
REMARK    6  A    between atoms: C_16  and  O_18
REMARK    7  A    between atoms: O_18  and  C_19
REMARK    8  A    between atoms: C_19  and  N_21
REMARK    9  A    between atoms: N_24  and  C_25
REMARK   10  A    between atoms: C_25  and  C_26
REMARK   11  A    between atoms: C_26  and  C_28
REMARK   12  A    between atoms: C_26  and  C_36
REMARK   13  A    between atoms: C_36  and  C_38
REMARK   14  A    between atoms: C_40  and  C_41
REMARK   15  A    between atoms: C_44  and  C_45
REMARK                            x       y       z     vdW  Elec       q    Type
REMARK                         _______ _______ _______ _____ _____    ______ ____
ROOT
ATOM      1  C   UNL     1     -10.789   6.946  69.373  0.00  0.00    +0.169 C 
ENDROOT
BRANCH   1   4
ATOM      2  N   UNL     1      -9.735   9.110  66.687  0.00  0.00    -0.091 N 
ATOM      3  C   UNL     1     -10.452   8.927  67.825  0.00  0.00    +0.402 A 
ATOM      4  N   UNL     1     -10.067   7.754  68.389  0.00  0.00    -0.181 N 
ATOM      5  N   UNL     1      -9.000   7.405  67.667  0.00  0.00    -0.092 NA
ATOM      6  C   UNL     1      -9.195   7.954  66.437  0.00  0.00    +0.423 A 
BRANCH   2   7
ATOM      7  C   UNL     1     -10.335  10.143  65.656  0.00  0.00    +0.437 C 
ATOM      8  C   UNL     1      -8.854  10.625  65.089  0.00  0.00    +0.141 C 
BRANCH   7   9
ATOM      9  O   UNL     1     -10.364  11.282  66.705  0.00  0.00    -0.375 OA
BRANCH   9  13
ATOM     10  C   UNL     1      -9.701  15.236  67.979  0.00  0.00    +0.053 A 
ATOM     11  C   UNL     1      -9.613  14.202  67.053  0.00  0.00    +0.139 A 
ATOM     12  N   UNL     1     -10.815  13.716  66.489  0.00  0.00    -0.208 N 
ATOM     13  C   UNL     1     -11.121  12.354  66.287  0.00  0.00    +0.414 C 
ATOM     14  O   UNL     1     -12.211  12.059  65.734  0.00  0.00    -0.226 OA
ATOM     15  C   UNL     1     -11.853  14.717  66.250  0.00  0.00    +0.125 C 
ATOM     16  N   UNL     1      -8.403  13.652  66.837  0.00  0.00    -0.229 NA
ATOM     17  C   UNL     1      -7.399  13.968  67.687  0.00  0.00    +0.100 A 
ATOM     18  C   UNL     1      -7.688  14.512  68.930  0.00  0.00    +0.021 A 
ATOM     19  C   UNL     1      -8.773  15.369  68.990  0.00  0.00    +0.004 A 
BRANCH  10  20
ATOM     20  C   UNL     1     -10.882  16.146  67.855  0.00  0.00    +0.238 C 
BRANCH  20  21
ATOM     21  O   UNL     1     -10.480  17.497  67.804  0.00  0.00    -0.442 OA
BRANCH  21  22
ATOM     22  C   UNL     1      -9.893  18.003  66.664  0.00  0.00    +0.335 C 
ATOM     23  O   UNL     1     -10.457  17.750  65.564  0.00  0.00    -0.248 OA
BRANCH  22  24
ATOM     24  C   UNL     1      -8.620  18.746  66.627  0.00  0.00    +0.198 C 
BRANCH  24  26
ATOM     25  C   UNL     1      -7.341  17.253  66.031  0.00  0.00    +0.108 C 
ATOM     26  N   UNL     1      -7.646  17.953  65.885  0.00  0.00    -0.205 NA
ENDBRANCH  24  26
ENDBRANCH  22  24
ENDBRANCH  21  22
ENDBRANCH  20  21
ENDBRANCH  10  20
ENDBRANCH   9  13
ENDBRANCH   7   9
ENDBRANCH   2   7
ENDBRANCH   1   4
BRANCH   1  27
ATOM     27  C   UNL     1      -9.999   6.593  70.508  0.00  0.00    +0.176 C 
ATOM     28  O   UNL     1      -9.054   7.612  70.724  0.00  0.00    -0.219 OA
BRANCH  27  29
ATOM     29  C   UNL     1      -9.313   5.315  70.606  0.00  0.00    +0.037 A 
ATOM     30  C   UNL     1      -7.924   5.312  70.682  0.00  0.00    +0.139 A 
ATOM     31  F   UNL     1      -7.331   5.951  69.631  0.00  0.00    -0.204 F 
ATOM     32  C   UNL     1      -7.248   4.378  71.460  0.00  0.00    +0.032 A 
ATOM     33  C   UNL     1      -7.948   3.599  72.376  0.00  0.00    +0.032 A 
ATOM     34  C   UNL     1      -9.280   3.362  72.062  0.00  0.00    +0.140 A 
ATOM     35  F   UNL     1      -9.846   2.131  72.227  0.00  0.00    -0.204 F 
ATOM     36  C   UNL     1      -9.941   4.278  71.289  0.00  0.00    +0.030 A 
ENDBRANCH  27  29
BRANCH  27  37
ATOM     37  C   UNL     1     -10.815   6.665  71.915  0.00  0.00    +0.080 C 
ATOM     38  C   UNL     1      -9.961   7.953  72.456  0.00  0.00    +0.010 C 
BRANCH  37  39
ATOM     39  C   UNL     1     -11.996   7.596  71.355  0.00  0.00    +0.091 A 
ATOM     40  S   UNL     1     -13.665   7.354  71.427  0.00  0.00    -0.070 S 
ATOM     41  C   UNL     1     -14.139   9.010  71.449  0.00  0.00    +0.056 A 
ATOM     42  C   UNL     1     -12.901   9.638  71.557  0.00  0.00    +0.088 A 
ATOM     43  N   UNL     1     -11.969   8.795  72.004  0.00  0.00    -0.243 NA
BRANCH  42  44
ATOM     44  C   UNL     1     -12.598  11.068  71.377  0.00  0.00    +0.018 A 
ATOM     45  C   UNL     1     -12.034  11.559  70.206  0.00  0.00    +0.002 A 
ATOM     46  C   UNL     1     -11.905  12.935  70.038  0.00  0.00    +0.010 A 
ATOM     47  C   UNL     1     -12.385  13.780  71.027  0.00  0.00    +0.068 A 
ATOM     48  C   UNL     1     -13.253  13.315  72.008  0.00  0.00    +0.010 A 
ATOM     49  C   UNL     1     -13.447  11.966  72.017  0.00  0.00    +0.002 A 
BRANCH  47  50
ATOM     50  C   UNL     1     -12.088  15.178  71.050  0.00  0.00    +0.100 C 
ATOM     51  N   UNL     1     -11.717  16.273  71.116  0.00  0.00    -0.191 NA
ENDBRANCH  47  50
ENDBRANCH  42  44
ENDBRANCH  37  39
ENDBRANCH  27  37
ENDBRANCH   1  27
TORSDOF 15
ENDMDL
MODEL 5
REMARK VINA RESULT:      -7.5      3.735      9.781
REMARK  Name = 
REMARK  15 active torsions:
REMARK  status: ('A' for Active; 'I' for Inactive)
REMARK    1  A    between atoms: N_2  and  C_3
REMARK    2  A    between atoms: C_3  and  C_4
REMARK    3  A    between atoms: C_4  and  O_6
REMARK    4  A    between atoms: O_6  and  C_7
REMARK    5  A    between atoms: C_7  and  C_8
REMARK    6  A    between atoms: C_16  and  O_18
REMARK    7  A    between atoms: O_18  and  C_19
REMARK    8  A    between atoms: C_19  and  N_21
REMARK    9  A    between atoms: N_24  and  C_25
REMARK   10  A    between atoms: C_25  and  C_26
REMARK   11  A    between atoms: C_26  and  C_28
REMARK   12  A    between atoms: C_26  and  C_36
REMARK   13  A    between atoms: C_36  and  C_38
REMARK   14  A    between atoms: C_40  and  C_41
REMARK   15  A    between atoms: C_44  and  C_45
REMARK                            x       y       z     vdW  Elec       q    Type
REMARK                         _______ _______ _______ _____ _____    ______ ____
ROOT
ATOM      1  C   UNL     1      -8.482  15.431  67.099  0.00  0.00    +0.169 C 
ENDROOT
BRANCH   1   4
ATOM      2  N   UNL     1      -6.201  12.961  68.402  0.00  0.00    -0.091 N 
ATOM      3  C   UNL     1      -6.977  13.409  67.384  0.00  0.00    +0.402 A 
ATOM      4  N   UNL     1      -7.361  14.680  67.666  0.00  0.00    -0.181 N 
ATOM      5  N   UNL     1      -6.626  14.990  68.737  0.00  0.00    -0.092 NA
ATOM      6  C   UNL     1      -6.388  13.809  69.370  0.00  0.00    +0.423 A 
BRANCH   2   7
ATOM      7  C   UNL     1      -6.038  11.395  68.504  0.00  0.00    +0.437 C 
ATOM      8  C   UNL     1      -6.783  11.099  67.053  0.00  0.00    +0.141 C 
BRANCH   7   9
ATOM      9  O   UNL     1      -7.370  11.235  69.280  0.00  0.00    -0.375 OA
BRANCH   9  13
ATOM     10  C   UNL     1     -10.881   9.622  70.943  0.00  0.00    +0.053 A 
ATOM     11  C   UNL     1      -9.864   9.661  69.994  0.00  0.00    +0.139 A 
ATOM     12  N   UNL     1      -8.549   9.370  70.423  0.00  0.00    -0.208 N 
ATOM     13  C   UNL     1      -7.395  10.084  70.035  0.00  0.00    +0.414 C 
ATOM     14  O   UNL     1      -6.277   9.693  70.457  0.00  0.00    -0.226 OA
ATOM     15  C   UNL     1      -8.432   8.348  71.461  0.00  0.00    +0.125 C 
ATOM     16  N   UNL     1     -10.176  10.084  68.754  0.00  0.00    -0.229 NA
ATOM     17  C   UNL     1     -11.385  10.661  68.564  0.00  0.00    +0.100 A 
ATOM     18  C   UNL     1     -12.102  11.143  69.648  0.00  0.00    +0.021 A 
ATOM     19  C   UNL     1     -11.996  10.425  70.826  0.00  0.00    +0.004 A 
BRANCH  10  20
ATOM     20  C   UNL     1     -10.667   8.718  72.116  0.00  0.00    +0.238 C 
BRANCH  20  21
ATOM     21  O   UNL     1     -11.831   7.976  72.405  0.00  0.00    -0.442 OA
BRANCH  21  22
ATOM     22  C   UNL     1     -12.263   6.997  71.536  0.00  0.00    +0.335 C 
ATOM     23  O   UNL     1     -13.499   6.948  71.291  0.00  0.00    -0.248 OA
BRANCH  22  24
ATOM     24  C   UNL     1     -11.403   5.961  70.936  0.00  0.00    +0.198 C 
BRANCH  24  26
ATOM     25  C   UNL     1     -10.748   6.216  69.006  0.00  0.00    +0.108 C 
ATOM     26  N   UNL     1     -11.352   6.183  69.495  0.00  0.00    -0.205 NA
ENDBRANCH  24  26
ENDBRANCH  22  24
ENDBRANCH  21  22
ENDBRANCH  20  21
ENDBRANCH  10  20
ENDBRANCH   9  13
ENDBRANCH   7   9
ENDBRANCH   2   7
ENDBRANCH   1   4
BRANCH   1  27
ATOM     27  C   UNL     1      -9.758  14.952  67.521  0.00  0.00    +0.176 C 
ATOM     28  O   UNL     1      -9.630  14.436  68.823  0.00  0.00    -0.219 OA
BRANCH  27  29
ATOM     29  C   UNL     1     -10.526  14.000  66.734  0.00  0.00    +0.037 A 
ATOM     30  C   UNL     1     -11.914  14.040  66.816  0.00  0.00    +0.139 A 
ATOM     31  F   UNL     1     -12.378  13.898  68.091  0.00  0.00    -0.204 F 
ATOM     32  C   UNL     1     -12.708  13.777  65.703  0.00  0.00    +0.032 A 
ATOM     33  C   UNL     1     -12.135  13.726  64.437  0.00  0.00    +0.032 A 
ATOM     34  C   UNL     1     -10.798  13.351  64.402  0.00  0.00    +0.140 A 
ATOM     35  F   UNL     1     -10.322  12.482  63.462  0.00  0.00    -0.204 F 
ATOM     36  C   UNL     1     -10.021  13.603  65.500  0.00  0.00    +0.030 A 
ENDBRANCH  27  29
BRANCH  27  37
ATOM     37  C   UNL     1     -10.840  16.137  67.796  0.00  0.00    +0.080 C 
ATOM     38  C   UNL     1     -10.262  16.450  69.296  0.00  0.00    +0.010 C 
BRANCH  37  39
ATOM     39  C   UNL     1      -9.955  17.303  67.137  0.00  0.00    +0.091 A 
ATOM     40  S   UNL     1     -10.402  18.456  65.988  0.00  0.00    -0.070 S 
ATOM     41  C   UNL     1      -9.319  19.702  66.477  0.00  0.00    +0.056 A 
ATOM     42  C   UNL     1      -8.784  19.148  67.637  0.00  0.00    +0.088 A 
ATOM     43  N   UNL     1      -9.562  18.173  68.110  0.00  0.00    -0.243 NA
BRANCH  42  44
ATOM     44  C   UNL     1      -7.613  19.612  68.400  0.00  0.00    +0.018 A 
ATOM     45  C   UNL     1      -6.947  18.788  69.299  0.00  0.00    +0.002 A 
ATOM     46  C   UNL     1      -5.764  19.232  69.881  0.00  0.00    +0.010 A 
ATOM     47  C   UNL     1      -5.255  20.468  69.512  0.00  0.00    +0.068 A 
ATOM     48  C   UNL     1      -5.715  21.120  68.373  0.00  0.00    +0.010 A 
ATOM     49  C   UNL     1      -6.791  20.541  67.769  0.00  0.00    +0.002 A 
BRANCH  47  50
ATOM     50  C   UNL     1      -4.187  21.100  70.221  0.00  0.00    +0.100 C 
ATOM     51  N   UNL     1      -3.335  21.506  70.891  0.00  0.00    -0.191 NA
ENDBRANCH  47  50
ENDBRANCH  42  44
ENDBRANCH  37  39
ENDBRANCH  27  37
ENDBRANCH   1  27
TORSDOF 15
ENDMDL
MODEL 6
REMARK VINA RESULT:      -7.3      3.432      7.422
REMARK  Name = 
REMARK  15 active torsions:
REMARK  status: ('A' for Active; 'I' for Inactive)
REMARK    1  A    between atoms: N_2  and  C_3
REMARK    2  A    between atoms: C_3  and  C_4
REMARK    3  A    between atoms: C_4  and  O_6
REMARK    4  A    between atoms: O_6  and  C_7
REMARK    5  A    between atoms: C_7  and  C_8
REMARK    6  A    between atoms: C_16  and  O_18
REMARK    7  A    between atoms: O_18  and  C_19
REMARK    8  A    between atoms: C_19  and  N_21
REMARK    9  A    between atoms: N_24  and  C_25
REMARK   10  A    between atoms: C_25  and  C_26
REMARK   11  A    between atoms: C_26  and  C_28
REMARK   12  A    between atoms: C_26  and  C_36
REMARK   13  A    between atoms: C_36  and  C_38
REMARK   14  A    between atoms: C_40  and  C_41
REMARK   15  A    between atoms: C_44  and  C_45
REMARK                            x       y       z     vdW  Elec       q    Type
REMARK                         _______ _______ _______ _____ _____    ______ ____
ROOT
ATOM      1  C   UNL     1      -8.544  11.898  68.148  0.00  0.00    +0.169 C 
ENDROOT
BRANCH   1   4
ATOM      2  N   UNL     1      -5.197  12.709  69.217  0.00  0.00    -0.091 N 
ATOM      3  C   UNL     1      -6.461  12.325  69.530  0.00  0.00    +0.402 A 
ATOM      4  N   UNL     1      -7.102  11.991  68.382  0.00  0.00    -0.181 N 
ATOM      5  N   UNL     1      -6.124  11.998  67.473  0.00  0.00    -0.092 NA
ATOM      6  C   UNL     1      -5.208  12.893  67.930  0.00  0.00    +0.423 A 
BRANCH   2   7
ATOM      7  C   UNL     1      -4.448  13.562  70.313  0.00  0.00    +0.437 C 
ATOM      8  C   UNL     1      -4.831  12.533  71.554  0.00  0.00    +0.141 C 
BRANCH   7   9
ATOM      9  O   UNL     1      -5.695  14.440  70.585  0.00  0.00    -0.375 OA
BRANCH   9  13
ATOM     10  C   UNL     1      -6.962  17.156  67.634  0.00  0.00    +0.053 A 
ATOM     11  C   UNL     1      -7.041  16.569  68.893  0.00  0.00    +0.139 A 
ATOM     12  N   UNL     1      -5.965  16.777  69.787  0.00  0.00    -0.208 N 
ATOM     13  C   UNL     1      -5.390  15.782  70.605  0.00  0.00    +0.414 C 
ATOM     14  O   UNL     1      -4.463  16.112  71.389  0.00  0.00    -0.226 OA
ATOM     15  C   UNL     1      -5.331  18.092  69.720  0.00  0.00    +0.125 C 
ATOM     16  N   UNL     1      -8.079  15.747  69.140  0.00  0.00    -0.229 NA
ATOM     17  C   UNL     1      -8.846  15.359  68.097  0.00  0.00    +0.100 A 
ATOM     18  C   UNL     1      -8.367  15.479  66.801  0.00  0.00    +0.021 A 
ATOM     19  C   UNL     1      -7.568  16.577  66.539  0.00  0.00    +0.004 A 
BRANCH  10  20
ATOM     20  C   UNL     1      -6.140  18.401  67.527  0.00  0.00    +0.238 C 
BRANCH  20  21
ATOM     21  O   UNL     1      -6.703  19.304  66.600  0.00  0.00    -0.442 OA
BRANCH  21  22
ATOM     22  C   UNL     1      -7.440  20.382  67.041  0.00  0.00    +0.335 C 
ATOM     23  O   UNL     1      -6.810  21.441  67.308  0.00  0.00    -0.248 OA
BRANCH  22  24
ATOM     24  C   UNL     1      -8.892  20.364  67.298  0.00  0.00    +0.198 C 
BRANCH  24  26
ATOM     25  C   UNL     1     -10.220  19.225  66.222  0.00  0.00    +0.108 C 
ATOM     26  N   UNL     1      -9.537  19.597  66.238  0.00  0.00    -0.205 NA
ENDBRANCH  24  26
ENDBRANCH  22  24
ENDBRANCH  21  22
ENDBRANCH  20  21
ENDBRANCH  10  20
ENDBRANCH   9  13
ENDBRANCH   7   9
ENDBRANCH   2   7
ENDBRANCH   1   4
BRANCH   1  27
ATOM     27  C   UNL     1      -9.020  10.556  68.056  0.00  0.00    +0.176 C 
ATOM     28  O   UNL     1      -8.708   9.892  69.256  0.00  0.00    -0.219 OA
BRANCH  27  29
ATOM     29  C   UNL     1      -8.660   9.681  66.952  0.00  0.00    +0.037 A 
ATOM     30  C   UNL     1      -8.576  10.225  65.675  0.00  0.00    +0.139 A 
ATOM     31  F   UNL     1      -9.730  10.836  65.278  0.00  0.00    -0.204 F 
ATOM     32  C   UNL     1      -7.620   9.782  64.766  0.00  0.00    +0.032 A 
ATOM     33  C   UNL     1      -6.570   8.979  65.197  0.00  0.00    +0.032 A 
ATOM     34  C   UNL     1      -6.838   8.196  66.313  0.00  0.00    +0.140 A 
ATOM     35  F   UNL     1      -6.430   6.895  66.389  0.00  0.00    -0.204 F 
ATOM     36  C   UNL     1      -7.784   8.628  67.201  0.00  0.00    +0.030 A 
ENDBRANCH  27  29
BRANCH  27  37
ATOM     37  C   UNL     1     -10.643  10.437  68.086  0.00  0.00    +0.080 C 
ATOM     38  C   UNL     1     -10.702  10.320  69.718  0.00  0.00    +0.010 C 
BRANCH  37  39
ATOM     39  C   UNL     1     -10.907  12.020  68.121  0.00  0.00    +0.091 A 
ATOM     40  S   UNL     1     -11.647  13.000  66.963  0.00  0.00    -0.070 S 
ATOM     41  C   UNL     1     -12.278  14.191  68.035  0.00  0.00    +0.056 A 
ATOM     42  C   UNL     1     -11.978  13.621  69.269  0.00  0.00    +0.088 A 
ATOM     43  N   UNL     1     -11.748  12.312  69.154  0.00  0.00    -0.243 NA
BRANCH  42  44
ATOM     44  C   UNL     1     -12.038  14.260  70.595  0.00  0.00    +0.018 A 
ATOM     45  C   UNL     1     -11.644  15.577  70.796  0.00  0.00    +0.002 A 
ATOM     46  C   UNL     1     -11.858  16.171  72.036  0.00  0.00    +0.010 A 
ATOM     47  C   UNL     1     -12.502  15.444  73.026  0.00  0.00    +0.068 A 
ATOM     48  C   UNL     1     -13.202  14.281  72.721  0.00  0.00    +0.010 A 
ATOM     49  C   UNL     1     -13.061  13.841  71.439  0.00  0.00    +0.002 A 
BRANCH  47  50
ATOM     50  C   UNL     1     -12.554  15.880  74.386  0.00  0.00    +0.100 C 
ATOM     51  N   UNL     1     -12.458  16.271  75.472  0.00  0.00    -0.191 NA
ENDBRANCH  47  50
ENDBRANCH  42  44
ENDBRANCH  37  39
ENDBRANCH  27  37
ENDBRANCH   1  27
TORSDOF 15
ENDMDL
MODEL 7
REMARK VINA RESULT:      -7.3      4.479      7.745
REMARK  Name = 
REMARK  15 active torsions:
REMARK  status: ('A' for Active; 'I' for Inactive)
REMARK    1  A    between atoms: N_2  and  C_3
REMARK    2  A    between atoms: C_3  and  C_4
REMARK    3  A    between atoms: C_4  and  O_6
REMARK    4  A    between atoms: O_6  and  C_7
REMARK    5  A    between atoms: C_7  and  C_8
REMARK    6  A    between atoms: C_16  and  O_18
REMARK    7  A    between atoms: O_18  and  C_19
REMARK    8  A    between atoms: C_19  and  N_21
REMARK    9  A    between atoms: N_24  and  C_25
REMARK   10  A    between atoms: C_25  and  C_26
REMARK   11  A    between atoms: C_26  and  C_28
REMARK   12  A    between atoms: C_26  and  C_36
REMARK   13  A    between atoms: C_36  and  C_38
REMARK   14  A    between atoms: C_40  and  C_41
REMARK   15  A    between atoms: C_44  and  C_45
REMARK                            x       y       z     vdW  Elec       q    Type
REMARK                         _______ _______ _______ _____ _____    ______ ____
ROOT
ATOM      1  C   UNL     1      -9.244  14.709  69.088  0.00  0.00    +0.169 C 
ENDROOT
BRANCH   1   4
ATOM      2  N   UNL     1      -5.780  13.783  68.701  0.00  0.00    -0.091 N 
ATOM      3  C   UNL     1      -6.759  14.352  69.450  0.00  0.00    +0.402 A 
ATOM      4  N   UNL     1      -7.957  14.038  68.896  0.00  0.00    -0.181 N 
ATOM      5  N   UNL     1      -7.636  13.132  67.969  0.00  0.00    -0.092 NA
ATOM      6  C   UNL     1      -6.363  13.428  67.594  0.00  0.00    +0.423 A 
BRANCH   2   7
ATOM      7  C   UNL     1      -4.335  14.391  68.885  0.00  0.00    +0.437 C 
ATOM      8  C   UNL     1      -4.461  14.513  70.532  0.00  0.00    +0.141 C 
BRANCH   7   9
ATOM      9  O   UNL     1      -4.842  15.841  68.685  0.00  0.00    -0.375 OA
BRANCH   9  13
ATOM     10  C   UNL     1      -4.639  20.043  68.660  0.00  0.00    +0.053 A 
ATOM     11  C   UNL     1      -4.150  18.781  68.982  0.00  0.00    +0.139 A 
ATOM     12  N   UNL     1      -3.748  17.938  67.921  0.00  0.00    -0.208 N 
ATOM     13  C   UNL     1      -4.036  16.559  67.830  0.00  0.00    +0.414 C 
ATOM     14  O   UNL     1      -3.581  15.914  66.851  0.00  0.00    -0.226 OA
ATOM     15  C   UNL     1      -3.124  18.607  66.782  0.00  0.00    +0.125 C 
ATOM     16  N   UNL     1      -4.196  18.399  70.273  0.00  0.00    -0.229 NA
ATOM     17  C   UNL     1      -4.917  19.152  71.135  0.00  0.00    +0.100 A 
ATOM     18  C   UNL     1      -5.868  20.038  70.653  0.00  0.00    +0.021 A 
ATOM     19  C   UNL     1      -5.573  20.670  69.458  0.00  0.00    +0.004 A 
BRANCH  10  20
ATOM     20  C   UNL     1      -4.149  20.644  67.381  0.00  0.00    +0.238 C 
BRANCH  20  21
ATOM     21  O   UNL     1      -5.185  21.327  66.710  0.00  0.00    -0.442 OA
BRANCH  21  22
ATOM     22  C   UNL     1      -5.759  20.780  65.583  0.00  0.00    +0.335 C 
ATOM     23  O   UNL     1      -5.110  20.866  64.506  0.00  0.00    -0.248 OA
BRANCH  22  24
ATOM     24  C   UNL     1      -7.103  20.176  65.529  0.00  0.00    +0.198 C 
BRANCH  24  26
ATOM     25  C   UNL     1      -6.550  18.203  65.682  0.00  0.00    +0.108 C 
ATOM     26  N   UNL     1      -6.954  18.744  65.295  0.00  0.00    -0.205 NA
ENDBRANCH  24  26
ENDBRANCH  22  24
ENDBRANCH  21  22
ENDBRANCH  20  21
ENDBRANCH  10  20
ENDBRANCH   9  13
ENDBRANCH   7   9
ENDBRANCH   2   7
ENDBRANCH   1   4
BRANCH   1  27
ATOM     27  C   UNL     1      -9.797  15.233  67.882  0.00  0.00    +0.176 C 
ATOM     28  O   UNL     1      -9.560  14.309  66.847  0.00  0.00    -0.219 OA
BRANCH  27  29
ATOM     29  C   UNL     1      -9.460  16.557  67.387  0.00  0.00    +0.037 A 
ATOM     30  C   UNL     1     -10.131  17.038  66.267  0.00  0.00    +0.139 A 
ATOM     31  F   UNL     1     -10.016  16.217  65.183  0.00  0.00    -0.204 F 
ATOM     32  C   UNL     1     -10.457  18.386  66.148  0.00  0.00    +0.032 A 
ATOM     33  C   UNL     1     -10.352  19.227  67.250  0.00  0.00    +0.032 A 
ATOM     34  C   UNL     1      -9.405  18.854  68.196  0.00  0.00    +0.140 A 
ATOM     35  F   UNL     1      -8.582  19.771  68.785  0.00  0.00    -0.204 F 
ATOM     36  C   UNL     1      -9.080  17.530  68.307  0.00  0.00    +0.030 A 
ENDBRANCH  27  29
BRANCH  27  37
ATOM     37  C   UNL     1     -11.425  15.254  67.868  0.00  0.00    +0.080 C 
ATOM     38  C   UNL     1     -11.538  13.710  67.337  0.00  0.00    +0.010 C 
BRANCH  37  39
ATOM     39  C   UNL     1     -11.593  14.812  69.402  0.00  0.00    +0.091 A 
ATOM     40  S   UNL     1     -12.401  15.604  70.654  0.00  0.00    -0.070 S 
ATOM     41  C   UNL     1     -12.838  14.210  71.567  0.00  0.00    +0.056 A 
ATOM     42  C   UNL     1     -12.433  13.194  70.706  0.00  0.00    +0.088 A 
ATOM     43  N   UNL     1     -12.293  13.644  69.458  0.00  0.00    -0.243 NA
BRANCH  42  44
ATOM     44  C   UNL     1     -12.306  11.757  71.006  0.00  0.00    +0.018 A 
ATOM     45  C   UNL     1     -13.256  11.075  71.756  0.00  0.00    +0.002 A 
ATOM     46  C   UNL     1     -13.158   9.693  71.884  0.00  0.00    +0.010 A 
ATOM     47  C   UNL     1     -12.138   9.027  71.220  0.00  0.00    +0.068 A 
ATOM     48  C   UNL     1     -11.421   9.648  70.203  0.00  0.00    +0.010 A 
ATOM     49  C   UNL     1     -11.681  10.976  70.040  0.00  0.00    +0.002 A 
BRANCH  47  50
ATOM     50  C   UNL     1     -11.822   7.658  71.479  0.00  0.00    +0.100 C 
ATOM     51  N   UNL     1     -11.507   6.594  71.812  0.00  0.00    -0.191 NA
ENDBRANCH  47  50
ENDBRANCH  42  44
ENDBRANCH  37  39
ENDBRANCH  27  37
ENDBRANCH   1  27
TORSDOF 15
ENDMDL
MODEL 8
REMARK VINA RESULT:      -7.2      4.253      8.043
REMARK  Name = 
REMARK  15 active torsions:
REMARK  status: ('A' for Active; 'I' for Inactive)
REMARK    1  A    between atoms: N_2  and  C_3
REMARK    2  A    between atoms: C_3  and  C_4
REMARK    3  A    between atoms: C_4  and  O_6
REMARK    4  A    between atoms: O_6  and  C_7
REMARK    5  A    between atoms: C_7  and  C_8
REMARK    6  A    between atoms: C_16  and  O_18
REMARK    7  A    between atoms: O_18  and  C_19
REMARK    8  A    between atoms: C_19  and  N_21
REMARK    9  A    between atoms: N_24  and  C_25
REMARK   10  A    between atoms: C_25  and  C_26
REMARK   11  A    between atoms: C_26  and  C_28
REMARK   12  A    between atoms: C_26  and  C_36
REMARK   13  A    between atoms: C_36  and  C_38
REMARK   14  A    between atoms: C_40  and  C_41
REMARK   15  A    between atoms: C_44  and  C_45
REMARK                            x       y       z     vdW  Elec       q    Type
REMARK                         _______ _______ _______ _____ _____    ______ ____
ROOT
ATOM      1  C   UNL     1      -8.849  15.634  68.380  0.00  0.00    +0.169 C 
ENDROOT
BRANCH   1   4
ATOM      2  N   UNL     1      -5.290  16.203  68.493  0.00  0.00    -0.091 N 
ATOM      3  C   UNL     1      -6.360  15.624  67.892  0.00  0.00    +0.402 A 
ATOM      4  N   UNL     1      -7.489  16.174  68.407  0.00  0.00    -0.181 N 
ATOM      5  N   UNL     1      -7.026  17.192  69.137  0.00  0.00    -0.092 NA
ATOM      6  C   UNL     1      -5.776  16.823  69.527  0.00  0.00    +0.423 A 
BRANCH   2   7
ATOM      7  C   UNL     1      -3.931  15.407  68.390  0.00  0.00    +0.437 C 
ATOM      8  C   UNL     1      -3.944  14.935  69.978  0.00  0.00    +0.141 C 
BRANCH   7   9
ATOM      9  O   UNL     1      -3.087  16.665  68.715  0.00  0.00    -0.375 OA
BRANCH   9  13
ATOM     10  C   UNL     1      -4.780  20.437  67.939  0.00  0.00    +0.053 A 
ATOM     11  C   UNL     1      -3.742  19.605  68.347  0.00  0.00    +0.139 A 
ATOM     12  N   UNL     1      -3.154  18.759  67.379  0.00  0.00    -0.208 N 
ATOM     13  C   UNL     1      -2.808  17.407  67.590  0.00  0.00    +0.414 C 
ATOM     14  O   UNL     1      -2.250  16.778  66.654  0.00  0.00    -0.226 OA
ATOM     15  C   UNL     1      -3.052  19.313  66.030  0.00  0.00    +0.125 C 
ATOM     16  N   UNL     1      -3.439  19.574  69.659  0.00  0.00    -0.229 NA
ATOM     17  C   UNL     1      -4.297  20.162  70.524  0.00  0.00    +0.100 A 
ATOM     18  C   UNL     1      -5.598  20.437  70.132  0.00  0.00    +0.021 A 
ATOM     19  C   UNL     1      -5.778  20.812  68.813  0.00  0.00    +0.004 A 
BRANCH  10  20
ATOM     20  C   UNL     1      -4.785  20.843  66.499  0.00  0.00    +0.238 C 
BRANCH  20  21
ATOM     21  O   UNL     1      -6.098  20.872  65.983  0.00  0.00    -0.442 OA
BRANCH  21  22
ATOM     22  C   UNL     1      -6.420  20.134  64.864  0.00  0.00    +0.335 C 
ATOM     23  O   UNL     1      -6.960  19.010  65.052  0.00  0.00    -0.248 OA
BRANCH  22  24
ATOM     24  C   UNL     1      -6.111  20.525  63.477  0.00  0.00    +0.198 C 
BRANCH  24  26
ATOM     25  C   UNL     1      -4.999  19.320  62.239  0.00  0.00    +0.108 C 
ATOM     26  N   UNL     1      -5.547  19.369  62.788  0.00  0.00    -0.205 NA
ENDBRANCH  24  26
ENDBRANCH  22  24
ENDBRANCH  21  22
ENDBRANCH  20  21
ENDBRANCH  10  20
ENDBRANCH   9  13
ENDBRANCH   7   9
ENDBRANCH   2   7
ENDBRANCH   1   4
BRANCH   1  27
ATOM     27  C   UNL     1      -9.650  16.164  67.324  0.00  0.00    +0.176 C 
ATOM     28  O   UNL     1      -8.920  16.069  66.125  0.00  0.00    -0.219 OA
BRANCH  27  29
ATOM     29  C   UNL     1     -10.237  17.492  67.389  0.00  0.00    +0.037 A 
ATOM     30  C   UNL     1      -9.955  18.289  68.493  0.00  0.00    +0.139 A 
ATOM     31  F   UNL     1     -10.289  17.697  69.677  0.00  0.00    -0.204 F 
ATOM     32  C   UNL     1      -9.806  19.667  68.367  0.00  0.00    +0.032 A 
ATOM     33  C   UNL     1      -9.679  20.239  67.107  0.00  0.00    +0.032 A 
ATOM     34  C   UNL     1     -10.283  19.539  66.070  0.00  0.00    +0.140 A 
ATOM     35  F   UNL     1     -10.993  20.178  65.093  0.00  0.00    -0.204 F 
ATOM     36  C   UNL     1     -10.435  18.186  66.199  0.00  0.00    +0.030 A 
ENDBRANCH  27  29
BRANCH  27  37
ATOM     37  C   UNL     1     -10.928  15.230  66.946  0.00  0.00    +0.080 C 
ATOM     38  C   UNL     1      -9.995  13.954  66.521  0.00  0.00    +0.010 C 
BRANCH  37  39
ATOM     39  C   UNL     1     -11.145  14.665  68.433  0.00  0.00    +0.091 A 
ATOM     40  S   UNL     1     -12.061  15.314  69.693  0.00  0.00    -0.070 S 
ATOM     41  C   UNL     1     -12.458  13.834  70.478  0.00  0.00    +0.056 A 
ATOM     42  C   UNL     1     -11.951  12.909  69.570  0.00  0.00    +0.088 A 
ATOM     43  N   UNL     1     -11.776  13.458  68.367  0.00  0.00    -0.243 NA
BRANCH  42  44
ATOM     44  C   UNL     1     -11.752  11.463  69.772  0.00  0.00    +0.018 A 
ATOM     45  C   UNL     1     -10.606  10.810  69.337  0.00  0.00    +0.002 A 
ATOM     46  C   UNL     1     -10.410   9.476  69.683  0.00  0.00    +0.010 A 
ATOM     47  C   UNL     1     -11.344   8.848  70.493  0.00  0.00    +0.068 A 
ATOM     48  C   UNL     1     -12.282   9.584  71.208  0.00  0.00    +0.010 A 
ATOM     49  C   UNL     1     -12.315  10.916  70.921  0.00  0.00    +0.002 A 
BRANCH  47  50
ATOM     50  C   UNL     1     -11.348   7.434  70.703  0.00  0.00    +0.100 C 
ATOM     51  N   UNL     1     -11.218   6.305  70.922  0.00  0.00    -0.191 NA
ENDBRANCH  47  50
ENDBRANCH  42  44
ENDBRANCH  37  39
ENDBRANCH  27  37
ENDBRANCH   1  27
TORSDOF 15
ENDMDL
MODEL 9
REMARK VINA RESULT:      -7.2      3.520      9.010
REMARK  Name = 
REMARK  15 active torsions:
REMARK  status: ('A' for Active; 'I' for Inactive)
REMARK    1  A    between atoms: N_2  and  C_3
REMARK    2  A    between atoms: C_3  and  C_4
REMARK    3  A    between atoms: C_4  and  O_6
REMARK    4  A    between atoms: O_6  and  C_7
REMARK    5  A    between atoms: C_7  and  C_8
REMARK    6  A    between atoms: C_16  and  O_18
REMARK    7  A    between atoms: O_18  and  C_19
REMARK    8  A    between atoms: C_19  and  N_21
REMARK    9  A    between atoms: N_24  and  C_25
REMARK   10  A    between atoms: C_25  and  C_26
REMARK   11  A    between atoms: C_26  and  C_28
REMARK   12  A    between atoms: C_26  and  C_36
REMARK   13  A    between atoms: C_36  and  C_38
REMARK   14  A    between atoms: C_40  and  C_41
REMARK   15  A    between atoms: C_44  and  C_45
REMARK                            x       y       z     vdW  Elec       q    Type
REMARK                         _______ _______ _______ _____ _____    ______ ____
ROOT
ATOM      1  C   UNL     1      -9.059  14.856  68.360  0.00  0.00    +0.169 C 
ENDROOT
BRANCH   1   4
ATOM      2  N   UNL     1      -6.514  12.452  67.495  0.00  0.00    -0.091 N 
ATOM      3  C   UNL     1      -7.814  12.725  67.775  0.00  0.00    +0.402 A 
ATOM      4  N   UNL     1      -7.981  14.072  67.756  0.00  0.00    -0.181 N 
ATOM      5  N   UNL     1      -6.820  14.516  67.267  0.00  0.00    -0.092 NA
ATOM      6  C   UNL     1      -5.893  13.587  67.625  0.00  0.00    +0.423 A 
BRANCH   2   7
ATOM      7  C   UNL     1      -6.009  11.017  67.915  0.00  0.00    +0.437 C 
ATOM      8  C   UNL     1      -4.418  11.470  68.014  0.00  0.00    +0.141 C 
BRANCH   7   9
ATOM      9  O   UNL     1      -5.844  10.565  66.442  0.00  0.00    -0.375 OA
BRANCH   9  13
ATOM     10  C   UNL     1      -9.668   8.821  66.288  0.00  0.00    +0.053 A 
ATOM     11  C   UNL     1      -8.494   9.283  65.704  0.00  0.00    +0.139 A 
ATOM     12  N   UNL     1      -7.294   8.597  65.999  0.00  0.00    -0.208 N 
ATOM     13  C   UNL     1      -6.058   9.214  66.287  0.00  0.00    +0.414 C 
ATOM     14  O   UNL     1      -5.055   8.483  66.491  0.00  0.00    -0.226 OA
ATOM     15  C   UNL     1      -7.415   7.149  66.158  0.00  0.00    +0.125 C 
ATOM     16  N   UNL     1      -8.554  10.422  64.988  0.00  0.00    -0.229 NA
ATOM     17  C   UNL     1      -9.680  11.167  65.068  0.00  0.00    +0.100 A 
ATOM     18  C   UNL     1     -10.562  10.977  66.121  0.00  0.00    +0.021 A 
ATOM     19  C   UNL     1     -10.707   9.680  66.578  0.00  0.00    +0.004 A 
BRANCH  10  20
ATOM     20  C   UNL     1      -9.714   7.366  66.637  0.00  0.00    +0.238 C 
BRANCH  20  21
ATOM     21  O   UNL     1     -10.491   7.144  67.793  0.00  0.00    -0.442 OA
BRANCH  21  22
ATOM     22  C   UNL     1      -9.966   6.442  68.857  0.00  0.00    +0.335 C 
ATOM     23  O   UNL     1     -10.613   5.437  69.259  0.00  0.00    -0.248 OA
BRANCH  22  24
ATOM     24  C   UNL     1      -8.753   6.822  69.604  0.00  0.00    +0.198 C 
BRANCH  24  26
ATOM     25  C   UNL     1      -8.259   8.782  69.968  0.00  0.00    +0.108 C 
ATOM     26  N   UNL     1      -8.821   8.250  69.895  0.00  0.00    -0.205 NA
ENDBRANCH  24  26
ENDBRANCH  22  24
ENDBRANCH  21  22
ENDBRANCH  20  21
ENDBRANCH  10  20
ENDBRANCH   9  13
ENDBRANCH   7   9
ENDBRANCH   2   7
ENDBRANCH   1   4
BRANCH   1  27
ATOM     27  C   UNL     1      -9.754  15.680  67.425  0.00  0.00    +0.176 C 
ATOM     28  O   UNL     1      -9.710  15.056  66.165  0.00  0.00    -0.219 OA
BRANCH  27  29
ATOM     29  C   UNL     1      -9.431  17.085  67.242  0.00  0.00    +0.037 A 
ATOM     30  C   UNL     1     -10.365  17.905  66.616  0.00  0.00    +0.139 A 
ATOM     31  F   UNL     1     -10.718  17.459  65.375  0.00  0.00    -0.204 F 
ATOM     32  C   UNL     1     -10.536  19.229  67.006  0.00  0.00    +0.032 A 
ATOM     33  C   UNL     1      -9.969  19.683  68.192  0.00  0.00    +0.032 A 
ATOM     34  C   UNL     1      -8.821  19.015  68.598  0.00  0.00    +0.140 A 
ATOM     35  F   UNL     1      -7.740  19.686  69.094  0.00  0.00    -0.204 F 
ATOM     36  C   UNL     1      -8.650  17.715  68.206  0.00  0.00    +0.030 A 
ENDBRANCH  27  29
BRANCH  27  37
ATOM     37  C   UNL     1     -11.364  15.715  67.662  0.00  0.00    +0.080 C 
ATOM     38  C   UNL     1     -11.574  14.178  67.139  0.00  0.00    +0.010 C 
BRANCH  37  39
ATOM     39  C   UNL     1     -11.300  15.258  69.199  0.00  0.00    +0.091 A 
ATOM     40  S   UNL     1     -11.687  16.137  70.587  0.00  0.00    -0.070 S 
ATOM     41  C   UNL     1     -12.176  14.811  71.572  0.00  0.00    +0.056 A 
ATOM     42  C   UNL     1     -12.139  13.769  70.650  0.00  0.00    +0.088 A 
ATOM     43  N   UNL     1     -12.172  14.229  69.398  0.00  0.00    -0.243 NA
BRANCH  42  44
ATOM     44  C   UNL     1     -12.214  12.323  70.921  0.00  0.00    +0.018 A 
ATOM     45  C   UNL     1     -13.188  11.779  71.750  0.00  0.00    +0.002 A 
ATOM     46  C   UNL     1     -13.298  10.396  71.854  0.00  0.00    +0.010 A 
ATOM     47  C   UNL     1     -12.462   9.596  71.090  0.00  0.00    +0.068 A 
ATOM     48  C   UNL     1     -11.751  10.122  70.016  0.00  0.00    +0.010 A 
ATOM     49  C   UNL     1     -11.811  11.478  69.892  0.00  0.00    +0.002 A 
BRANCH  47  50
ATOM     50  C   UNL     1     -12.344   8.188  71.303  0.00  0.00    +0.100 C 
ATOM     51  N   UNL     1     -12.270   7.075  71.615  0.00  0.00    -0.191 NA
ENDBRANCH  47  50
ENDBRANCH  42  44
ENDBRANCH  37  39
ENDBRANCH  27  37
ENDBRANCH   1  27
TORSDOF 15
ENDMDL
