MODEL 1
REMARK VINA RESULT:      -7.7      0.000      0.000
REMARK  Name = 
REMARK  4 active torsions:
REMARK  status: ('A' for Active; 'I' for Inactive)
REMARK    1  A    between atoms: C_2  and  C_3
REMARK    2  A    between atoms: C_2  and  C_21
REMARK    3  A    between atoms: C_5  and  C_6
REMARK    4  A    between atoms: C_16  and  C_17
REMARK                            x       y       z     vdW  Elec       q    Type
REMARK                         _______ _______ _______ _____ _____    ______ ____
ROOT
ATOM      1  C   UNL     1     -10.407  15.289  67.690  0.00  0.00    +0.012 A 
ATOM      2  C   UNL     1     -10.877  14.758  68.858  0.00  0.00    +0.016 A 
ATOM      3  C   UNL     1     -11.159  15.578  69.916  0.00  0.00    +0.001 A 
ATOM      4  C   UNL     1     -11.985  15.059  70.907  0.00  0.00    +0.000 A 
ATOM      5  C   UNL     1     -12.307  13.706  70.954  0.00  0.00    +0.005 A 
ATOM      6  C   UNL     1     -11.970  12.906  69.881  0.00  0.00    +0.089 A 
ATOM      7  C   UNL     1     -11.379  13.467  68.769  0.00  0.00    +0.085 A 
ATOM      8  N   UNL     1     -11.656  12.923  67.557  0.00  0.00    -0.241 NA
ATOM      9  C   UNL     1     -11.534  13.687  66.445  0.00  0.00    +0.152 A 
ATOM     10  C   UNL     1     -10.641  14.755  66.479  0.00  0.00    +0.021 A 
ENDROOT
BRANCH   6  11
ATOM     11  C   UNL     1     -11.859  11.418  69.993  0.00  0.00    +0.420 C 
ATOM     12  F   UNL     1     -12.216  11.128  71.307  0.00  0.00    -0.166 F 
ATOM     13  F   UNL     1     -12.715  10.789  69.109  0.00  0.00    -0.166 F 
ATOM     14  F   UNL     1     -10.583  10.987  69.799  0.00  0.00    -0.166 F 
ENDBRANCH   6  11
BRANCH   9  15
ATOM     15  C   UNL     1     -12.419  13.518  65.252  0.00  0.00    +0.435 C 
ATOM     16  F   UNL     1     -11.805  13.977  64.104  0.00  0.00    -0.164 F 
ATOM     17  F   UNL     1     -13.559  14.254  65.436  0.00  0.00    -0.164 F 
ATOM     18  F   UNL     1     -12.758  12.209  65.062  0.00  0.00    -0.164 F 
ENDBRANCH   9  15
BRANCH   1  20
ATOM     19  O   UNL     1      -8.245  15.684  67.008  0.00  0.00    -0.217 OA
ATOM     20  C   UNL     1      -9.256  16.402  67.900  0.00  0.00    +0.190 C 
BRANCH  20  21
ATOM     21  C   UNL     1      -9.848  17.384  66.594  0.00  0.00    +0.107 C 
ATOM     22  N   UNL     1     -10.803  18.149  67.569  0.00  0.00    -0.217 NA
ATOM     23  C   UNL     1     -10.494  19.527  67.614  0.00  0.00    +0.089 C 
ATOM     24  C   UNL     1      -9.366  19.682  68.634  0.00  0.00    +0.019 C 
ATOM     25  C   UNL     1      -8.332  18.665  68.160  0.00  0.00    +0.003 C 
ATOM     26  C   UNL     1      -8.623  18.462  66.704  0.00  0.00    +0.020 C 
ENDBRANCH  20  21
ENDBRANCH   1  20
TORSDOF 4
ENDMDL
MODEL 2
REMARK VINA RESULT:      -7.6      3.170      5.246
REMARK  Name = 
REMARK  4 active torsions:
REMARK  status: ('A' for Active; 'I' for Inactive)
REMARK    1  A    between atoms: C_2  and  C_3
REMARK    2  A    between atoms: C_2  and  C_21
REMARK    3  A    between atoms: C_5  and  C_6
REMARK    4  A    between atoms: C_16  and  C_17
REMARK                            x       y       z     vdW  Elec       q    Type
REMARK                         _______ _______ _______ _____ _____    ______ ____
ROOT
ATOM      1  C   UNL     1     -11.539  14.143  67.352  0.00  0.00    +0.012 A 
ATOM      2  C   UNL     1     -12.000  13.624  68.529  0.00  0.00    +0.016 A 
ATOM      3  C   UNL     1     -11.838  12.293  68.798  0.00  0.00    +0.001 A 
ATOM      4  C   UNL     1     -11.956  11.905  70.128  0.00  0.00    +0.000 A 
ATOM      5  C   UNL     1     -12.453  12.768  71.099  0.00  0.00    +0.005 A 
ATOM      6  C   UNL     1     -12.637  14.097  70.775  0.00  0.00    +0.089 A 
ATOM      7  C   UNL     1     -12.274  14.551  69.525  0.00  0.00    +0.085 A 
ATOM      8  N   UNL     1     -11.817  15.825  69.418  0.00  0.00    -0.241 NA
ATOM      9  C   UNL     1     -11.007  16.153  68.382  0.00  0.00    +0.152 A 
ATOM     10  C   UNL     1     -11.109  15.408  67.210  0.00  0.00    +0.021 A 
ENDROOT
BRANCH   6  11
ATOM     11  C   UNL     1     -13.549  14.994  71.551  0.00  0.00    +0.420 C 
ATOM     12  F   UNL     1     -14.003  14.215  72.612  0.00  0.00    -0.166 F 
ATOM     13  F   UNL     1     -12.870  16.103  72.021  0.00  0.00    -0.166 F 
ATOM     14  F   UNL     1     -14.629  15.379  70.819  0.00  0.00    -0.166 F 
ENDBRANCH   6  11
BRANCH   9  15
ATOM     15  C   UNL     1      -9.921  17.173  68.503  0.00  0.00    +0.435 C 
ATOM     16  F   UNL     1      -9.467  17.570  67.261  0.00  0.00    -0.164 F 
ATOM     17  F   UNL     1      -8.864  16.621  69.174  0.00  0.00    -0.164 F 
ATOM     18  F   UNL     1     -10.349  18.282  69.176  0.00  0.00    -0.164 F 
ENDBRANCH   9  15
BRANCH   1  20
ATOM     19  O   UNL     1     -12.557  14.372  65.300  0.00  0.00    -0.217 OA
ATOM     20  C   UNL     1     -11.884  13.232  66.064  0.00  0.00    +0.190 C 
BRANCH  20  21
ATOM     21  C   UNL     1     -10.337  13.533  65.331  0.00  0.00    +0.107 C 
ATOM     22  N   UNL     1      -9.698  12.355  66.136  0.00  0.00    -0.217 NA
ATOM     23  C   UNL     1      -9.194  11.357  65.272  0.00  0.00    +0.089 C 
ATOM     24  C   UNL     1     -10.374  10.450  64.926  0.00  0.00    +0.019 C 
ATOM     25  C   UNL     1     -11.435  11.436  64.446  0.00  0.00    +0.003 C 
ATOM     26  C   UNL     1     -10.671  12.645  63.999  0.00  0.00    +0.020 C 
ENDBRANCH  20  21
ENDBRANCH   1  20
TORSDOF 4
ENDMDL
MODEL 3
REMARK VINA RESULT:      -7.6      3.390      6.359
REMARK  Name = 
REMARK  4 active torsions:
REMARK  status: ('A' for Active; 'I' for Inactive)
REMARK    1  A    between atoms: C_2  and  C_3
REMARK    2  A    between atoms: C_2  and  C_21
REMARK    3  A    between atoms: C_5  and  C_6
REMARK    4  A    between atoms: C_16  and  C_17
REMARK                            x       y       z     vdW  Elec       q    Type
REMARK                         _______ _______ _______ _____ _____    ______ ____
ROOT
ATOM      1  C   UNL     1     -10.409  14.815  67.770  0.00  0.00    +0.012 A 
ATOM      2  C   UNL     1     -10.218  16.056  67.232  0.00  0.00    +0.016 A 
ATOM      3  C   UNL     1     -10.544  16.292  65.925  0.00  0.00    +0.001 A 
ATOM      4  C   UNL     1     -10.706  17.621  65.550  0.00  0.00    +0.000 A 
ATOM      5  C   UNL     1     -10.319  18.666  66.382  0.00  0.00    +0.005 A 
ATOM      6  C   UNL     1      -9.961  18.381  67.684  0.00  0.00    +0.089 A 
ATOM      7  C   UNL     1     -10.048  17.085  68.148  0.00  0.00    +0.085 A 
ATOM      8  N   UNL     1     -10.363  16.897  69.455  0.00  0.00    -0.241 NA
ATOM      9  C   UNL     1     -10.938  15.730  69.836  0.00  0.00    +0.152 A 
ATOM     10  C   UNL     1     -10.692  14.597  69.065  0.00  0.00    +0.021 A 
ENDROOT
BRANCH   6  11
ATOM     11  C   UNL     1      -9.130  19.311  68.511  0.00  0.00    +0.420 C 
ATOM     12  F   UNL     1      -8.790  20.351  67.650  0.00  0.00    -0.166 F 
ATOM     13  F   UNL     1      -9.849  19.791  69.589  0.00  0.00    -0.166 F 
ATOM     14  F   UNL     1      -7.979  18.723  68.937  0.00  0.00    -0.166 F 
ENDBRANCH   6  11
BRANCH   9  15
ATOM     15  C   UNL     1     -11.933  15.650  70.949  0.00  0.00    +0.435 C 
ATOM     16  F   UNL     1     -11.728  16.653  71.875  0.00  0.00    -0.164 F 
ATOM     17  F   UNL     1     -11.785  14.452  71.593  0.00  0.00    -0.164 F 
ATOM     18  F   UNL     1     -13.213  15.753  70.484  0.00  0.00    -0.164 F 
ENDBRANCH   9  15
BRANCH   1  20
ATOM     19  O   UNL     1      -9.160  12.888  67.923  0.00  0.00    -0.217 OA
ATOM     20  C   UNL     1      -9.918  13.612  66.811  0.00  0.00    +0.190 C 
BRANCH  20  21
ATOM     21  C   UNL     1     -11.369  12.693  67.078  0.00  0.00    +0.107 C 
ATOM     22  N   UNL     1     -12.108  13.485  65.950  0.00  0.00    -0.217 NA
ATOM     23  C   UNL     1     -12.523  12.626  64.907  0.00  0.00    +0.089 C 
ATOM     24  C   UNL     1     -11.321  12.467  63.977  0.00  0.00    +0.019 C 
ATOM     25  C   UNL     1     -10.202  12.055  64.929  0.00  0.00    +0.003 C 
ATOM     26  C   UNL     1     -10.898  11.459  66.115  0.00  0.00    +0.020 C 
ENDBRANCH  20  21
ENDBRANCH   1  20
TORSDOF 4
ENDMDL
MODEL 4
REMARK VINA RESULT:      -6.9      3.753      5.439
REMARK  Name = 
REMARK  4 active torsions:
REMARK  status: ('A' for Active; 'I' for Inactive)
REMARK    1  A    between atoms: C_2  and  C_3
REMARK    2  A    between atoms: C_2  and  C_21
REMARK    3  A    between atoms: C_5  and  C_6
REMARK    4  A    between atoms: C_16  and  C_17
REMARK                            x       y       z     vdW  Elec       q    Type
REMARK                         _______ _______ _______ _____ _____    ______ ____
ROOT
ATOM      1  C   UNL     1     -11.651  12.444  67.664  0.00  0.00    +0.012 A 
ATOM      2  C   UNL     1     -11.586  11.293  68.399  0.00  0.00    +0.016 A 
ATOM      3  C   UNL     1     -10.805  10.255  67.973  0.00  0.00    +0.001 A 
ATOM      4  C   UNL     1     -10.466   9.297  68.922  0.00  0.00    +0.000 A 
ATOM      5  C   UNL     1     -11.082   9.254  70.168  0.00  0.00    +0.005 A 
ATOM      6  C   UNL     1     -11.894  10.305  70.545  0.00  0.00    +0.089 A 
ATOM      7  C   UNL     1     -12.031  11.394  69.710  0.00  0.00    +0.085 A 
ATOM      8  N   UNL     1     -12.212  12.614  70.279  0.00  0.00    -0.241 NA
ATOM      9  C   UNL     1     -11.860  13.725  69.588  0.00  0.00    +0.152 A 
ATOM     10  C   UNL     1     -11.860  13.659  68.197  0.00  0.00    +0.021 A 
ENDROOT
BRANCH   6  11
ATOM     11  C   UNL     1     -12.927  10.178  71.619  0.00  0.00    +0.420 C 
ATOM     12  F   UNL     1     -14.082   9.766  70.959  0.00  0.00    -0.166 F 
ATOM     13  F   UNL     1     -12.548   9.241  72.562  0.00  0.00    -0.166 F 
ATOM     14  F   UNL     1     -13.188  11.371  72.219  0.00  0.00    -0.166 F 
ENDBRANCH   6  11
BRANCH   9  15
ATOM     15  C   UNL     1     -11.333  14.954  70.258  0.00  0.00    +0.435 C 
ATOM     16  F   UNL     1     -12.100  16.059  69.950  0.00  0.00    -0.164 F 
ATOM     17  F   UNL     1     -10.062  15.193  69.812  0.00  0.00    -0.164 F 
ATOM     18  F   UNL     1     -11.312  14.813  71.616  0.00  0.00    -0.164 F 
ENDBRANCH   9  15
BRANCH   1  20
ATOM     19  O   UNL     1     -12.574  13.495  65.837  0.00  0.00    -0.217 OA
ATOM     20  C   UNL     1     -11.815  12.191  66.078  0.00  0.00    +0.190 C 
BRANCH  20  21
ATOM     21  C   UNL     1     -10.276  12.914  65.718  0.00  0.00    +0.107 C 
ATOM     22  N   UNL     1      -9.596  11.506  65.677  0.00  0.00    -0.217 NA
ATOM     23  C   UNL     1      -9.046  11.240  64.402  0.00  0.00    +0.089 C 
ATOM     24  C   UNL     1     -10.187  10.688  63.548  0.00  0.00    +0.019 C 
ATOM     25  C   UNL     1     -11.283  11.736  63.721  0.00  0.00    +0.003 C 
ATOM     26  C   UNL     1     -10.564  12.992  64.110  0.00  0.00    +0.020 C 
ENDBRANCH  20  21
ENDBRANCH   1  20
TORSDOF 4
ENDMDL
MODEL 5
REMARK VINA RESULT:      -6.9      3.276      4.793
REMARK  Name = 
REMARK  4 active torsions:
REMARK  status: ('A' for Active; 'I' for Inactive)
REMARK    1  A    between atoms: C_2  and  C_3
REMARK    2  A    between atoms: C_2  and  C_21
REMARK    3  A    between atoms: C_5  and  C_6
REMARK    4  A    between atoms: C_16  and  C_17
REMARK                            x       y       z     vdW  Elec       q    Type
REMARK                         _______ _______ _______ _____ _____    ______ ____
ROOT
ATOM      1  C   UNL     1     -11.357  12.747  68.892  0.00  0.00    +0.012 A 
ATOM      2  C   UNL     1     -11.115  11.478  69.339  0.00  0.00    +0.016 A 
ATOM      3  C   UNL     1      -9.931  10.863  69.040  0.00  0.00    +0.001 A 
ATOM      4  C   UNL     1      -9.576   9.772  69.825  0.00  0.00    +0.000 A 
ATOM      5  C   UNL     1     -10.479   9.181  70.703  0.00  0.00    +0.005 A 
ATOM      6  C   UNL     1     -11.679   9.816  70.950  0.00  0.00    +0.089 A 
ATOM      7  C   UNL     1     -11.934  11.042  70.371  0.00  0.00    +0.085 A 
ATOM      8  N   UNL     1     -12.690  11.929  71.067  0.00  0.00    -0.241 NA
ATOM      9  C   UNL     1     -12.561  13.253  70.810  0.00  0.00    +0.152 A 
ATOM     10  C   UNL     1     -12.125  13.635  69.544  0.00  0.00    +0.021 A 
ENDROOT
BRANCH   6  11
ATOM     11  C   UNL     1     -12.871   9.097  71.496  0.00  0.00    +0.420 C 
ATOM     12  F   UNL     1     -12.593   7.745  71.308  0.00  0.00    -0.166 F 
ATOM     13  F   UNL     1     -13.043   9.372  72.840  0.00  0.00    -0.166 F 
ATOM     14  F   UNL     1     -14.005   9.393  70.807  0.00  0.00    -0.166 F 
ENDBRANCH   6  11
BRANCH   9  15
ATOM     15  C   UNL     1     -12.721  14.296  71.869  0.00  0.00    +0.435 C 
ATOM     16  F   UNL     1     -11.505  14.858  72.206  0.00  0.00    -0.164 F 
ATOM     17  F   UNL     1     -13.235  13.713  72.995  0.00  0.00    -0.164 F 
ATOM     18  F   UNL     1     -13.556  15.298  71.463  0.00  0.00    -0.164 F 
ENDBRANCH   9  15
BRANCH   1  20
ATOM     19  O   UNL     1     -12.085  12.121  66.800  0.00  0.00    -0.217 OA
ATOM     20  C   UNL     1     -10.944  12.978  67.348  0.00  0.00    +0.190 C 
BRANCH  20  21
ATOM     21  C   UNL     1     -11.870  14.445  67.232  0.00  0.00    +0.107 C 
ATOM     22  N   UNL     1     -10.647  15.285  67.726  0.00  0.00    -0.217 NA
ATOM     23  C   UNL     1     -10.241  16.223  66.750  0.00  0.00    +0.089 C 
ATOM     24  C   UNL     1      -9.311  15.474  65.794  0.00  0.00    +0.019 C 
ATOM     25  C   UNL     1     -10.133  14.249  65.406  0.00  0.00    +0.003 C 
ATOM     26  C   UNL     1     -11.560  14.645  65.639  0.00  0.00    +0.020 C 
ENDBRANCH  20  21
ENDBRANCH   1  20
TORSDOF 4
ENDMDL
MODEL 6
REMARK VINA RESULT:      -6.9      2.386      4.008
REMARK  Name = 
REMARK  4 active torsions:
REMARK  status: ('A' for Active; 'I' for Inactive)
REMARK    1  A    between atoms: C_2  and  C_3
REMARK    2  A    between atoms: C_2  and  C_21
REMARK    3  A    between atoms: C_5  and  C_6
REMARK    4  A    between atoms: C_16  and  C_17
REMARK                            x       y       z     vdW  Elec       q    Type
REMARK                         _______ _______ _______ _____ _____    ______ ____
ROOT
ATOM      1  C   UNL     1     -10.087  16.478  67.931  0.00  0.00    +0.012 A 
ATOM      2  C   UNL     1      -9.720  15.239  67.486  0.00  0.00    +0.016 A 
ATOM      3  C   UNL     1      -8.419  14.994  67.146  0.00  0.00    +0.001 A 
ATOM      4  C   UNL     1      -8.028  13.661  67.086  0.00  0.00    +0.000 A 
ATOM      5  C   UNL     1      -8.957  12.626  67.124  0.00  0.00    +0.005 A 
ATOM      6  C   UNL     1     -10.269  12.922  67.436  0.00  0.00    +0.089 A 
ATOM      7  C   UNL     1     -10.619  14.217  67.756  0.00  0.00    +0.085 A 
ATOM      8  N   UNL     1     -11.615  14.402  68.659  0.00  0.00    -0.241 NA
ATOM      9  C   UNL     1     -11.662  15.557  69.365  0.00  0.00    +0.152 A 
ATOM     10  C   UNL     1     -11.088  16.693  68.801  0.00  0.00    +0.021 A 
ENDROOT
BRANCH   6  11
ATOM     11  C   UNL     1     -11.403  12.012  67.083  0.00  0.00    +0.420 C 
ATOM     12  F   UNL     1     -10.822  10.981  66.348  0.00  0.00    -0.166 F 
ATOM     13  F   UNL     1     -12.009  11.512  68.221  0.00  0.00    -0.166 F 
ATOM     14  F   UNL     1     -12.322  12.627  66.292  0.00  0.00    -0.166 F 
ENDBRANCH   6  11
BRANCH   9  15
ATOM     15  C   UNL     1     -12.165  15.619  70.772  0.00  0.00    +0.435 C 
ATOM     16  F   UNL     1     -11.646  16.709  71.441  0.00  0.00    -0.164 F 
ATOM     17  F   UNL     1     -11.764  14.493  71.438  0.00  0.00    -0.164 F 
ATOM     18  F   UNL     1     -13.528  15.702  70.812  0.00  0.00    -0.164 F 
ENDBRANCH   9  15
BRANCH   1  20
ATOM     19  O   UNL     1     -10.820  18.336  66.787  0.00  0.00    -0.217 OA
ATOM     20  C   UNL     1      -9.464  17.689  67.064  0.00  0.00    +0.190 C 
BRANCH  20  21
ATOM     21  C   UNL     1      -9.182  18.667  68.473  0.00  0.00    +0.107 C 
ATOM     22  N   UNL     1      -7.757  18.046  68.650  0.00  0.00    -0.217 NA
ATOM     23  C   UNL     1      -6.752  19.035  68.553  0.00  0.00    +0.089 C 
ATOM     24  C   UNL     1      -6.465  19.212  67.062  0.00  0.00    +0.019 C 
ATOM     25  C   UNL     1      -7.851  19.448  66.471  0.00  0.00    +0.003 C 
ATOM     26  C   UNL     1      -8.679  19.962  67.610  0.00  0.00    +0.020 C 
ENDBRANCH  20  21
ENDBRANCH   1  20
TORSDOF 4
ENDMDL
MODEL 7
REMARK VINA RESULT:      -6.6      4.249      5.698
REMARK  Name = 
REMARK  4 active torsions:
REMARK  status: ('A' for Active; 'I' for Inactive)
REMARK    1  A    between atoms: C_2  and  C_3
REMARK    2  A    between atoms: C_2  and  C_21
REMARK    3  A    between atoms: C_5  and  C_6
REMARK    4  A    between atoms: C_16  and  C_17
REMARK                            x       y       z     vdW  Elec       q    Type
REMARK                         _______ _______ _______ _____ _____    ______ ____
ROOT
ATOM      1  C   UNL     1     -11.273  11.546  69.126  0.00  0.00    +0.012 A 
ATOM      2  C   UNL     1     -11.228  10.362  69.807  0.00  0.00    +0.016 A 
ATOM      3  C   UNL     1     -10.087   9.609  69.793  0.00  0.00    +0.001 A 
ATOM      4  C   UNL     1      -9.959   8.649  70.790  0.00  0.00    +0.000 A 
ATOM      5  C   UNL     1     -11.028   8.298  71.607  0.00  0.00    +0.005 A 
ATOM      6  C   UNL     1     -12.176   9.063  71.564  0.00  0.00    +0.089 A 
ATOM      7  C   UNL     1     -12.220  10.183  70.761  0.00  0.00    +0.085 A 
ATOM      8  N   UNL     1     -12.964  11.238  71.181  0.00  0.00    -0.241 NA
ATOM      9  C   UNL     1     -12.662  12.481  70.733  0.00  0.00    +0.152 A 
ATOM     10  C   UNL     1     -12.022  12.596  69.501  0.00  0.00    +0.021 A 
ENDROOT
BRANCH   6  11
ATOM     11  C   UNL     1     -13.501   8.551  72.035  0.00  0.00    +0.420 C 
ATOM     12  F   UNL     1     -13.329   7.175  72.165  0.00  0.00    -0.166 F 
ATOM     13  F   UNL     1     -13.845   9.113  73.251  0.00  0.00    -0.166 F 
ATOM     14  F   UNL     1     -14.485   8.768  71.122  0.00  0.00    -0.166 F 
ENDBRANCH   6  11
BRANCH   9  15
ATOM     15  C   UNL     1     -12.850  13.705  71.571  0.00  0.00    +0.435 C 
ATOM     16  F   UNL     1     -13.285  13.379  72.840  0.00  0.00    -0.164 F 
ATOM     17  F   UNL     1     -13.807  14.495  70.995  0.00  0.00    -0.164 F 
ATOM     18  F   UNL     1     -11.690  14.417  71.685  0.00  0.00    -0.164 F 
ENDBRANCH   9  15
BRANCH   1  20
ATOM     19  O   UNL     1     -11.868  12.055  66.962  0.00  0.00    -0.217 OA
ATOM     20  C   UNL     1     -10.634  11.466  67.645  0.00  0.00    +0.190 C 
BRANCH  20  21
ATOM     21  C   UNL     1      -9.867  13.018  67.800  0.00  0.00    +0.107 C 
ATOM     22  N   UNL     1      -8.626  12.364  68.492  0.00  0.00    -0.217 NA
ATOM     23  C   UNL     1      -7.449  12.574  67.738  0.00  0.00    +0.089 C 
ATOM     24  C   UNL     1      -7.412  11.472  66.680  0.00  0.00    +0.019 C 
ATOM     25  C   UNL     1      -8.787  11.577  66.027  0.00  0.00    +0.003 C 
ATOM     26  C   UNL     1      -9.238  12.982  66.291  0.00  0.00    +0.020 C 
ENDBRANCH  20  21
ENDBRANCH   1  20
TORSDOF 4
ENDMDL
MODEL 8
REMARK VINA RESULT:      -6.6      3.508      6.212
REMARK  Name = 
REMARK  4 active torsions:
REMARK  status: ('A' for Active; 'I' for Inactive)
REMARK    1  A    between atoms: C_2  and  C_3
REMARK    2  A    between atoms: C_2  and  C_21
REMARK    3  A    between atoms: C_5  and  C_6
REMARK    4  A    between atoms: C_16  and  C_17
REMARK                            x       y       z     vdW  Elec       q    Type
REMARK                         _______ _______ _______ _____ _____    ______ ____
ROOT
ATOM      1  C   UNL     1     -10.710  12.264  67.138  0.00  0.00    +0.012 A 
ATOM      2  C   UNL     1      -9.903  13.365  67.213  0.00  0.00    +0.016 A 
ATOM      3  C   UNL     1      -8.639  13.251  67.723  0.00  0.00    +0.001 A 
ATOM      4  C   UNL     1      -7.746  14.272  67.418  0.00  0.00    +0.000 A 
ATOM      5  C   UNL     1      -8.171  15.463  66.839  0.00  0.00    +0.005 A 
ATOM      6  C   UNL     1      -9.466  15.549  66.370  0.00  0.00    +0.089 A 
ATOM      7  C   UNL     1     -10.289  14.445  66.432  0.00  0.00    +0.085 A 
ATOM      8  N   UNL     1     -11.213  14.283  65.450  0.00  0.00    -0.241 NA
ATOM      9  C   UNL     1     -11.677  13.040  65.177  0.00  0.00    +0.152 A 
ATOM     10  C   UNL     1     -11.652  12.092  66.196  0.00  0.00    +0.021 A 
ENDROOT
BRANCH   6  11
ATOM     11  C   UNL     1     -10.154  16.859  66.147  0.00  0.00    +0.420 C 
ATOM     12  F   UNL     1      -9.128  17.797  66.072  0.00  0.00    -0.166 F 
ATOM     13  F   UNL     1     -10.881  16.842  64.971  0.00  0.00    -0.166 F 
ATOM     14  F   UNL     1     -10.958  17.196  67.191  0.00  0.00    -0.166 F 
ENDBRANCH   6  11
BRANCH   9  15
ATOM     15  C   UNL     1     -12.069  12.614  63.798  0.00  0.00    +0.435 C 
ATOM     16  F   UNL     1     -11.023  11.982  63.154  0.00  0.00    -0.164 F 
ATOM     17  F   UNL     1     -12.398  13.722  63.066  0.00  0.00    -0.164 F 
ATOM     18  F   UNL     1     -13.134  11.760  63.821  0.00  0.00    -0.164 F 
ENDBRANCH   9  15
BRANCH   1  20
ATOM     19  O   UNL     1     -12.210  11.212  68.531  0.00  0.00    -0.217 OA
ATOM     20  C   UNL     1     -10.690  11.355  68.472  0.00  0.00    +0.190 C 
BRANCH  20  21
ATOM     21  C   UNL     1     -10.496   9.883  67.568  0.00  0.00    +0.107 C 
ATOM     22  N   UNL     1      -8.942  10.059  67.566  0.00  0.00    -0.217 NA
ATOM     23  C   UNL     1      -8.304   8.983  68.223  0.00  0.00    +0.089 C 
ATOM     24  C   UNL     1      -8.318   9.320  69.714  0.00  0.00    +0.019 C 
ATOM     25  C   UNL     1      -9.786   9.637  69.981  0.00  0.00    +0.003 C 
ATOM     26  C   UNL     1     -10.541   8.930  68.896  0.00  0.00    +0.020 C 
ENDBRANCH  20  21
ENDBRANCH   1  20
TORSDOF 4
ENDMDL
MODEL 9
REMARK VINA RESULT:      -6.6      4.111      5.502
REMARK  Name = 
REMARK  4 active torsions:
REMARK  status: ('A' for Active; 'I' for Inactive)
REMARK    1  A    between atoms: C_2  and  C_3
REMARK    2  A    between atoms: C_2  and  C_21
REMARK    3  A    between atoms: C_5  and  C_6
REMARK    4  A    between atoms: C_16  and  C_17
REMARK                            x       y       z     vdW  Elec       q    Type
REMARK                         _______ _______ _______ _____ _____    ______ ____
ROOT
ATOM      1  C   UNL     1     -10.325  10.470  68.263  0.00  0.00    +0.012 A 
ATOM      2  C   UNL     1     -10.929  10.293  69.475  0.00  0.00    +0.016 A 
ATOM      3  C   UNL     1     -11.961  11.109  69.850  0.00  0.00    +0.001 A 
ATOM      4  C   UNL     1     -12.779  10.652  70.877  0.00  0.00    +0.000 A 
ATOM      5  C   UNL     1     -12.432   9.550  71.651  0.00  0.00    +0.005 A 
ATOM      6  C   UNL     1     -11.361   8.773  71.259  0.00  0.00    +0.089 A 
ATOM      7  C   UNL     1     -10.697   9.069  70.087  0.00  0.00    +0.085 A 
ATOM      8  N   UNL     1     -10.170   8.038  69.376  0.00  0.00    -0.241 NA
ATOM      9  C   UNL     1      -9.969   8.188  68.044  0.00  0.00    +0.152 A 
ATOM     10  C   UNL     1      -9.769   9.475  67.553  0.00  0.00    +0.021 A 
ENDROOT
BRANCH   6  11
ATOM     11  C   UNL     1     -10.636   7.868  72.203  0.00  0.00    +0.420 C 
ATOM     12  F   UNL     1     -11.411   7.861  73.361  0.00  0.00    -0.166 F 
ATOM     13  F   UNL     1     -10.532   6.591  71.684  0.00  0.00    -0.166 F 
ATOM     14  F   UNL     1      -9.404   8.347  72.524  0.00  0.00    -0.166 F 
ENDBRANCH   6  11
BRANCH   9  15
ATOM     15  C   UNL     1     -10.102   7.053  67.080  0.00  0.00    +0.435 C 
ATOM     16  F   UNL     1      -9.440   7.321  65.899  0.00  0.00    -0.164 F 
ATOM     17  F   UNL     1     -11.426   6.875  66.783  0.00  0.00    -0.164 F 
ATOM     18  F   UNL     1      -9.600   5.894  67.598  0.00  0.00    -0.164 F 
ENDBRANCH   9  15
BRANCH   1  20
ATOM     19  O   UNL     1      -8.515  11.785  67.721  0.00  0.00    -0.217 OA
ATOM     20  C   UNL     1     -10.013  12.016  67.915  0.00  0.00    +0.190 C 
BRANCH  20  21
ATOM     21  C   UNL     1     -10.358  11.794  66.226  0.00  0.00    +0.107 C 
ATOM     22  N   UNL     1     -11.884  12.021  66.482  0.00  0.00    -0.217 NA
ATOM     23  C   UNL     1     -12.361  13.146  65.772  0.00  0.00    +0.089 C 
ATOM     24  C   UNL     1     -12.057  14.365  66.643  0.00  0.00    +0.019 C 
ATOM     25  C   UNL     1     -10.570  14.206  66.948  0.00  0.00    +0.003 C 
ATOM     26  C   UNL     1     -10.034  13.350  65.841  0.00  0.00    +0.020 C 
ENDBRANCH  20  21
ENDBRANCH   1  20
TORSDOF 4
ENDMDL
