MODEL 1
REMARK VINA RESULT:      -7.0      0.000      0.000
REMARK  22 active torsions:
REMARK  status: ('A' for Active; 'I' for Inactive)
REMARK    1  A    between atoms: C3_6  and  C41_7 
REMARK       I    between atoms: C41_7  and  N_9 
REMARK    2  A    between atoms: N_9  and  CA_10 
REMARK    3  A    between atoms: CA_10  and  C_11 
REMARK       I    between atoms: C_11  and  N_14 
REMARK    4  A    between atoms: N_14  and  CA_15 
REMARK    5  A    between atoms: CA_15  and  CB_18 
REMARK    6  A    between atoms: CA_15  and  C_16 
REMARK       I    between atoms: C_16  and  N_21 
REMARK    7  A    between atoms: N_21  and  CA_22 
REMARK    8  A    between atoms: CA_22  and  CB_25 
REMARK    9  A    between atoms: CA_22  and  C_23 
REMARK       I    between atoms: C_23  and  N5_40 
REMARK   10  A    between atoms: CB_25  and  CG_26 
REMARK   11  A    between atoms: C19_29  and  C25_33 
REMARK   12  A    between atoms: C19_29  and  C20_30 
REMARK   13  A    between atoms: C19_29  and  N5_40 
REMARK   14  A    between atoms: C20_30  and  C21_31 
REMARK   15  A    between atoms: C21_31  and  C22_32 
REMARK   16  A    between atoms: C22_32  and  O_43 
REMARK   17  A    between atoms: C25_33  and  C26_34 
REMARK   18  A    between atoms: C26_34  and  C29_38 
REMARK   19  A    between atoms: C26_34  and  C27_35 
REMARK   20  A    between atoms: C27_35  and  C28_36 
REMARK   21  A    between atoms: C_42  and  O_43 
REMARK   22  A    between atoms: C_42  and  C6_49 
ROOT
ATOM      1  CA  LEU C   4     -12.393  13.847  70.250  1.00 39.95     0.186 C 
ENDROOT
BRANCH   1   2
ATOM      2  CB  LEU C   4     -11.763  14.412  71.513  1.00 41.97     0.034 C 
BRANCH   2   3
ATOM      3  CG  LEU C   4     -12.700  15.384  72.299  1.00 45.86     0.002 C 
ATOM      4  CD1 LEU C   4     -14.203  15.191  71.919  1.00 43.70     0.000 C 
ATOM      5  CD2 LEU C   4     -12.497  15.236  73.810  1.00 43.98     0.000 C 
ENDBRANCH   2   3
ENDBRANCH   1   2
BRANCH   1   6
ATOM      6  C   LEU C   4     -11.862  14.621  69.010  1.00 38.38     0.274 C 
ATOM      7  N5  PJE C   5     -10.620  15.440  69.108  1.00 34.60    -0.238 NA
ATOM      8  O   LEU C   4     -12.453  14.564  67.980  1.00 44.55    -0.268 OA
BRANCH   7   9
ATOM      9  C19 PJE C   5     -10.129  16.171  67.920  1.00 40.54     0.107 C 
BRANCH   9  10
ATOM     10  C25 PJE C   5      -9.147  17.259  68.351  1.00 30.76     0.027 C 
BRANCH  10  11
ATOM     11  C26 PJE C   5      -9.237  18.548  67.405  1.00 34.19     0.037 C 
BRANCH  11  12
ATOM     12  C29 PJE C   5     -10.454  18.967  67.300  1.00 34.70     0.182 C 
ATOM     13  O8  PJE C   5     -10.726  19.517  66.010  1.00 31.54    -0.221 OA
ENDBRANCH  11  12
BRANCH  11  14
ATOM     14  C27 PJE C   5      -8.319  19.763  68.026  1.00 40.55     0.044 C 
BRANCH  14  15
ATOM     15  C28 PJE C   5      -7.497  20.228  67.055  1.00 39.60     0.339 C 
ATOM     16  N6  PJE C   5      -6.417  21.031  67.738  1.00 35.08     0.618 N 
ENDBRANCH  14  15
ENDBRANCH  11  14
ENDBRANCH  10  11
ENDBRANCH   9  10
BRANCH   9  17
ATOM     17  C20 PJE C   5      -9.433  15.203  66.989  1.00 36.98     0.035 C 
BRANCH  17  18
ATOM     18  C21 PJE C   5      -9.485  15.650  65.512  1.00 45.43     0.098 C 
BRANCH  18  19
ATOM     19  C22 PJE C   5     -10.926  15.780  64.947  1.00 52.38     0.272 C 
ATOM     20  O7  PJE C   5     -11.248  16.744  64.332  1.00 57.27    -0.264 OA
BRANCH  19  21
ATOM     21  O   010 C   6     -11.864  14.736  65.183  1.00 52.13    -0.297 OA
BRANCH  21  22
ATOM     22  C   010 C   6     -12.011  13.827  64.089  1.00 63.14     0.178 C 
BRANCH  22  23
ATOM     23  C6  010 C   6     -11.255  12.520  64.447  1.00 66.95     0.008 A 
ATOM     24  C5  010 C   6     -11.148  12.121  65.780  1.00 62.65    -0.002 A 
ATOM     25  C4  010 C   6     -10.470  10.946  66.097  1.00 57.63    -0.000 A 
ATOM     26  C3  010 C   6      -9.900  10.171  65.096  1.00 58.91    -0.000 A 
ATOM     27  C2  010 C   6     -10.009  10.571  63.762  1.00 70.02    -0.000 A 
ATOM     28  C1  010 C   6     -10.688  11.745  63.440  1.00 68.45    -0.002 A 
ENDBRANCH  22  23
ENDBRANCH  21  22
ENDBRANCH  19  21
ENDBRANCH  18  19
ENDBRANCH  17  18
ENDBRANCH   9  17
ENDBRANCH   7   9
ENDBRANCH   1   6
BRANCH   1  29
ATOM     29  N   LEU C   4     -12.018  12.447  70.118  1.00 37.32    -0.229 NA
ATOM     30  C   VAL C   3     -12.598  11.412  71.049  1.00 40.78     0.274 C 
ATOM     31  O   VAL C   3     -13.363  11.730  71.898  1.00 36.69    -0.268 OA
BRANCH  30  32
ATOM     32  CA  VAL C   3     -12.203   9.967  70.894  1.00 36.29     0.186 C 
BRANCH  32  33
ATOM     33  CB  VAL C   3     -12.773   9.143  72.086  1.00 37.53     0.032 C 
ATOM     34  CG2 VAL C   3     -11.724   8.107  72.602  1.00 43.10     0.003 C 
ATOM     35  CG1 VAL C   3     -14.116   8.446  71.705  1.00 40.26     0.003 C 
ENDBRANCH  32  33
BRANCH  32  36
ATOM     36  N   VAL C   3     -10.741   9.858  70.883  1.00 34.91    -0.229 NA
ATOM     37  C   ALA C   2     -10.070   9.294  69.738  1.00 41.96     0.274 C 
ATOM     38  O   ALA C   2     -10.690   8.922  68.818  1.00 41.95    -0.268 OA
BRANCH  37  39
ATOM     39  CA  ALA C   2      -8.514   9.178  69.733  1.00 42.30     0.187 C 
ATOM     40  CB  ALA C   2      -8.049   8.565  71.030  1.00 36.98     0.037 C 
BRANCH  39  41
ATOM     41  N   ALA C   2      -7.942  10.505  69.576  1.00 41.65    -0.225 NA
ATOM     42  C41 02J C   1      -7.274  10.859  68.322  1.00 47.56     0.295 C 
ATOM     43  O42 02J C   1      -7.198  10.068  67.447  1.00 47.13    -0.264 OA
BRANCH  42  44
ATOM     44  C3  02J C   1      -6.667  12.259  68.142  1.00 50.26     0.167 A 
ATOM     45  N2  02J C   1      -5.952  12.695  67.101  1.00 56.79    -0.122 NA
ATOM     46  O1  02J C   1      -5.594  13.945  67.289  1.00 63.01    -0.215 OA
ATOM     47  C5  02J C   1      -6.032  14.404  68.424  1.00 63.03     0.105 A 
ATOM     48  C6  02J C   1      -5.814  15.806  68.976  1.00 64.36     0.061 C 
ATOM     49  C4  02J C   1      -6.748  13.360  69.052  1.00 54.38     0.049 A 
ENDBRANCH  42  44
ENDBRANCH  39  41
ENDBRANCH  37  39
ENDBRANCH  32  36
ENDBRANCH  30  32
ENDBRANCH   1  29
TORSDOF 22
ENDMDL
MODEL 2
REMARK VINA RESULT:      -7.0      2.108      8.700
REMARK  22 active torsions:
REMARK  status: ('A' for Active; 'I' for Inactive)
REMARK    1  A    between atoms: C3_6  and  C41_7 
REMARK       I    between atoms: C41_7  and  N_9 
REMARK    2  A    between atoms: N_9  and  CA_10 
REMARK    3  A    between atoms: CA_10  and  C_11 
REMARK       I    between atoms: C_11  and  N_14 
REMARK    4  A    between atoms: N_14  and  CA_15 
REMARK    5  A    between atoms: CA_15  and  CB_18 
REMARK    6  A    between atoms: CA_15  and  C_16 
REMARK       I    between atoms: C_16  and  N_21 
REMARK    7  A    between atoms: N_21  and  CA_22 
REMARK    8  A    between atoms: CA_22  and  CB_25 
REMARK    9  A    between atoms: CA_22  and  C_23 
REMARK       I    between atoms: C_23  and  N5_40 
REMARK   10  A    between atoms: CB_25  and  CG_26 
REMARK   11  A    between atoms: C19_29  and  C25_33 
REMARK   12  A    between atoms: C19_29  and  C20_30 
REMARK   13  A    between atoms: C19_29  and  N5_40 
REMARK   14  A    between atoms: C20_30  and  C21_31 
REMARK   15  A    between atoms: C21_31  and  C22_32 
REMARK   16  A    between atoms: C22_32  and  O_43 
REMARK   17  A    between atoms: C25_33  and  C26_34 
REMARK   18  A    between atoms: C26_34  and  C29_38 
REMARK   19  A    between atoms: C26_34  and  C27_35 
REMARK   20  A    between atoms: C27_35  and  C28_36 
REMARK   21  A    between atoms: C_42  and  O_43 
REMARK   22  A    between atoms: C_42  and  C6_49 
ROOT
ATOM      1  CA  LEU C   4      -5.727  14.296  69.111  1.00 39.95     0.186 C 
ENDROOT
BRANCH   1   2
ATOM      2  CB  LEU C   4      -6.140  14.035  70.551  1.00 41.97     0.034 C 
BRANCH   2   3
ATOM      3  CG  LEU C   4      -4.954  13.615  71.477  1.00 45.86     0.002 C 
ATOM      4  CD1 LEU C   4      -4.450  12.169  71.169  1.00 43.70     0.000 C 
ATOM      5  CD2 LEU C   4      -3.805  14.623  71.385  1.00 43.98     0.000 C 
ENDBRANCH   2   3
ENDBRANCH   1   2
BRANCH   1   6
ATOM      6  C   LEU C   4      -6.262  13.156  68.199  1.00 38.38     0.274 C 
ATOM      7  N5  PJE C   5      -7.411  12.315  68.640  1.00 34.60    -0.238 NA
ATOM      8  O   LEU C   4      -5.748  12.951  67.147  1.00 44.55    -0.268 OA
BRANCH   7   9
ATOM      9  C19 PJE C   5      -7.907  11.233  67.761  1.00 40.54     0.107 C 
BRANCH   9  10
ATOM     10  C25 PJE C   5      -8.189   9.982  68.590  1.00 30.76     0.027 C 
BRANCH  10  11
ATOM     11  C26 PJE C   5      -9.493   9.209  68.072  1.00 34.19     0.037 C 
BRANCH  11  12
ATOM     12  C29 PJE C   5      -9.175   8.138  67.424  1.00 34.70     0.182 C 
ATOM     13  O8  PJE C   5      -9.241   8.325  66.009  1.00 31.54    -0.221 OA
ENDBRANCH  11  12
BRANCH  11  14
ATOM     14  C27 PJE C   5     -10.437   8.784  69.350  1.00 40.55     0.044 C 
BRANCH  14  15
ATOM     15  C28 PJE C   5     -10.307   9.722  70.319  1.00 39.60     0.339 C 
ATOM     16  N6  PJE C   5     -11.679  10.305  70.555  1.00 35.08     0.618 N 
ENDBRANCH  14  15
ENDBRANCH  11  14
ENDBRANCH  10  11
ENDBRANCH   9  10
BRANCH   9  17
ATOM     17  C20 PJE C   5      -9.180  11.686  67.082  1.00 36.98     0.035 C 
BRANCH  17  18
ATOM     18  C21 PJE C   5      -9.913  12.799  67.863  1.00 45.43     0.098 C 
BRANCH  18  19
ATOM     19  C22 PJE C   5     -11.455  12.612  67.920  1.00 52.38     0.272 C 
ATOM     20  O7  PJE C   5     -11.975  11.712  67.345  1.00 57.27    -0.264 OA
BRANCH  19  21
ATOM     21  O   010 C   6     -12.242  13.539  68.658  1.00 52.13    -0.297 OA
BRANCH  21  22
ATOM     22  C   010 C   6     -11.486  14.594  69.261  1.00 63.14     0.178 C 
BRANCH  22  23
ATOM     23  C6  010 C   6     -12.015  14.797  70.706  1.00 66.95     0.008 A 
ATOM     24  C5  010 C   6     -12.815  13.818  71.298  1.00 62.65    -0.002 A 
ATOM     25  C4  010 C   6     -13.286  14.003  72.596  1.00 57.63    -0.000 A 
ATOM     26  C3  010 C   6     -12.966  15.154  73.303  1.00 58.91    -0.000 A 
ATOM     27  C2  010 C   6     -12.164  16.133  72.709  1.00 70.02    -0.000 A 
ATOM     28  C1  010 C   6     -11.689  15.951  71.411  1.00 68.45    -0.002 A 
ENDBRANCH  22  23
ENDBRANCH  21  22
ENDBRANCH  19  21
ENDBRANCH  18  19
ENDBRANCH  17  18
ENDBRANCH   9  17
ENDBRANCH   7   9
ENDBRANCH   1   6
BRANCH   1  29
ATOM     29  N   LEU C   4      -6.310  15.555  68.671  1.00 37.32    -0.229 NA
ATOM     30  C   VAL C   3      -5.426  16.673  68.179  1.00 40.78     0.274 C 
ATOM     31  O   VAL C   3      -4.247  16.538  68.150  1.00 36.69    -0.268 OA
BRANCH  30  32
ATOM     32  CA  VAL C   3      -6.046  17.967  67.722  1.00 36.29     0.186 C 
BRANCH  32  33
ATOM     33  CB  VAL C   3      -5.570  19.126  68.646  1.00 37.53     0.032 C 
ATOM     34  CG2 VAL C   3      -6.761  19.708  69.473  1.00 43.10     0.003 C 
ATOM     35  CG1 VAL C   3      -4.848  20.243  67.830  1.00 40.26     0.003 C 
ENDBRANCH  32  33
BRANCH  32  36
ATOM     36  N   VAL C   3      -7.507  17.860  67.791  1.00 34.91    -0.229 NA
ATOM     37  C   ALA C   2      -8.286  17.846  66.578  1.00 41.96     0.274 C 
ATOM     38  O   ALA C   2      -7.755  17.922  65.538  1.00 41.95    -0.268 OA
BRANCH  37  39
ATOM     39  CA  ALA C   2      -9.841  17.735  66.658  1.00 42.30     0.187 C 
ATOM     40  CB  ALA C   2     -10.299  18.061  68.056  1.00 36.98     0.037 C 
BRANCH  39  41
ATOM     41  N   ALA C   2     -10.235  16.381  66.307  1.00 41.65    -0.225 NA
ATOM     42  C41 02J C   1     -10.987  16.146  65.072  1.00 47.56     0.295 C 
ATOM     43  O42 02J C   1     -11.272  17.053  64.370  1.00 47.13    -0.264 OA
BRANCH  42  44
ATOM     44  C3  02J C   1     -11.410  14.719  64.688  1.00 50.26     0.167 A 
ATOM     45  N2  02J C   1     -12.657  14.254  64.578  1.00 56.79    -0.122 NA
ATOM     46  O1  02J C   1     -12.640  12.987  64.233  1.00 63.01    -0.215 OA
ATOM     47  C5  02J C   1     -11.425  12.544  64.096  1.00 63.03     0.105 A 
ATOM     48  C6  02J C   1     -11.018  11.129  63.705  1.00 64.36     0.061 C 
ATOM     49  C4  02J C   1     -10.551  13.617  64.378  1.00 54.38     0.049 A 
ENDBRANCH  42  44
ENDBRANCH  39  41
ENDBRANCH  37  39
ENDBRANCH  32  36
ENDBRANCH  30  32
ENDBRANCH   1  29
TORSDOF 22
ENDMDL
MODEL 3
REMARK VINA RESULT:      -6.8      2.026      5.369
REMARK  22 active torsions:
REMARK  status: ('A' for Active; 'I' for Inactive)
REMARK    1  A    between atoms: C3_6  and  C41_7 
REMARK       I    between atoms: C41_7  and  N_9 
REMARK    2  A    between atoms: N_9  and  CA_10 
REMARK    3  A    between atoms: CA_10  and  C_11 
REMARK       I    between atoms: C_11  and  N_14 
REMARK    4  A    between atoms: N_14  and  CA_15 
REMARK    5  A    between atoms: CA_15  and  CB_18 
REMARK    6  A    between atoms: CA_15  and  C_16 
REMARK       I    between atoms: C_16  and  N_21 
REMARK    7  A    between atoms: N_21  and  CA_22 
REMARK    8  A    between atoms: CA_22  and  CB_25 
REMARK    9  A    between atoms: CA_22  and  C_23 
REMARK       I    between atoms: C_23  and  N5_40 
REMARK   10  A    between atoms: CB_25  and  CG_26 
REMARK   11  A    between atoms: C19_29  and  C25_33 
REMARK   12  A    between atoms: C19_29  and  C20_30 
REMARK   13  A    between atoms: C19_29  and  N5_40 
REMARK   14  A    between atoms: C20_30  and  C21_31 
REMARK   15  A    between atoms: C21_31  and  C22_32 
REMARK   16  A    between atoms: C22_32  and  O_43 
REMARK   17  A    between atoms: C25_33  and  C26_34 
REMARK   18  A    between atoms: C26_34  and  C29_38 
REMARK   19  A    between atoms: C26_34  and  C27_35 
REMARK   20  A    between atoms: C27_35  and  C28_36 
REMARK   21  A    between atoms: C_42  and  O_43 
REMARK   22  A    between atoms: C_42  and  C6_49 
ROOT
ATOM      1  CA  LEU C   4     -12.069  13.605  69.531  1.00 39.95     0.186 C 
ENDROOT
BRANCH   1   2
ATOM      2  CB  LEU C   4     -12.188  14.681  70.599  1.00 41.97     0.034 C 
BRANCH   2   3
ATOM      3  CG  LEU C   4     -13.145  14.297  71.772  1.00 45.86     0.002 C 
ATOM      4  CD1 LEU C   4     -12.598  14.767  73.157  1.00 43.70     0.000 C 
ATOM      5  CD2 LEU C   4     -14.554  14.844  71.528  1.00 43.98     0.000 C 
ENDBRANCH   2   3
ENDBRANCH   1   2
BRANCH   1   6
ATOM      6  C   LEU C   4     -11.014  14.034  68.472  1.00 38.38     0.274 C 
ATOM      7  N5  PJE C   5     -11.406  14.206  67.044  1.00 34.60    -0.238 NA
ATOM      8  O   LEU C   4      -9.887  14.218  68.801  1.00 44.55    -0.268 OA
BRANCH   7   9
ATOM      9  C19 PJE C   5     -10.391  14.612  66.049  1.00 40.54     0.107 C 
BRANCH   9  10
ATOM     10  C25 PJE C   5     -10.592  13.826  64.754  1.00 30.76     0.027 C 
BRANCH  10  11
ATOM     11  C26 PJE C   5     -11.268  12.400  65.026  1.00 34.19     0.037 C 
BRANCH  11  12
ATOM     12  C29 PJE C   5     -12.333  12.243  64.313  1.00 34.70     0.182 C 
ATOM     13  O8  PJE C   5     -12.560  13.346  63.434  1.00 31.54    -0.221 OA
ENDBRANCH  11  12
BRANCH  11  14
ATOM     14  C27 PJE C   5     -10.209  11.198  64.653  1.00 40.55     0.044 C 
BRANCH  14  15
ATOM     15  C28 PJE C   5     -10.045  10.408  65.740  1.00 39.60     0.339 C 
ATOM     16  N6  PJE C   5      -9.226  11.192  66.737  1.00 35.08     0.618 N 
ENDBRANCH  14  15
ENDBRANCH  11  14
ENDBRANCH  10  11
ENDBRANCH   9  10
BRANCH   9  17
ATOM     17  C20 PJE C   5     -10.530  16.091  65.768  1.00 36.98     0.035 C 
BRANCH  17  18
ATOM     18  C21 PJE C   5      -9.562  16.954  66.607  1.00 45.43     0.098 C 
BRANCH  18  19
ATOM     19  C22 PJE C   5     -10.275  17.874  67.636  1.00 52.38     0.272 C 
ATOM     20  O7  PJE C   5     -11.097  17.433  68.373  1.00 57.27    -0.264 OA
BRANCH  19  21
ATOM     21  O   010 C   6      -9.945  19.257  67.680  1.00 52.13    -0.297 OA
BRANCH  21  22
ATOM     22  C   010 C   6      -8.920  19.641  66.759  1.00 63.14     0.178 C 
BRANCH  22  23
ATOM     23  C6  010 C   6      -7.661  20.032  67.578  1.00 66.95     0.008 A 
ATOM     24  C5  010 C   6      -6.703  20.880  67.019  1.00 62.65    -0.002 A 
ATOM     25  C4  010 C   6      -5.576  21.230  67.759  1.00 57.63    -0.000 A 
ATOM     26  C3  010 C   6      -5.399  20.740  69.046  1.00 58.91    -0.000 A 
ATOM     27  C2  010 C   6      -6.359  19.892  69.604  1.00 70.02    -0.000 A 
ATOM     28  C1  010 C   6      -7.490  19.541  68.868  1.00 68.45    -0.002 A 
ENDBRANCH  22  23
ENDBRANCH  21  22
ENDBRANCH  19  21
ENDBRANCH  18  19
ENDBRANCH  17  18
ENDBRANCH   9  17
ENDBRANCH   7   9
ENDBRANCH   1   6
BRANCH   1  29
ATOM     29  N   LEU C   4     -11.626  12.366  70.152  1.00 37.32    -0.229 NA
ATOM     30  C   VAL C   3     -11.767  11.055  69.421  1.00 40.78     0.274 C 
ATOM     31  O   VAL C   3     -12.244  11.021  68.335  1.00 36.69    -0.268 OA
BRANCH  30  32
ATOM     32  CA  VAL C   3     -11.298   9.782  70.077  1.00 36.29     0.186 C 
BRANCH  32  33
ATOM     33  CB  VAL C   3     -11.977   9.636  71.470  1.00 37.53     0.032 C 
ATOM     34  CG2 VAL C   3     -11.398   8.411  72.249  1.00 43.10     0.003 C 
ATOM     35  CG1 VAL C   3     -13.529   9.540  71.339  1.00 40.26     0.003 C 
ENDBRANCH  32  33
BRANCH  32  36
ATOM     36  N   VAL C   3      -9.843   9.829  70.248  1.00 34.91    -0.229 NA
ATOM     37  C   ALA C   2      -9.002   8.911  69.519  1.00 41.96     0.274 C 
ATOM     38  O   ALA C   2      -9.480   8.128  68.792  1.00 41.95    -0.268 OA
BRANCH  37  39
ATOM     39  CA  ALA C   2      -7.454   8.963  69.708  1.00 42.30     0.187 C 
ATOM     40  CB  ALA C   2      -7.014   7.824  70.592  1.00 36.98     0.037 C 
BRANCH  39  41
ATOM     41  N   ALA C   2      -7.096  10.233  70.317  1.00 41.65    -0.225 NA
ATOM     42  C41 02J C   1      -6.402  11.246  69.519  1.00 47.56     0.295 C 
ATOM     43  O42 02J C   1      -6.134  11.028  68.389  1.00 47.13    -0.264 OA
BRANCH  42  44
ATOM     44  C3  02J C   1      -6.019  12.594  70.150  1.00 50.26     0.167 A 
ATOM     45  N2  02J C   1      -5.616  12.806  71.406  1.00 56.79    -0.122 NA
ATOM     46  O1  02J C   1      -5.375  14.083  71.596  1.00 63.01    -0.215 OA
ATOM     47  C5  02J C   1      -5.592  14.777  70.518  1.00 63.03     0.105 A 
ATOM     48  C6  02J C   1      -5.420  16.282  70.363  1.00 64.36     0.061 C 
ATOM     49  C4  02J C   1      -6.020  13.877  69.517  1.00 54.38     0.049 A 
ENDBRANCH  42  44
ENDBRANCH  39  41
ENDBRANCH  37  39
ENDBRANCH  32  36
ENDBRANCH  30  32
ENDBRANCH   1  29
TORSDOF 22
ENDMDL
MODEL 4
REMARK VINA RESULT:      -6.7      2.777      7.998
REMARK  22 active torsions:
REMARK  status: ('A' for Active; 'I' for Inactive)
REMARK    1  A    between atoms: C3_6  and  C41_7 
REMARK       I    between atoms: C41_7  and  N_9 
REMARK    2  A    between atoms: N_9  and  CA_10 
REMARK    3  A    between atoms: CA_10  and  C_11 
REMARK       I    between atoms: C_11  and  N_14 
REMARK    4  A    between atoms: N_14  and  CA_15 
REMARK    5  A    between atoms: CA_15  and  CB_18 
REMARK    6  A    between atoms: CA_15  and  C_16 
REMARK       I    between atoms: C_16  and  N_21 
REMARK    7  A    between atoms: N_21  and  CA_22 
REMARK    8  A    between atoms: CA_22  and  CB_25 
REMARK    9  A    between atoms: CA_22  and  C_23 
REMARK       I    between atoms: C_23  and  N5_40 
REMARK   10  A    between atoms: CB_25  and  CG_26 
REMARK   11  A    between atoms: C19_29  and  C25_33 
REMARK   12  A    between atoms: C19_29  and  C20_30 
REMARK   13  A    between atoms: C19_29  and  N5_40 
REMARK   14  A    between atoms: C20_30  and  C21_31 
REMARK   15  A    between atoms: C21_31  and  C22_32 
REMARK   16  A    between atoms: C22_32  and  O_43 
REMARK   17  A    between atoms: C25_33  and  C26_34 
REMARK   18  A    between atoms: C26_34  and  C29_38 
REMARK   19  A    between atoms: C26_34  and  C27_35 
REMARK   20  A    between atoms: C27_35  and  C28_36 
REMARK   21  A    between atoms: C_42  and  O_43 
REMARK   22  A    between atoms: C_42  and  C6_49 
ROOT
ATOM      1  CA  LEU C   4     -11.238  15.320  69.907  1.00 39.95     0.186 C 
ENDROOT
BRANCH   1   2
ATOM      2  CB  LEU C   4     -12.534  15.388  70.699  1.00 41.97     0.034 C 
BRANCH   2   3
ATOM      3  CG  LEU C   4     -12.419  14.797  72.140  1.00 45.86     0.002 C 
ATOM      4  CD1 LEU C   4     -12.350  15.912  73.232  1.00 43.70     0.000 C 
ATOM      5  CD2 LEU C   4     -13.569  13.827  72.425  1.00 43.98     0.000 C 
ENDBRANCH   2   3
ENDBRANCH   1   2
BRANCH   1   6
ATOM      6  C   LEU C   4     -11.320  14.164  68.869  1.00 38.38     0.274 C 
ATOM      7  N5  PJE C   5     -10.078  13.609  68.259  1.00 34.60    -0.238 NA
ATOM      8  O   LEU C   4     -12.380  13.726  68.555  1.00 44.55    -0.268 OA
BRANCH   7   9
ATOM      9  C19 PJE C   5     -10.173  12.511  67.273  1.00 40.54     0.107 C 
BRANCH   9  10
ATOM     10  C25 PJE C   5     -10.089  13.080  65.858  1.00 30.76     0.027 C 
BRANCH  10  11
ATOM     11  C26 PJE C   5     -11.439  12.824  65.035  1.00 34.19     0.037 C 
BRANCH  11  12
ATOM     12  C29 PJE C   5     -11.996  13.938  64.693  1.00 34.70     0.182 C 
ATOM     13  O8  PJE C   5     -13.308  14.075  65.241  1.00 31.54    -0.221 OA
ENDBRANCH  11  12
BRANCH  11  14
ATOM     14  C27 PJE C   5     -11.109  11.966  63.671  1.00 40.55     0.044 C 
BRANCH  14  15
ATOM     15  C28 PJE C   5      -9.841  11.497  63.747  1.00 39.60     0.339 C 
ATOM     16  N6  PJE C   5      -9.717  10.393  62.725  1.00 35.08     0.618 N 
ENDBRANCH  14  15
ENDBRANCH  11  14
ENDBRANCH  10  11
ENDBRANCH   9  10
BRANCH   9  17
ATOM     17  C20 PJE C   5      -9.037  11.539  67.496  1.00 36.98     0.035 C 
BRANCH  17  18
ATOM     18  C21 PJE C   5      -9.456  10.068  67.285  1.00 45.43     0.098 C 
BRANCH  18  19
ATOM     19  C22 PJE C   5      -8.619   9.054  68.113  1.00 52.38     0.272 C 
ATOM     20  O7  PJE C   5      -7.490   8.826  67.823  1.00 57.27    -0.264 OA
BRANCH  19  21
ATOM     21  O   010 C   6      -9.222   8.389  69.216  1.00 52.13    -0.297 OA
BRANCH  21  22
ATOM     22  C   010 C   6      -9.159   9.122  70.443  1.00 63.14     0.178 C 
BRANCH  22  23
ATOM     23  C6  010 C   6     -10.613   9.408  70.905  1.00 66.95     0.008 A 
ATOM     24  C5  010 C   6     -11.321  10.477  70.354  1.00 62.65    -0.002 A 
ATOM     25  C4  010 C   6     -12.627  10.728  70.770  1.00 57.63    -0.000 A 
ATOM     26  C3  010 C   6     -13.226   9.924  71.730  1.00 58.91    -0.000 A 
ATOM     27  C2  010 C   6     -12.517   8.853  72.280  1.00 70.02    -0.000 A 
ATOM     28  C1  010 C   6     -11.211   8.597  71.865  1.00 68.45    -0.002 A 
ENDBRANCH  22  23
ENDBRANCH  21  22
ENDBRANCH  19  21
ENDBRANCH  18  19
ENDBRANCH  17  18
ENDBRANCH   9  17
ENDBRANCH   7   9
ENDBRANCH   1   6
BRANCH   1  29
ATOM     29  N   LEU C   4     -11.052  16.573  69.191  1.00 37.32    -0.229 NA
ATOM     30  C   VAL C   3      -9.665  17.051  68.841  1.00 40.78     0.274 C 
ATOM     31  O   VAL C   3      -8.714  16.411  69.147  1.00 36.69    -0.268 OA
BRANCH  30  32
ATOM     32  CA  VAL C   3      -9.491  18.348  68.095  1.00 36.29     0.186 C 
BRANCH  32  33
ATOM     33  CB  VAL C   3     -10.523  18.419  66.931  1.00 37.53     0.032 C 
ATOM     34  CG2 VAL C   3     -10.335  17.222  65.944  1.00 43.10     0.003 C 
ATOM     35  CG1 VAL C   3     -10.443  19.787  66.183  1.00 40.26     0.003 C 
ENDBRANCH  32  33
BRANCH  32  36
ATOM     36  N   VAL C   3      -8.134  18.418  67.546  1.00 34.91    -0.229 NA
ATOM     37  C   ALA C   2      -7.140  19.244  68.187  1.00 41.96     0.274 C 
ATOM     38  O   ALA C   2      -7.415  19.859  69.143  1.00 41.95    -0.268 OA
BRANCH  37  39
ATOM     39  CA  ALA C   2      -5.697  19.317  67.596  1.00 42.30     0.187 C 
ATOM     40  CB  ALA C   2      -4.811  20.110  68.523  1.00 36.98     0.037 C 
BRANCH  39  41
ATOM     41  N   ALA C   2      -5.754  19.958  66.293  1.00 41.65    -0.225 NA
ATOM     42  C41 02J C   1      -5.694  19.136  65.082  1.00 47.56     0.295 C 
ATOM     43  O42 02J C   1      -5.598  17.961  65.168  1.00 47.13    -0.264 OA
BRANCH  42  44
ATOM     44  C3  02J C   1      -5.754  19.799  63.697  1.00 50.26     0.167 A 
ATOM     45  N2  02J C   1      -6.248  21.006  63.406  1.00 56.79    -0.122 NA
ATOM     46  O1  02J C   1      -6.135  21.245  62.120  1.00 63.01    -0.215 OA
ATOM     47  C5  02J C   1      -5.578  20.249  61.495  1.00 63.03     0.105 A 
ATOM     48  C6  02J C   1      -5.286  20.170  60.002  1.00 64.36     0.061 C 
ATOM     49  C4  02J C   1      -5.296  19.253  62.456  1.00 54.38     0.049 A 
ENDBRANCH  42  44
ENDBRANCH  39  41
ENDBRANCH  37  39
ENDBRANCH  32  36
ENDBRANCH  30  32
ENDBRANCH   1  29
TORSDOF 22
ENDMDL
MODEL 5
REMARK VINA RESULT:      -6.6      2.446      6.345
REMARK  22 active torsions:
REMARK  status: ('A' for Active; 'I' for Inactive)
REMARK    1  A    between atoms: C3_6  and  C41_7 
REMARK       I    between atoms: C41_7  and  N_9 
REMARK    2  A    between atoms: N_9  and  CA_10 
REMARK    3  A    between atoms: CA_10  and  C_11 
REMARK       I    between atoms: C_11  and  N_14 
REMARK    4  A    between atoms: N_14  and  CA_15 
REMARK    5  A    between atoms: CA_15  and  CB_18 
REMARK    6  A    between atoms: CA_15  and  C_16 
REMARK       I    between atoms: C_16  and  N_21 
REMARK    7  A    between atoms: N_21  and  CA_22 
REMARK    8  A    between atoms: CA_22  and  CB_25 
REMARK    9  A    between atoms: CA_22  and  C_23 
REMARK       I    between atoms: C_23  and  N5_40 
REMARK   10  A    between atoms: CB_25  and  CG_26 
REMARK   11  A    between atoms: C19_29  and  C25_33 
REMARK   12  A    between atoms: C19_29  and  C20_30 
REMARK   13  A    between atoms: C19_29  and  N5_40 
REMARK   14  A    between atoms: C20_30  and  C21_31 
REMARK   15  A    between atoms: C21_31  and  C22_32 
REMARK   16  A    between atoms: C22_32  and  O_43 
REMARK   17  A    between atoms: C25_33  and  C26_34 
REMARK   18  A    between atoms: C26_34  and  C29_38 
REMARK   19  A    between atoms: C26_34  and  C27_35 
REMARK   20  A    between atoms: C27_35  and  C28_36 
REMARK   21  A    between atoms: C_42  and  O_43 
REMARK   22  A    between atoms: C_42  and  C6_49 
ROOT
ATOM      1  CA  LEU C   4     -11.695   9.662  70.669  1.00 39.95     0.186 C 
ENDROOT
BRANCH   1   2
ATOM      2  CB  LEU C   4     -11.925   9.087  72.058  1.00 41.97     0.034 C 
BRANCH   2   3
ATOM      3  CG  LEU C   4     -12.814   7.803  72.065  1.00 45.86     0.002 C 
ATOM      4  CD1 LEU C   4     -14.271   8.092  71.580  1.00 43.70     0.000 C 
ATOM      5  CD2 LEU C   4     -12.173   6.690  71.231  1.00 43.98     0.000 C 
ENDBRANCH   2   3
ENDBRANCH   1   2
BRANCH   1   6
ATOM      6  C   LEU C   4     -12.270  11.106  70.599  1.00 38.38     0.274 C 
ATOM      7  N5  PJE C   5     -11.744  12.078  69.600  1.00 34.60    -0.238 NA
ATOM      8  O   LEU C   4     -13.129  11.437  71.351  1.00 44.55    -0.268 OA
BRANCH   7   9
ATOM      9  C19 PJE C   5     -12.301  13.448  69.547  1.00 40.54     0.107 C 
BRANCH   9  10
ATOM     10  C25 PJE C   5     -11.739  14.278  70.699  1.00 30.76     0.027 C 
BRANCH  10  11
ATOM     11  C26 PJE C   5     -12.818  15.321  71.259  1.00 34.19     0.037 C 
BRANCH  11  12
ATOM     12  C29 PJE C   5     -13.940  14.738  71.519  1.00 34.70     0.182 C 
ATOM     13  O8  PJE C   5     -15.045  15.642  71.455  1.00 31.54    -0.221 OA
ENDBRANCH  11  12
BRANCH  11  14
ATOM     14  C27 PJE C   5     -12.260  16.017  72.640  1.00 40.55     0.044 C 
BRANCH  14  15
ATOM     15  C28 PJE C   5     -12.375  15.127  73.655  1.00 39.60     0.339 C 
ATOM     16  N6  PJE C   5     -12.422  15.923  74.937  1.00 35.08     0.618 N 
ENDBRANCH  14  15
ENDBRANCH  11  14
ENDBRANCH  10  11
ENDBRANCH   9  10
BRANCH   9  17
ATOM     17  C20 PJE C   5     -11.924  14.090  68.231  1.00 36.98     0.035 C 
BRANCH  17  18
ATOM     18  C21 PJE C   5     -10.580  14.847  68.296  1.00 45.43     0.098 C 
BRANCH  18  19
ATOM     19  C22 PJE C   5     -10.671  16.326  67.828  1.00 52.38     0.272 C 
ATOM     20  O7  PJE C   5     -11.248  17.132  68.484  1.00 57.27    -0.264 OA
BRANCH  19  21
ATOM     21  O   010 C   6     -10.067  16.706  66.598  1.00 52.13    -0.297 OA
BRANCH  21  22
ATOM     22  C   010 C   6     -10.150  18.106  66.316  1.00 63.14     0.178 C 
BRANCH  22  23
ATOM     23  C6  010 C   6      -8.749  18.727  66.557  1.00 66.95     0.008 A 
ATOM     24  C5  010 C   6      -7.601  17.998  66.242  1.00 62.65    -0.002 A 
ATOM     25  C4  010 C   6      -6.345  18.560  66.457  1.00 57.63    -0.000 A 
ATOM     26  C3  010 C   6      -6.228  19.839  66.984  1.00 58.91    -0.000 A 
ATOM     27  C2  010 C   6      -7.378  20.569  67.298  1.00 70.02    -0.000 A 
ATOM     28  C1  010 C   6      -8.636  20.010  67.082  1.00 68.45    -0.002 A 
ENDBRANCH  22  23
ENDBRANCH  21  22
ENDBRANCH  19  21
ENDBRANCH  18  19
ENDBRANCH  17  18
ENDBRANCH   9  17
ENDBRANCH   7   9
ENDBRANCH   1   6
BRANCH   1  29
ATOM     29  N   LEU C   4     -10.264   9.720  70.410  1.00 37.32    -0.229 NA
ATOM     30  C   VAL C   3      -9.651   8.867  69.329  1.00 40.78     0.274 C 
ATOM     31  O   VAL C   3     -10.329   8.139  68.682  1.00 36.69    -0.268 OA
BRANCH  30  32
ATOM     32  CA  VAL C   3      -8.169   8.944  69.070  1.00 36.29     0.186 C 
BRANCH  32  33
ATOM     33  CB  VAL C   3      -7.468   9.640  70.274  1.00 37.53     0.032 C 
ATOM     34  CG2 VAL C   3      -6.508  10.771  69.784  1.00 43.10     0.003 C 
ATOM     35  CG1 VAL C   3      -6.715   8.607  71.168  1.00 40.26     0.003 C 
ENDBRANCH  32  33
BRANCH  32  36
ATOM     36  N   VAL C   3      -7.925   9.720  67.851  1.00 34.91    -0.229 NA
ATOM     37  C   ALA C   2      -7.666   9.041  66.605  1.00 41.96     0.274 C 
ATOM     38  O   ALA C   2      -7.649   7.872  66.566  1.00 41.95    -0.268 OA
BRANCH  37  39
ATOM     39  CA  ALA C   2      -7.404   9.873  65.310  1.00 42.30     0.187 C 
ATOM     40  CB  ALA C   2      -6.049  10.528  65.397  1.00 36.98     0.037 C 
BRANCH  39  41
ATOM     41  N   ALA C   2      -8.439  10.885  65.182  1.00 41.65    -0.225 NA
ATOM     42  C41 02J C   1      -9.509  10.702  64.199  1.00 47.56     0.295 C 
ATOM     43  O42 02J C   1      -9.525   9.739  63.513  1.00 47.13    -0.264 OA
BRANCH  42  44
ATOM     44  C3  02J C   1     -10.611  11.763  64.053  1.00 50.26     0.167 A 
ATOM     45  N2  02J C   1     -11.772  11.630  63.406  1.00 56.79    -0.122 NA
ATOM     46  O1  02J C   1     -12.467  12.741  63.488  1.00 63.01    -0.215 OA
ATOM     47  C5  02J C   1     -11.837  13.652  64.171  1.00 63.03     0.105 A 
ATOM     48  C6  02J C   1     -12.333  15.060  64.472  1.00 64.36     0.061 C 
ATOM     49  C4  02J C   1     -10.605  13.093  64.580  1.00 54.38     0.049 A 
ENDBRANCH  42  44
ENDBRANCH  39  41
ENDBRANCH  37  39
ENDBRANCH  32  36
ENDBRANCH  30  32
ENDBRANCH   1  29
TORSDOF 22
ENDMDL
MODEL 6
REMARK VINA RESULT:      -6.5      1.955      8.153
REMARK  22 active torsions:
REMARK  status: ('A' for Active; 'I' for Inactive)
REMARK    1  A    between atoms: C3_6  and  C41_7 
REMARK       I    between atoms: C41_7  and  N_9 
REMARK    2  A    between atoms: N_9  and  CA_10 
REMARK    3  A    between atoms: CA_10  and  C_11 
REMARK       I    between atoms: C_11  and  N_14 
REMARK    4  A    between atoms: N_14  and  CA_15 
REMARK    5  A    between atoms: CA_15  and  CB_18 
REMARK    6  A    between atoms: CA_15  and  C_16 
REMARK       I    between atoms: C_16  and  N_21 
REMARK    7  A    between atoms: N_21  and  CA_22 
REMARK    8  A    between atoms: CA_22  and  CB_25 
REMARK    9  A    between atoms: CA_22  and  C_23 
REMARK       I    between atoms: C_23  and  N5_40 
REMARK   10  A    between atoms: CB_25  and  CG_26 
REMARK   11  A    between atoms: C19_29  and  C25_33 
REMARK   12  A    between atoms: C19_29  and  C20_30 
REMARK   13  A    between atoms: C19_29  and  N5_40 
REMARK   14  A    between atoms: C20_30  and  C21_31 
REMARK   15  A    between atoms: C21_31  and  C22_32 
REMARK   16  A    between atoms: C22_32  and  O_43 
REMARK   17  A    between atoms: C25_33  and  C26_34 
REMARK   18  A    between atoms: C26_34  and  C29_38 
REMARK   19  A    between atoms: C26_34  and  C27_35 
REMARK   20  A    between atoms: C27_35  and  C28_36 
REMARK   21  A    between atoms: C_42  and  O_43 
REMARK   22  A    between atoms: C_42  and  C6_49 
ROOT
ATOM      1  CA  LEU C   4      -7.047  13.232  68.197  1.00 39.95     0.186 C 
ENDROOT
BRANCH   1   2
ATOM      2  CB  LEU C   4      -6.706  12.629  69.550  1.00 41.97     0.034 C 
BRANCH   2   3
ATOM      3  CG  LEU C   4      -5.440  11.714  69.528  1.00 45.86     0.002 C 
ATOM      4  CD1 LEU C   4      -5.742  10.305  68.924  1.00 43.70     0.000 C 
ATOM      5  CD2 LEU C   4      -4.289  12.391  68.780  1.00 43.98     0.000 C 
ENDBRANCH   2   3
ENDBRANCH   1   2
BRANCH   1   6
ATOM      6  C   LEU C   4      -8.361  12.597  67.657  1.00 38.38     0.274 C 
ATOM      7  N5  PJE C   5      -8.333  11.711  66.459  1.00 34.60    -0.238 NA
ATOM      8  O   LEU C   4      -9.393  12.826  68.200  1.00 44.55    -0.268 OA
BRANCH   7   9
ATOM      9  C19 PJE C   5      -9.591  11.117  65.958  1.00 40.54     0.107 C 
BRANCH   9  10
ATOM     10  C25 PJE C   5      -9.623  11.185  64.432  1.00 30.76     0.027 C 
BRANCH  10  11
ATOM     11  C26 PJE C   5     -10.642  12.306  63.910  1.00 34.19     0.037 C 
BRANCH  11  12
ATOM     12  C29 PJE C   5     -11.739  11.777  63.482  1.00 34.70     0.182 C 
ATOM     13  O8  PJE C   5     -12.805  12.727  63.416  1.00 31.54    -0.221 OA
ENDBRANCH  11  12
BRANCH  11  14
ATOM     14  C27 PJE C   5     -11.006  13.345  65.132  1.00 40.55     0.044 C 
BRANCH  14  15
ATOM     15  C28 PJE C   5     -10.268  14.471  64.981  1.00 39.60     0.339 C 
ATOM     16  N6  PJE C   5     -11.226  15.582  64.625  1.00 35.08     0.618 N 
ENDBRANCH  14  15
ENDBRANCH  11  14
ENDBRANCH  10  11
ENDBRANCH   9  10
BRANCH   9  17
ATOM     17  C20 PJE C   5      -9.673   9.674  66.400  1.00 36.98     0.035 C 
BRANCH  17  18
ATOM     18  C21 PJE C   5     -10.637   9.465  67.589  1.00 45.43     0.098 C 
BRANCH  18  19
ATOM     19  C22 PJE C   5      -9.932   8.991  68.890  1.00 52.38     0.272 C 
ATOM     20  O7  PJE C   5      -9.158   9.698  69.449  1.00 57.27    -0.264 OA
BRANCH  19  21
ATOM     21  O   010 C   6     -10.213   7.694  69.402  1.00 52.13    -0.297 OA
BRANCH  21  22
ATOM     22  C   010 C   6     -10.285   7.633  70.829  1.00 63.14     0.178 C 
BRANCH  22  23
ATOM     23  C6  010 C   6     -11.746   7.945  71.249  1.00 66.95     0.008 A 
ATOM     24  C5  010 C   6     -12.714   6.940  71.200  1.00 62.65    -0.002 A 
ATOM     25  C4  010 C   6     -14.024   7.224  71.580  1.00 57.63    -0.000 A 
ATOM     26  C3  010 C   6     -14.373   8.499  72.005  1.00 58.91    -0.000 A 
ATOM     27  C2  010 C   6     -13.403   9.504  72.054  1.00 70.02    -0.000 A 
ATOM     28  C1  010 C   6     -12.090   9.223  71.677  1.00 68.45    -0.002 A 
ENDBRANCH  22  23
ENDBRANCH  21  22
ENDBRANCH  19  21
ENDBRANCH  18  19
ENDBRANCH  17  18
ENDBRANCH   9  17
ENDBRANCH   7   9
ENDBRANCH   1   6
BRANCH   1  29
ATOM     29  N   LEU C   4      -7.253  14.664  68.353  1.00 37.32    -0.229 NA
ATOM     30  C   VAL C   3      -6.291  15.644  67.732  1.00 40.78     0.274 C 
ATOM     31  O   VAL C   3      -5.355  15.257  67.114  1.00 36.69    -0.268 OA
BRANCH  30  32
ATOM     32  CA  VAL C   3      -6.523  17.123  67.899  1.00 36.29     0.186 C 
BRANCH  32  33
ATOM     33  CB  VAL C   3      -5.651  17.656  69.074  1.00 37.53     0.032 C 
ATOM     34  CG2 VAL C   3      -5.624  16.636  70.257  1.00 43.10     0.003 C 
ATOM     35  CG1 VAL C   3      -6.135  19.061  69.549  1.00 40.26     0.003 C 
ENDBRANCH  32  33
BRANCH  32  36
ATOM     36  N   VAL C   3      -7.938  17.365  68.196  1.00 34.91    -0.229 NA
ATOM     37  C   ALA C   2      -8.864  17.632  67.123  1.00 41.96     0.274 C 
ATOM     38  O   ALA C   2      -8.488  17.657  66.015  1.00 41.95    -0.268 OA
BRANCH  37  39
ATOM     39  CA  ALA C   2     -10.369  17.892  67.446  1.00 42.30     0.187 C 
ATOM     40  CB  ALA C   2     -10.640  19.375  67.431  1.00 36.98     0.037 C 
BRANCH  39  41
ATOM     41  N   ALA C   2     -10.671  17.344  68.757  1.00 41.65    -0.225 NA
ATOM     42  C41 02J C   1     -11.401  16.078  68.859  1.00 47.56     0.295 C 
ATOM     43  O42 02J C   1     -11.743  15.511  67.880  1.00 47.13    -0.264 OA
BRANCH  42  44
ATOM     44  C3  02J C   1     -11.727  15.486  70.239  1.00 50.26     0.167 A 
ATOM     45  N2  02J C   1     -11.985  14.206  70.523  1.00 56.79    -0.122 NA
ATOM     46  O1  02J C   1     -12.221  14.065  71.807  1.00 63.01    -0.215 OA
ATOM     47  C5  02J C   1     -12.137  15.199  72.438  1.00 63.03     0.105 A 
ATOM     48  C6  02J C   1     -12.347  15.420  73.930  1.00 64.36     0.061 C 
ATOM     49  C4  02J C   1     -11.816  16.189  71.483  1.00 54.38     0.049 A 
ENDBRANCH  42  44
ENDBRANCH  39  41
ENDBRANCH  37  39
ENDBRANCH  32  36
ENDBRANCH  30  32
ENDBRANCH   1  29
TORSDOF 22
ENDMDL
MODEL 7
REMARK VINA RESULT:      -6.5      3.086      8.124
REMARK  22 active torsions:
REMARK  status: ('A' for Active; 'I' for Inactive)
REMARK    1  A    between atoms: C3_6  and  C41_7 
REMARK       I    between atoms: C41_7  and  N_9 
REMARK    2  A    between atoms: N_9  and  CA_10 
REMARK    3  A    between atoms: CA_10  and  C_11 
REMARK       I    between atoms: C_11  and  N_14 
REMARK    4  A    between atoms: N_14  and  CA_15 
REMARK    5  A    between atoms: CA_15  and  CB_18 
REMARK    6  A    between atoms: CA_15  and  C_16 
REMARK       I    between atoms: C_16  and  N_21 
REMARK    7  A    between atoms: N_21  and  CA_22 
REMARK    8  A    between atoms: CA_22  and  CB_25 
REMARK    9  A    between atoms: CA_22  and  C_23 
REMARK       I    between atoms: C_23  and  N5_40 
REMARK   10  A    between atoms: CB_25  and  CG_26 
REMARK   11  A    between atoms: C19_29  and  C25_33 
REMARK   12  A    between atoms: C19_29  and  C20_30 
REMARK   13  A    between atoms: C19_29  and  N5_40 
REMARK   14  A    between atoms: C20_30  and  C21_31 
REMARK   15  A    between atoms: C21_31  and  C22_32 
REMARK   16  A    between atoms: C22_32  and  O_43 
REMARK   17  A    between atoms: C25_33  and  C26_34 
REMARK   18  A    between atoms: C26_34  and  C29_38 
REMARK   19  A    between atoms: C26_34  and  C27_35 
REMARK   20  A    between atoms: C27_35  and  C28_36 
REMARK   21  A    between atoms: C_42  and  O_43 
REMARK   22  A    between atoms: C_42  and  C6_49 
ROOT
ATOM      1  CA  LEU C   4     -11.505  15.390  70.000  1.00 39.95     0.186 C 
ENDROOT
BRANCH   1   2
ATOM      2  CB  LEU C   4     -12.827  15.566  70.730  1.00 41.97     0.034 C 
BRANCH   2   3
ATOM      3  CG  LEU C   4     -12.900  14.797  72.088  1.00 45.86     0.002 C 
ATOM      4  CD1 LEU C   4     -12.737  15.750  73.315  1.00 43.70     0.000 C 
ATOM      5  CD2 LEU C   4     -14.200  13.993  72.191  1.00 43.98     0.000 C 
ENDBRANCH   2   3
ENDBRANCH   1   2
BRANCH   1   6
ATOM      6  C   LEU C   4     -11.647  14.278  68.922  1.00 38.38     0.274 C 
ATOM      7  N5  PJE C   5     -11.238  12.877  69.227  1.00 34.60    -0.238 NA
ATOM      8  O   LEU C   4     -12.076  14.548  67.847  1.00 44.55    -0.268 OA
BRANCH   7   9
ATOM      9  C19 PJE C   5     -11.378  11.831  68.190  1.00 40.54     0.107 C 
BRANCH   9  10
ATOM     10  C25 PJE C   5     -10.053  11.657  67.451  1.00 30.76     0.027 C 
BRANCH  10  11
ATOM     11  C26 PJE C   5     -10.271  11.499  65.872  1.00 34.19     0.037 C 
BRANCH  11  12
ATOM     12  C29 PJE C   5     -10.233  10.258  65.516  1.00 34.70     0.182 C 
ATOM     13  O8  PJE C   5      -9.161   9.551  66.143  1.00 31.54    -0.221 OA
ENDBRANCH  11  12
BRANCH  11  14
ATOM     14  C27 PJE C   5     -11.733  12.118  65.444  1.00 40.55     0.044 C 
BRANCH  14  15
ATOM     15  C28 PJE C   5     -11.535  13.183  64.632  1.00 39.60     0.339 C 
ATOM     16  N6  PJE C   5     -12.117  12.826  63.285  1.00 35.08     0.618 N 
ENDBRANCH  14  15
ENDBRANCH  11  14
ENDBRANCH  10  11
ENDBRANCH   9  10
BRANCH   9  17
ATOM     17  C20 PJE C   5     -11.765  10.526  68.847  1.00 36.98     0.035 C 
BRANCH  17  18
ATOM     18  C21 PJE C   5     -11.158  10.360  70.256  1.00 45.43     0.098 C 
BRANCH  18  19
ATOM     19  C22 PJE C   5     -12.205  10.026  71.355  1.00 52.38     0.272 C 
ATOM     20  O7  PJE C   5     -13.091  10.780  71.592  1.00 57.27    -0.264 OA
BRANCH  19  21
ATOM     21  O   010 C   6     -12.086   8.810  72.084  1.00 52.13    -0.297 OA
BRANCH  21  22
ATOM     22  C   010 C   6     -12.809   7.716  71.514  1.00 63.14     0.178 C 
BRANCH  22  23
ATOM     23  C6  010 C   6     -11.788   6.607  71.147  1.00 66.95     0.008 A 
ATOM     24  C5  010 C   6     -11.223   5.820  72.152  1.00 62.65    -0.002 A 
ATOM     25  C4  010 C   6     -10.309   4.823  71.817  1.00 57.63    -0.000 A 
ATOM     26  C3  010 C   6      -9.955   4.610  70.492  1.00 58.91    -0.000 A 
ATOM     27  C2  010 C   6     -10.522   5.397  69.487  1.00 70.02    -0.000 A 
ATOM     28  C1  010 C   6     -11.439   6.394  69.817  1.00 68.45    -0.002 A 
ENDBRANCH  22  23
ENDBRANCH  21  22
ENDBRANCH  19  21
ENDBRANCH  18  19
ENDBRANCH  17  18
ENDBRANCH   9  17
ENDBRANCH   7   9
ENDBRANCH   1   6
BRANCH   1  29
ATOM     29  N   LEU C   4     -11.160  16.638  69.336  1.00 37.32    -0.229 NA
ATOM     30  C   VAL C   3      -9.734  16.918  68.934  1.00 40.78     0.274 C 
ATOM     31  O   VAL C   3      -8.880  16.124  69.158  1.00 36.69    -0.268 OA
BRANCH  30  32
ATOM     32  CA  VAL C   3      -9.395  18.212  68.243  1.00 36.29     0.186 C 
BRANCH  32  33
ATOM     33  CB  VAL C   3     -10.340  18.410  67.021  1.00 37.53     0.032 C 
ATOM     34  CG2 VAL C   3     -10.195  17.232  66.005  1.00 43.10     0.003 C 
ATOM     35  CG1 VAL C   3     -10.094  19.787  66.330  1.00 40.26     0.003 C 
ENDBRANCH  32  33
BRANCH  32  36
ATOM     36  N   VAL C   3      -8.005  18.170  67.780  1.00 34.91    -0.229 NA
ATOM     37  C   ALA C   2      -7.003  18.976  68.434  1.00 41.96     0.274 C 
ATOM     38  O   ALA C   2      -7.299  19.664  69.333  1.00 41.95    -0.268 OA
BRANCH  37  39
ATOM     39  CA  ALA C   2      -5.525  18.930  67.935  1.00 42.30     0.187 C 
ATOM     40  CB  ALA C   2      -4.679  19.850  68.777  1.00 36.98     0.037 C 
BRANCH  39  41
ATOM     41  N   ALA C   2      -5.485  19.348  66.544  1.00 41.65    -0.225 NA
ATOM     42  C41 02J C   1      -5.227  18.355  65.499  1.00 47.56     0.295 C 
ATOM     43  O42 02J C   1      -5.051  17.223  65.788  1.00 47.13    -0.264 OA
BRANCH  42  44
ATOM     44  C3  02J C   1      -5.182  18.784  64.024  1.00 50.26     0.167 A 
ATOM     45  N2  02J C   1      -6.076  19.541  63.381  1.00 56.79    -0.122 NA
ATOM     46  O1  02J C   1      -5.716  19.702  62.128  1.00 63.01    -0.215 OA
ATOM     47  C5  02J C   1      -4.601  19.086  61.866  1.00 63.03     0.105 A 
ATOM     48  C6  02J C   1      -3.882  19.051  60.524  1.00 64.36     0.061 C 
ATOM     49  C4  02J C   1      -4.179  18.454  63.057  1.00 54.38     0.049 A 
ENDBRANCH  42  44
ENDBRANCH  39  41
ENDBRANCH  37  39
ENDBRANCH  32  36
ENDBRANCH  30  32
ENDBRANCH   1  29
TORSDOF 22
ENDMDL
MODEL 8
REMARK VINA RESULT:      -6.4      2.509      8.050
REMARK  22 active torsions:
REMARK  status: ('A' for Active; 'I' for Inactive)
REMARK    1  A    between atoms: C3_6  and  C41_7 
REMARK       I    between atoms: C41_7  and  N_9 
REMARK    2  A    between atoms: N_9  and  CA_10 
REMARK    3  A    between atoms: CA_10  and  C_11 
REMARK       I    between atoms: C_11  and  N_14 
REMARK    4  A    between atoms: N_14  and  CA_15 
REMARK    5  A    between atoms: CA_15  and  CB_18 
REMARK    6  A    between atoms: CA_15  and  C_16 
REMARK       I    between atoms: C_16  and  N_21 
REMARK    7  A    between atoms: N_21  and  CA_22 
REMARK    8  A    between atoms: CA_22  and  CB_25 
REMARK    9  A    between atoms: CA_22  and  C_23 
REMARK       I    between atoms: C_23  and  N5_40 
REMARK   10  A    between atoms: CB_25  and  CG_26 
REMARK   11  A    between atoms: C19_29  and  C25_33 
REMARK   12  A    between atoms: C19_29  and  C20_30 
REMARK   13  A    between atoms: C19_29  and  N5_40 
REMARK   14  A    between atoms: C20_30  and  C21_31 
REMARK   15  A    between atoms: C21_31  and  C22_32 
REMARK   16  A    between atoms: C22_32  and  O_43 
REMARK   17  A    between atoms: C25_33  and  C26_34 
REMARK   18  A    between atoms: C26_34  and  C29_38 
REMARK   19  A    between atoms: C26_34  and  C27_35 
REMARK   20  A    between atoms: C27_35  and  C28_36 
REMARK   21  A    between atoms: C_42  and  O_43 
REMARK   22  A    between atoms: C_42  and  C6_49 
ROOT
ATOM      1  CA  LEU C   4      -6.579  16.098  67.691  1.00 39.95     0.186 C 
ENDROOT
BRANCH   1   2
ATOM      2  CB  LEU C   4      -6.297  16.737  69.041  1.00 41.97     0.034 C 
BRANCH   2   3
ATOM      3  CG  LEU C   4      -5.673  18.165  68.941  1.00 45.86     0.002 C 
ATOM      4  CD1 LEU C   4      -6.725  19.288  69.213  1.00 43.70     0.000 C 
ATOM      5  CD2 LEU C   4      -4.472  18.305  69.880  1.00 43.98     0.000 C 
ENDBRANCH   2   3
ENDBRANCH   1   2
BRANCH   1   6
ATOM      6  C   LEU C   4      -6.260  14.577  67.754  1.00 38.38     0.274 C 
ATOM      7  N5  PJE C   5      -7.340  13.593  68.050  1.00 34.60    -0.238 NA
ATOM      8  O   LEU C   4      -5.148  14.198  67.573  1.00 44.55    -0.268 OA
BRANCH   7   9
ATOM      9  C19 PJE C   5      -7.020  12.150  68.108  1.00 40.54     0.107 C 
BRANCH   9  10
ATOM     10  C25 PJE C   5      -6.765  11.735  69.556  1.00 30.76     0.027 C 
BRANCH  10  11
ATOM     11  C26 PJE C   5      -5.201  11.574  69.860  1.00 34.19     0.037 C 
BRANCH  11  12
ATOM     12  C29 PJE C   5      -4.801  12.442  70.728  1.00 34.70     0.182 C 
ATOM     13  O8  PJE C   5      -5.194  12.094  72.057  1.00 31.54    -0.221 OA
ENDBRANCH  11  12
BRANCH  11  14
ATOM     14  C27 PJE C   5      -4.897  10.069  70.449  1.00 40.55     0.044 C 
BRANCH  14  15
ATOM     15  C28 PJE C   5      -5.931   9.257  70.125  1.00 39.60     0.339 C 
ATOM     16  N6  PJE C   5      -6.547   8.787  71.421  1.00 35.08     0.618 N 
ENDBRANCH  14  15
ENDBRANCH  11  14
ENDBRANCH  10  11
ENDBRANCH   9  10
BRANCH   9  17
ATOM     17  C20 PJE C   5      -8.182  11.358  67.553  1.00 36.98     0.035 C 
BRANCH  17  18
ATOM     18  C21 PJE C   5      -9.394  12.244  67.193  1.00 45.43     0.098 C 
BRANCH  18  19
ATOM     19  C22 PJE C   5     -10.745  11.714  67.749  1.00 52.38     0.272 C 
ATOM     20  O7  PJE C   5     -11.389  10.933  67.127  1.00 57.27    -0.264 OA
BRANCH  19  21
ATOM     21  O   010 C   6     -11.212  12.182  69.009  1.00 52.13    -0.297 OA
BRANCH  21  22
ATOM     22  C   010 C   6     -11.292  13.607  69.107  1.00 63.14     0.178 C 
BRANCH  22  23
ATOM     23  C6  010 C   6     -12.194  13.953  70.321  1.00 66.95     0.008 A 
ATOM     24  C5  010 C   6     -12.705  12.930  71.123  1.00 62.65    -0.002 A 
ATOM     25  C4  010 C   6     -13.513  13.246  72.213  1.00 57.63    -0.000 A 
ATOM     26  C3  010 C   6     -13.815  14.570  72.506  1.00 58.91    -0.000 A 
ATOM     27  C2  010 C   6     -13.301  15.592  71.703  1.00 70.02    -0.000 A 
ATOM     28  C1  010 C   6     -12.491  15.281  70.613  1.00 68.45    -0.002 A 
ENDBRANCH  22  23
ENDBRANCH  21  22
ENDBRANCH  19  21
ENDBRANCH  18  19
ENDBRANCH  17  18
ENDBRANCH   9  17
ENDBRANCH   7   9
ENDBRANCH   1   6
BRANCH   1  29
ATOM     29  N   LEU C   4      -7.990  16.263  67.373  1.00 37.32    -0.229 NA
ATOM     30  C   VAL C   3      -8.424  17.260  66.329  1.00 40.78     0.274 C 
ATOM     31  O   VAL C   3      -7.620  17.921  65.758  1.00 36.69    -0.268 OA
BRANCH  30  32
ATOM     32  CA  VAL C   3      -9.888  17.413  66.009  1.00 36.29     0.186 C 
BRANCH  32  33
ATOM     33  CB  VAL C   3     -10.598  18.159  67.176  1.00 37.53     0.032 C 
ATOM     34  CG2 VAL C   3      -9.992  19.584  67.381  1.00 43.10     0.003 C 
ATOM     35  CG1 VAL C   3     -10.547  17.327  68.496  1.00 40.26     0.003 C 
ENDBRANCH  32  33
BRANCH  32  36
ATOM     36  N   VAL C   3     -10.493  16.089  65.838  1.00 34.91    -0.229 NA
ATOM     37  C   ALA C   2     -11.346  15.827  64.705  1.00 41.96     0.274 C 
ATOM     38  O   ALA C   2     -11.557  16.671  63.922  1.00 41.95    -0.268 OA
BRANCH  37  39
ATOM     39  CA  ALA C   2     -11.989  14.416  64.531  1.00 42.30     0.187 C 
ATOM     40  CB  ALA C   2     -12.812  14.082  65.749  1.00 36.98     0.037 C 
BRANCH  39  41
ATOM     41  N   ALA C   2     -10.932  13.434  64.360  1.00 41.65    -0.225 NA
ATOM     42  C41 02J C   1     -11.207  12.199  63.621  1.00 47.56     0.295 C 
ATOM     43  O42 02J C   1     -12.282  12.004  63.172  1.00 47.13    -0.264 OA
BRANCH  42  44
ATOM     44  C3  02J C   1     -10.098  11.152  63.432  1.00 50.26     0.167 A 
ATOM     45  N2  02J C   1      -9.225  11.082  62.423  1.00 56.79    -0.122 NA
ATOM     46  O1  02J C   1      -8.422  10.057  62.588  1.00 63.01    -0.215 OA
ATOM     47  C5  02J C   1      -8.697   9.402  63.678  1.00 63.03     0.105 A 
ATOM     48  C6  02J C   1      -7.979   8.163  64.194  1.00 64.36     0.061 C 
ATOM     49  C4  02J C   1      -9.788  10.054  64.295  1.00 54.38     0.049 A 
ENDBRANCH  42  44
ENDBRANCH  39  41
ENDBRANCH  37  39
ENDBRANCH  32  36
ENDBRANCH  30  32
ENDBRANCH   1  29
TORSDOF 22
ENDMDL
MODEL 9
REMARK VINA RESULT:      -6.4      2.111      8.366
REMARK  22 active torsions:
REMARK  status: ('A' for Active; 'I' for Inactive)
REMARK    1  A    between atoms: C3_6  and  C41_7 
REMARK       I    between atoms: C41_7  and  N_9 
REMARK    2  A    between atoms: N_9  and  CA_10 
REMARK    3  A    between atoms: CA_10  and  C_11 
REMARK       I    between atoms: C_11  and  N_14 
REMARK    4  A    between atoms: N_14  and  CA_15 
REMARK    5  A    between atoms: CA_15  and  CB_18 
REMARK    6  A    between atoms: CA_15  and  C_16 
REMARK       I    between atoms: C_16  and  N_21 
REMARK    7  A    between atoms: N_21  and  CA_22 
REMARK    8  A    between atoms: CA_22  and  CB_25 
REMARK    9  A    between atoms: CA_22  and  C_23 
REMARK       I    between atoms: C_23  and  N5_40 
REMARK   10  A    between atoms: CB_25  and  CG_26 
REMARK   11  A    between atoms: C19_29  and  C25_33 
REMARK   12  A    between atoms: C19_29  and  C20_30 
REMARK   13  A    between atoms: C19_29  and  N5_40 
REMARK   14  A    between atoms: C20_30  and  C21_31 
REMARK   15  A    between atoms: C21_31  and  C22_32 
REMARK   16  A    between atoms: C22_32  and  O_43 
REMARK   17  A    between atoms: C25_33  and  C26_34 
REMARK   18  A    between atoms: C26_34  and  C29_38 
REMARK   19  A    between atoms: C26_34  and  C27_35 
REMARK   20  A    between atoms: C27_35  and  C28_36 
REMARK   21  A    between atoms: C_42  and  O_43 
REMARK   22  A    between atoms: C_42  and  C6_49 
ROOT
ATOM      1  CA  LEU C   4      -6.529  13.656  68.669  1.00 39.95     0.186 C 
ENDROOT
BRANCH   1   2
ATOM      2  CB  LEU C   4      -6.051  13.040  69.974  1.00 41.97     0.034 C 
BRANCH   2   3
ATOM      3  CG  LEU C   4      -4.510  13.164  70.198  1.00 45.86     0.002 C 
ATOM      4  CD1 LEU C   4      -3.732  13.348  68.856  1.00 43.70     0.000 C 
ATOM      5  CD2 LEU C   4      -4.189  14.299  71.173  1.00 43.98     0.000 C 
ENDBRANCH   2   3
ENDBRANCH   1   2
BRANCH   1   6
ATOM      6  C   LEU C   4      -7.837  12.954  68.207  1.00 38.38     0.274 C 
ATOM      7  N5  PJE C   5      -7.776  11.681  67.432  1.00 34.60    -0.238 NA
ATOM      8  O   LEU C   4      -8.892  13.437  68.466  1.00 44.55    -0.268 OA
BRANCH   7   9
ATOM      9  C19 PJE C   5      -9.029  11.026  66.999  1.00 40.54     0.107 C 
BRANCH   9  10
ATOM     10  C25 PJE C   5      -9.094  10.993  65.473  1.00 30.76     0.027 C 
BRANCH  10  11
ATOM     11  C26 PJE C   5     -10.578  11.272  64.937  1.00 34.19     0.037 C 
BRANCH  11  12
ATOM     12  C29 PJE C   5     -11.021  12.409  65.358  1.00 34.70     0.182 C 
ATOM     13  O8  PJE C   5     -12.445  12.421  65.477  1.00 31.54    -0.221 OA
ENDBRANCH  11  12
BRANCH  11  14
ATOM     14  C27 PJE C   5     -10.585  11.286  63.293  1.00 40.55     0.044 C 
BRANCH  14  15
ATOM     15  C28 PJE C   5      -9.328  11.048  62.848  1.00 39.60     0.339 C 
ATOM     16  N6  PJE C   5      -9.382   9.784  62.025  1.00 35.08     0.618 N 
ENDBRANCH  14  15
ENDBRANCH  11  14
ENDBRANCH  10  11
ENDBRANCH   9  10
BRANCH   9  17
ATOM     17  C20 PJE C   5      -9.066   9.614  67.536  1.00 36.98     0.035 C 
BRANCH  17  18
ATOM     18  C21 PJE C   5     -10.482   9.174  67.969  1.00 45.43     0.098 C 
BRANCH  18  19
ATOM     19  C22 PJE C   5     -11.231  10.230  68.828  1.00 52.38     0.272 C 
ATOM     20  O7  PJE C   5     -12.079  10.909  68.345  1.00 57.27    -0.264 OA
BRANCH  19  21
ATOM     21  O   010 C   6     -10.884  10.387  70.198  1.00 52.13    -0.297 OA
BRANCH  21  22
ATOM     22  C   010 C   6     -12.003  10.608  71.061  1.00 63.14     0.178 C 
BRANCH  22  23
ATOM     23  C6  010 C   6     -12.684   9.238  71.322  1.00 66.95     0.008 A 
ATOM     24  C5  010 C   6     -14.068   9.170  71.496  1.00 62.65    -0.002 A 
ATOM     25  C4  010 C   6     -14.675   7.938  71.728  1.00 57.63    -0.000 A 
ATOM     26  C3  010 C   6     -13.913   6.779  71.790  1.00 58.91    -0.000 A 
ATOM     27  C2  010 C   6     -12.528   6.848  71.615  1.00 70.02    -0.000 A 
ATOM     28  C1  010 C   6     -11.917   8.079  71.380  1.00 68.45    -0.002 A 
ENDBRANCH  22  23
ENDBRANCH  21  22
ENDBRANCH  19  21
ENDBRANCH  18  19
ENDBRANCH  17  18
ENDBRANCH   9  17
ENDBRANCH   7   9
ENDBRANCH   1   6
BRANCH   1  29
ATOM     29  N   LEU C   4      -6.812  15.067  68.885  1.00 37.32    -0.229 NA
ATOM     30  C   VAL C   3      -6.289  16.105  67.924  1.00 40.78     0.274 C 
ATOM     31  O   VAL C   3      -5.640  15.781  66.985  1.00 36.69    -0.268 OA
BRANCH  30  32
ATOM     32  CA  VAL C   3      -6.597  17.561  68.161  1.00 36.29     0.186 C 
BRANCH  32  33
ATOM     33  CB  VAL C   3      -5.914  18.028  69.480  1.00 37.53     0.032 C 
ATOM     34  CG2 VAL C   3      -6.204  19.538  69.755  1.00 43.10     0.003 C 
ATOM     35  CG1 VAL C   3      -4.380  17.740  69.458  1.00 40.26     0.003 C 
ENDBRANCH  32  33
BRANCH  32  36
ATOM     36  N   VAL C   3      -8.047  17.742  68.274  1.00 34.91    -0.229 NA
ATOM     37  C   ALA C   2      -8.858  17.825  67.083  1.00 41.96     0.274 C 
ATOM     38  O   ALA C   2      -8.359  17.749  66.027  1.00 41.95    -0.268 OA
BRANCH  37  39
ATOM     39  CA  ALA C   2     -10.400  18.021  67.210  1.00 42.30     0.187 C 
ATOM     40  CB  ALA C   2     -10.729  19.491  67.158  1.00 36.98     0.037 C 
BRANCH  39  41
ATOM     41  N   ALA C   2     -10.845  17.455  68.473  1.00 41.65    -0.225 NA
ATOM     42  C41 02J C   1     -11.321  16.071  68.515  1.00 47.56     0.295 C 
ATOM     43  O42 02J C   1     -11.344  15.421  67.528  1.00 47.13    -0.264 OA
BRANCH  42  44
ATOM     44  C3  02J C   1     -11.793  15.459  69.844  1.00 50.26     0.167 A 
ATOM     45  N2  02J C   1     -12.344  14.255  70.022  1.00 56.79    -0.122 NA
ATOM     46  O1  02J C   1     -12.624  14.068  71.291  1.00 63.01    -0.215 OA
ATOM     47  C5  02J C   1     -12.289  15.097  72.013  1.00 63.03     0.105 A 
ATOM     48  C6  02J C   1     -12.463  15.238  73.519  1.00 64.36     0.061 C 
ATOM     49  C4  02J C   1     -11.735  16.060  71.141  1.00 54.38     0.049 A 
ENDBRANCH  42  44
ENDBRANCH  39  41
ENDBRANCH  37  39
ENDBRANCH  32  36
ENDBRANCH  30  32
ENDBRANCH   1  29
TORSDOF 22
ENDMDL
