MODEL 1
REMARK VINA RESULT:      -5.8      0.000      0.000
REMARK  Name = 
REMARK  8 active torsions:
REMARK  status: ('A' for Active; 'I' for Inactive)
REMARK    1  A    between atoms: C_2  and  C_3
REMARK    2  A    between atoms: C_2  and  N_11
REMARK    3  A    between atoms: C_3  and  O_4
REMARK    4  A    between atoms: O_4  and  C_5
REMARK    5  A    between atoms: N_11  and  C_12
REMARK    6  A    between atoms: N_11  and  C_15
REMARK    7  A    between atoms: C_12  and  C_13
REMARK    8  A    between atoms: C_15  and  C_16
REMARK                            x       y       z     vdW  Elec       q    Type
REMARK                         _______ _______ _______ _____ _____    ______ ____
ROOT
ATOM      1  N   UNL     1     -10.448  14.995  67.033  0.00  0.00    -0.266 NA
ENDROOT
BRANCH   1   3
ATOM      2  C   UNL     1     -11.424  12.927  66.263  0.00  0.00    +0.021 C 
ATOM      3  C   UNL     1     -11.923  14.411  66.851  0.00  0.00    +0.102 C 
BRANCH   3   4
ATOM      4  C   UNL     1     -11.925  13.823  68.415  0.00  0.00    +0.221 C 
BRANCH   4   5
ATOM      5  O   UNL     1     -12.056  14.968  69.217  0.00  0.00    -0.474 OA
BRANCH   5   6
ATOM      6  C   UNL     1     -12.050  14.816  70.595  0.00  0.00    +0.139 A 
ATOM      7  C   UNL     1     -11.633  15.849  71.421  0.00  0.00    +0.037 A 
ATOM      8  C   UNL     1     -12.214  16.020  72.655  0.00  0.00    +0.003 A 
ATOM      9  C   UNL     1     -13.192  15.156  73.134  0.00  0.00    +0.000 A 
ATOM     10  C   UNL     1     -13.339  13.970  72.425  0.00  0.00    +0.003 A 
ATOM     11  C   UNL     1     -12.683  13.759  71.239  0.00  0.00    +0.037 A 
ENDBRANCH   5   6
ENDBRANCH   4   5
ENDBRANCH   3   4
ENDBRANCH   1   3
BRANCH   1  12
ATOM     12  C   UNL     1     -10.497  16.084  66.056  0.00  0.00    +0.099 C 
BRANCH  12  13
ATOM     13  C   UNL     1     -10.176  17.396  66.698  0.00  0.00    -0.006 A 
ATOM     14  C   UNL     1     -10.469  18.535  65.955  0.00  0.00    -0.003 A 
ATOM     15  C   UNL     1     -10.320  19.791  66.471  0.00  0.00    -0.000 A 
ATOM     16  C   UNL     1      -9.976  19.922  67.809  0.00  0.00    -0.000 A 
ATOM     17  C   UNL     1      -9.951  18.804  68.621  0.00  0.00    -0.000 A 
ATOM     18  C   UNL     1     -10.100  17.538  68.076  0.00  0.00    -0.003 A 
ENDBRANCH  12  13
ENDBRANCH   1  12
BRANCH   1  19
ATOM     19  C   UNL     1      -9.513  14.001  66.757  0.00  0.00    +0.090 C 
BRANCH  19  20
ATOM     20  C   UNL     1      -8.171  14.101  67.392  0.00  0.00    +0.112 C 
ATOM     21 CL   UNL     1      -8.416  14.752  69.039  0.00  0.00    -0.112 Cl
ENDBRANCH  19  20
ENDBRANCH   1  19
TORSDOF 8
ENDMDL
MODEL 2
REMARK VINA RESULT:      -5.8      1.887      6.022
REMARK  Name = 
REMARK  8 active torsions:
REMARK  status: ('A' for Active; 'I' for Inactive)
REMARK    1  A    between atoms: C_2  and  C_3
REMARK    2  A    between atoms: C_2  and  N_11
REMARK    3  A    between atoms: C_3  and  O_4
REMARK    4  A    between atoms: O_4  and  C_5
REMARK    5  A    between atoms: N_11  and  C_12
REMARK    6  A    between atoms: N_11  and  C_15
REMARK    7  A    between atoms: C_12  and  C_13
REMARK    8  A    between atoms: C_15  and  C_16
REMARK                            x       y       z     vdW  Elec       q    Type
REMARK                         _______ _______ _______ _____ _____    ______ ____
ROOT
ATOM      1  N   UNL     1     -10.586  15.306  68.823  0.00  0.00    -0.266 NA
ENDROOT
BRANCH   1   3
ATOM      2  C   UNL     1      -9.389  14.617  66.844  0.00  0.00    +0.021 C 
ATOM      3  C   UNL     1     -10.970  14.770  67.368  0.00  0.00    +0.102 C 
BRANCH   3   4
ATOM      4  C   UNL     1     -10.974  13.190  67.909  0.00  0.00    +0.221 C 
BRANCH   4   5
ATOM      5  O   UNL     1     -12.026  12.583  67.204  0.00  0.00    -0.474 OA
BRANCH   5   6
ATOM      6  C   UNL     1     -11.767  12.060  65.947  0.00  0.00    +0.139 A 
ATOM      7  C   UNL     1     -12.450  12.521  64.831  0.00  0.00    +0.037 A 
ATOM      8  C   UNL     1     -11.819  12.573  63.611  0.00  0.00    +0.003 A 
ATOM      9  C   UNL     1     -10.511  12.134  63.440  0.00  0.00    +0.000 A 
ATOM     10  C   UNL     1      -9.989  11.389  64.492  0.00  0.00    +0.003 A 
ATOM     11  C   UNL     1     -10.665  11.257  65.678  0.00  0.00    +0.037 A 
ENDBRANCH   5   6
ENDBRANCH   4   5
ENDBRANCH   3   4
ENDBRANCH   1   3
BRANCH   1  12
ATOM     12  C   UNL     1     -11.911  15.729  69.281  0.00  0.00    +0.099 C 
BRANCH  12  13
ATOM     13  C   UNL     1     -12.164  15.273  70.684  0.00  0.00    -0.006 A 
ATOM     14  C   UNL     1     -11.882  16.190  71.691  0.00  0.00    -0.003 A 
ATOM     15  C   UNL     1     -12.169  15.932  73.002  0.00  0.00    -0.000 A 
ATOM     16  C   UNL     1     -12.861  14.771  73.313  0.00  0.00    -0.000 A 
ATOM     17  C   UNL     1     -13.383  13.993  72.298  0.00  0.00    -0.000 A 
ATOM     18  C   UNL     1     -13.076  14.269  70.974  0.00  0.00    -0.003 A 
ENDBRANCH  12  13
ENDBRANCH   1  12
BRANCH   1  19
ATOM     19  C   UNL     1      -9.650  16.330  68.713  0.00  0.00    +0.090 C 
BRANCH  19  20
ATOM     20  C   UNL     1     -10.139  17.734  68.716  0.00  0.00    +0.112 C 
ATOM     21 CL   UNL     1     -10.223  18.265  67.009  0.00  0.00    -0.112 Cl
ENDBRANCH  19  20
ENDBRANCH   1  19
TORSDOF 8
ENDMDL
MODEL 3
REMARK VINA RESULT:      -5.7      2.219      4.235
REMARK  Name = 
REMARK  8 active torsions:
REMARK  status: ('A' for Active; 'I' for Inactive)
REMARK    1  A    between atoms: C_2  and  C_3
REMARK    2  A    between atoms: C_2  and  N_11
REMARK    3  A    between atoms: C_3  and  O_4
REMARK    4  A    between atoms: O_4  and  C_5
REMARK    5  A    between atoms: N_11  and  C_12
REMARK    6  A    between atoms: N_11  and  C_15
REMARK    7  A    between atoms: C_12  and  C_13
REMARK    8  A    between atoms: C_15  and  C_16
REMARK                            x       y       z     vdW  Elec       q    Type
REMARK                         _______ _______ _______ _____ _____    ______ ____
ROOT
ATOM      1  N   UNL     1     -10.207  14.060  67.670  0.00  0.00    -0.266 NA
ENDROOT
BRANCH   1   3
ATOM      2  C   UNL     1      -9.414  16.272  67.119  0.00  0.00    +0.021 C 
ATOM      3  C   UNL     1      -9.762  15.364  68.479  0.00  0.00    +0.102 C 
BRANCH   3   4
ATOM      4  C   UNL     1     -11.331  15.935  68.495  0.00  0.00    +0.221 C 
BRANCH   4   5
ATOM      5  O   UNL     1     -11.462  16.562  69.746  0.00  0.00    -0.474 OA
BRANCH   5   6
ATOM      6  C   UNL     1     -12.069  15.862  70.777  0.00  0.00    +0.139 A 
ATOM      7  C   UNL     1     -11.734  16.115  72.099  0.00  0.00    +0.037 A 
ATOM      8  C   UNL     1     -12.687  16.005  73.083  0.00  0.00    +0.003 A 
ATOM      9  C   UNL     1     -13.988  15.602  72.805  0.00  0.00    +0.000 A 
ATOM     10  C   UNL     1     -14.186  15.053  71.544  0.00  0.00    +0.003 A 
ATOM     11  C   UNL     1     -13.199  15.076  70.591  0.00  0.00    +0.037 A 
ENDBRANCH   5   6
ENDBRANCH   4   5
ENDBRANCH   3   4
ENDBRANCH   1   3
BRANCH   1  12
ATOM     12  C   UNL     1     -11.240  14.647  66.815  0.00  0.00    +0.099 C 
BRANCH  12  13
ATOM     13  C   UNL     1     -11.434  13.836  65.573  0.00  0.00    -0.006 A 
ATOM     14  C   UNL     1     -10.286  13.295  65.004  0.00  0.00    -0.003 A 
ATOM     15  C   UNL     1     -10.342  12.450  63.932  0.00  0.00    -0.000 A 
ATOM     16  C   UNL     1     -11.586  12.039  63.476  0.00  0.00    -0.000 A 
ATOM     17  C   UNL     1     -12.718  12.352  64.202  0.00  0.00    -0.000 A 
ATOM     18  C   UNL     1     -12.640  13.215  65.285  0.00  0.00    -0.003 A 
ENDBRANCH  12  13
ENDBRANCH   1  12
BRANCH   1  19
ATOM     19  C   UNL     1     -10.663  13.091  68.559  0.00  0.00    +0.090 C 
BRANCH  19  20
ATOM     20  C   UNL     1     -10.097  11.719  68.456  0.00  0.00    +0.112 C 
ATOM     21 CL   UNL     1     -11.258  10.740  67.511  0.00  0.00    -0.112 Cl
ENDBRANCH  19  20
ENDBRANCH   1  19
TORSDOF 8
ENDMDL
MODEL 4
REMARK VINA RESULT:      -5.7      2.842      5.695
REMARK  Name = 
REMARK  8 active torsions:
REMARK  status: ('A' for Active; 'I' for Inactive)
REMARK    1  A    between atoms: C_2  and  C_3
REMARK    2  A    between atoms: C_2  and  N_11
REMARK    3  A    between atoms: C_3  and  O_4
REMARK    4  A    between atoms: O_4  and  C_5
REMARK    5  A    between atoms: N_11  and  C_12
REMARK    6  A    between atoms: N_11  and  C_15
REMARK    7  A    between atoms: C_12  and  C_13
REMARK    8  A    between atoms: C_15  and  C_16
REMARK                            x       y       z     vdW  Elec       q    Type
REMARK                         _______ _______ _______ _____ _____    ______ ____
ROOT
ATOM      1  N   UNL     1     -11.501  13.100  68.450  0.00  0.00    -0.266 NA
ENDROOT
BRANCH   1   3
ATOM      2  C   UNL     1      -9.791  14.598  67.639  0.00  0.00    +0.021 C 
ATOM      3  C   UNL     1     -10.588  14.256  69.069  0.00  0.00    +0.102 C 
BRANCH   3   4
ATOM      4  C   UNL     1     -11.749  15.407  68.732  0.00  0.00    +0.221 C 
BRANCH   4   5
ATOM      5  O   UNL     1     -11.705  16.280  69.831  0.00  0.00    -0.474 OA
BRANCH   5   6
ATOM      6  C   UNL     1     -12.426  15.951  70.968  0.00  0.00    +0.139 A 
ATOM      7  C   UNL     1     -13.596  15.213  70.877  0.00  0.00    +0.037 A 
ATOM      8  C   UNL     1     -13.934  14.332  71.878  0.00  0.00    +0.003 A 
ATOM      9  C   UNL     1     -13.153  14.180  73.018  0.00  0.00    +0.000 A 
ATOM     10  C   UNL     1     -12.186  15.159  73.214  0.00  0.00    +0.003 A 
ATOM     11  C   UNL     1     -11.916  16.100  72.252  0.00  0.00    +0.037 A 
ENDBRANCH   5   6
ENDBRANCH   4   5
ENDBRANCH   3   4
ENDBRANCH   1   3
BRANCH   1  12
ATOM     12  C   UNL     1     -10.642  11.945  68.715  0.00  0.00    +0.099 C 
BRANCH  12  13
ATOM     13  C   UNL     1     -11.288  11.008  69.686  0.00  0.00    -0.006 A 
ATOM     14  C   UNL     1     -10.509   9.946  70.130  0.00  0.00    -0.003 A 
ATOM     15  C   UNL     1     -10.948   9.083  71.094  0.00  0.00    -0.000 A 
ATOM     16  C   UNL     1     -12.157   9.348  71.720  0.00  0.00    -0.000 A 
ATOM     17  C   UNL     1     -12.804  10.544  71.479  0.00  0.00    -0.000 A 
ATOM     18  C   UNL     1     -12.344  11.403  70.493  0.00  0.00    -0.003 A 
ENDBRANCH  12  13
ENDBRANCH   1  12
BRANCH   1  19
ATOM     19  C   UNL     1     -11.734  13.360  67.102  0.00  0.00    +0.090 C 
BRANCH  19  20
ATOM     20  C   UNL     1     -11.766  12.210  66.159  0.00  0.00    +0.112 C 
ATOM     21 CL   UNL     1     -12.574  12.775  64.667  0.00  0.00    -0.112 Cl
ENDBRANCH  19  20
ENDBRANCH   1  19
TORSDOF 8
ENDMDL
MODEL 5
REMARK VINA RESULT:      -5.7      2.853      5.015
REMARK  Name = 
REMARK  8 active torsions:
REMARK  status: ('A' for Active; 'I' for Inactive)
REMARK    1  A    between atoms: C_2  and  C_3
REMARK    2  A    between atoms: C_2  and  N_11
REMARK    3  A    between atoms: C_3  and  O_4
REMARK    4  A    between atoms: O_4  and  C_5
REMARK    5  A    between atoms: N_11  and  C_12
REMARK    6  A    between atoms: N_11  and  C_15
REMARK    7  A    between atoms: C_12  and  C_13
REMARK    8  A    between atoms: C_15  and  C_16
REMARK                            x       y       z     vdW  Elec       q    Type
REMARK                         _______ _______ _______ _____ _____    ______ ____
ROOT
ATOM      1  N   UNL     1     -10.972  14.121  69.005  0.00  0.00    -0.266 NA
ENDROOT
BRANCH   1   3
ATOM      2  C   UNL     1     -10.444  13.091  66.887  0.00  0.00    +0.021 C 
ATOM      3  C   UNL     1     -11.691  13.108  68.000  0.00  0.00    +0.102 C 
BRANCH   3   4
ATOM      4  C   UNL     1     -11.038  11.794  68.797  0.00  0.00    +0.221 C 
BRANCH   4   5
ATOM      5  O   UNL     1     -12.148  11.134  69.350  0.00  0.00    -0.474 OA
BRANCH   5   6
ATOM      6  C   UNL     1     -11.997  10.490  70.568  0.00  0.00    +0.139 A 
ATOM      7  C   UNL     1     -13.059  10.390  71.454  0.00  0.00    +0.037 A 
ATOM      8  C   UNL     1     -13.186   9.280  72.254  0.00  0.00    +0.003 A 
ATOM      9  C   UNL     1     -12.251   8.251  72.239  0.00  0.00    +0.000 A 
ATOM     10  C   UNL     1     -11.056   8.541  71.589  0.00  0.00    +0.003 A 
ATOM     11  C   UNL     1     -10.896   9.698  70.870  0.00  0.00    +0.037 A 
ENDBRANCH   5   6
ENDBRANCH   4   5
ENDBRANCH   3   4
ENDBRANCH   1   3
BRANCH   1  12
ATOM     12  C   UNL     1     -12.057  15.086  69.192  0.00  0.00    +0.099 C 
BRANCH  12  13
ATOM     13  C   UNL     1     -12.435  15.195  70.636  0.00  0.00    -0.006 A 
ATOM     14  C   UNL     1     -13.036  14.077  71.202  0.00  0.00    -0.003 A 
ATOM     15  C   UNL     1     -13.331  14.014  72.535  0.00  0.00    -0.000 A 
ATOM     16  C   UNL     1     -12.914  15.051  73.356  0.00  0.00    -0.000 A 
ATOM     17  C   UNL     1     -12.081  16.031  72.851  0.00  0.00    -0.000 A 
ATOM     18  C   UNL     1     -11.798  16.079  71.494  0.00  0.00    -0.003 A 
ENDBRANCH  12  13
ENDBRANCH   1  12
BRANCH   1  19
ATOM     19  C   UNL     1      -9.826  14.637  68.407  0.00  0.00    +0.090 C 
BRANCH  19  20
ATOM     20  C   UNL     1      -8.909  15.462  69.240  0.00  0.00    +0.112 C 
ATOM     21 CL   UNL     1      -9.107  17.160  68.714  0.00  0.00    -0.112 Cl
ENDBRANCH  19  20
ENDBRANCH   1  19
TORSDOF 8
ENDMDL
MODEL 6
REMARK VINA RESULT:      -5.6      3.185      4.883
REMARK  Name = 
REMARK  8 active torsions:
REMARK  status: ('A' for Active; 'I' for Inactive)
REMARK    1  A    between atoms: C_2  and  C_3
REMARK    2  A    between atoms: C_2  and  N_11
REMARK    3  A    between atoms: C_3  and  O_4
REMARK    4  A    between atoms: O_4  and  C_5
REMARK    5  A    between atoms: N_11  and  C_12
REMARK    6  A    between atoms: N_11  and  C_15
REMARK    7  A    between atoms: C_12  and  C_13
REMARK    8  A    between atoms: C_15  and  C_16
REMARK                            x       y       z     vdW  Elec       q    Type
REMARK                         _______ _______ _______ _____ _____    ______ ____
ROOT
ATOM      1  N   UNL     1     -11.190  12.146  68.342  0.00  0.00    -0.266 NA
ENDROOT
BRANCH   1   3
ATOM      2  C   UNL     1      -9.832  14.141  68.341  0.00  0.00    +0.021 C 
ATOM      3  C   UNL     1     -10.896  13.345  69.356  0.00  0.00    +0.102 C 
BRANCH   3   4
ATOM      4  C   UNL     1     -12.179  14.224  68.750  0.00  0.00    +0.221 C 
BRANCH   4   5
ATOM      5  O   UNL     1     -12.063  15.481  69.366  0.00  0.00    -0.474 OA
BRANCH   5   6
ATOM      6  C   UNL     1     -12.566  15.641  70.647  0.00  0.00    +0.139 A 
ATOM      7  C   UNL     1     -13.783  15.082  71.006  0.00  0.00    +0.037 A 
ATOM      8  C   UNL     1     -13.980  14.629  72.289  0.00  0.00    +0.003 A 
ATOM      9  C   UNL     1     -13.002  14.749  73.270  0.00  0.00    +0.000 A 
ATOM     10  C   UNL     1     -11.945  15.595  72.957  0.00  0.00    +0.003 A 
ATOM     11  C   UNL     1     -11.801  16.127  71.701  0.00  0.00    +0.037 A 
ENDBRANCH   5   6
ENDBRANCH   4   5
ENDBRANCH   3   4
ENDBRANCH   1   3
BRANCH   1  12
ATOM     12  C   UNL     1     -11.894  12.886  67.292  0.00  0.00    +0.099 C 
BRANCH  12  13
ATOM     13  C   UNL     1     -11.689  12.245  65.956  0.00  0.00    -0.006 A 
ATOM     14  C   UNL     1     -12.376  12.813  64.888  0.00  0.00    -0.003 A 
ATOM     15  C   UNL     1     -12.192  12.385  63.603  0.00  0.00    -0.000 A 
ATOM     16  C   UNL     1     -11.210  11.438  63.354  0.00  0.00    -0.000 A 
ATOM     17  C   UNL     1     -10.342  11.071  64.364  0.00  0.00    -0.000 A 
ATOM     18  C   UNL     1     -10.549  11.512  65.662  0.00  0.00    -0.003 A 
ENDBRANCH  12  13
ENDBRANCH   1  12
BRANCH   1  19
ATOM     19  C   UNL     1     -11.949  11.169  68.980  0.00  0.00    +0.090 C 
BRANCH  19  20
ATOM     20  C   UNL     1     -11.578  10.784  70.368  0.00  0.00    +0.112 C 
ATOM     21 CL   UNL     1     -12.945  11.249  71.425  0.00  0.00    -0.112 Cl
ENDBRANCH  19  20
ENDBRANCH   1  19
TORSDOF 8
ENDMDL
MODEL 7
REMARK VINA RESULT:      -5.6      1.860      4.211
REMARK  Name = 
REMARK  8 active torsions:
REMARK  status: ('A' for Active; 'I' for Inactive)
REMARK    1  A    between atoms: C_2  and  C_3
REMARK    2  A    between atoms: C_2  and  N_11
REMARK    3  A    between atoms: C_3  and  O_4
REMARK    4  A    between atoms: O_4  and  C_5
REMARK    5  A    between atoms: N_11  and  C_12
REMARK    6  A    between atoms: N_11  and  C_15
REMARK    7  A    between atoms: C_12  and  C_13
REMARK    8  A    between atoms: C_15  and  C_16
REMARK                            x       y       z     vdW  Elec       q    Type
REMARK                         _______ _______ _______ _____ _____    ______ ____
ROOT
ATOM      1  N   UNL     1      -9.960  16.210  67.153  0.00  0.00    -0.266 NA
ENDROOT
BRANCH   1   3
ATOM      2  C   UNL     1      -8.235  16.893  68.697  0.00  0.00    +0.021 C 
ATOM      3  C   UNL     1      -9.512  15.815  68.635  0.00  0.00    +0.102 C 
BRANCH   3   4
ATOM      4  C   UNL     1     -10.543  16.952  69.292  0.00  0.00    +0.221 C 
BRANCH   4   5
ATOM      5  O   UNL     1     -11.743  16.254  69.505  0.00  0.00    -0.474 OA
BRANCH   5   6
ATOM      6  C   UNL     1     -11.871  15.493  70.656  0.00  0.00    +0.139 A 
ATOM      7  C   UNL     1     -11.902  16.095  71.905  0.00  0.00    +0.037 A 
ATOM      8  C   UNL     1     -12.663  15.552  72.912  0.00  0.00    +0.003 A 
ATOM      9  C   UNL     1     -13.385  14.377  72.737  0.00  0.00    +0.000 A 
ATOM     10  C   UNL     1     -13.069  13.647  71.597  0.00  0.00    +0.003 A 
ATOM     11  C   UNL     1     -12.229  14.150  70.636  0.00  0.00    +0.037 A 
ENDBRANCH   5   6
ENDBRANCH   4   5
ENDBRANCH   3   4
ENDBRANCH   1   3
BRANCH   1  12
ATOM     12  C   UNL     1      -9.308  15.132  66.408  0.00  0.00    +0.099 C 
BRANCH  12  13
ATOM     13  C   UNL     1     -10.319  14.240  65.760  0.00  0.00    -0.006 A 
ATOM     14  C   UNL     1     -10.716  13.125  66.491  0.00  0.00    -0.003 A 
ATOM     15  C   UNL     1     -11.708  12.293  66.054  0.00  0.00    -0.000 A 
ATOM     16  C   UNL     1     -12.408  12.640  64.908  0.00  0.00    -0.000 A 
ATOM     17  C   UNL     1     -12.205  13.878  64.331  0.00  0.00    -0.000 A 
ATOM     18  C   UNL     1     -11.190  14.706  64.787  0.00  0.00    -0.003 A 
ENDBRANCH  12  13
ENDBRANCH   1  12
BRANCH   1  19
ATOM     19  C   UNL     1      -9.504  17.490  66.852  0.00  0.00    +0.090 C 
BRANCH  19  20
ATOM     20  C   UNL     1     -10.388  18.383  66.056  0.00  0.00    +0.112 C 
ATOM     21 CL   UNL     1     -10.297  20.009  66.797  0.00  0.00    -0.112 Cl
ENDBRANCH  19  20
ENDBRANCH   1  19
TORSDOF 8
ENDMDL
MODEL 8
REMARK VINA RESULT:      -5.5      2.140      6.072
REMARK  Name = 
REMARK  8 active torsions:
REMARK  status: ('A' for Active; 'I' for Inactive)
REMARK    1  A    between atoms: C_2  and  C_3
REMARK    2  A    between atoms: C_2  and  N_11
REMARK    3  A    between atoms: C_3  and  O_4
REMARK    4  A    between atoms: O_4  and  C_5
REMARK    5  A    between atoms: N_11  and  C_12
REMARK    6  A    between atoms: N_11  and  C_15
REMARK    7  A    between atoms: C_12  and  C_13
REMARK    8  A    between atoms: C_15  and  C_16
REMARK                            x       y       z     vdW  Elec       q    Type
REMARK                         _______ _______ _______ _____ _____    ______ ____
ROOT
ATOM      1  N   UNL     1     -11.660  15.138  68.618  0.00  0.00    -0.266 NA
ENDROOT
BRANCH   1   3
ATOM      2  C   UNL     1      -9.296  15.564  68.857  0.00  0.00    +0.021 C 
ATOM      3  C   UNL     1     -10.748  16.355  69.108  0.00  0.00    +0.102 C 
BRANCH   3   4
ATOM      4  C   UNL     1     -10.701  16.991  67.564  0.00  0.00    +0.221 C 
BRANCH   4   5
ATOM      5  O   UNL     1     -10.824  18.378  67.755  0.00  0.00    -0.474 OA
BRANCH   5   6
ATOM      6  C   UNL     1      -9.701  19.172  67.582  0.00  0.00    +0.139 A 
ATOM      7  C   UNL     1      -8.805  19.368  68.622  0.00  0.00    +0.037 A 
ATOM      8  C   UNL     1      -7.464  19.520  68.356  0.00  0.00    +0.003 A 
ATOM      9  C   UNL     1      -6.969  19.525  67.057  0.00  0.00    +0.000 A 
ATOM     10  C   UNL     1      -7.923  19.653  66.055  0.00  0.00    +0.003 A 
ATOM     11  C   UNL     1      -9.265  19.599  66.334  0.00  0.00    +0.037 A 
ENDBRANCH   5   6
ENDBRANCH   4   5
ENDBRANCH   3   4
ENDBRANCH   1   3
BRANCH   1  12
ATOM     12  C   UNL     1     -11.605  14.298  69.816  0.00  0.00    +0.099 C 
BRANCH  12  13
ATOM     13  C   UNL     1     -12.253  14.980  70.979  0.00  0.00    -0.006 A 
ATOM     14  C   UNL     1     -13.639  14.904  71.045  0.00  0.00    -0.003 A 
ATOM     15  C   UNL     1     -14.339  15.395  72.111  0.00  0.00    -0.000 A 
ATOM     16  C   UNL     1     -13.632  15.878  73.202  0.00  0.00    -0.000 A 
ATOM     17  C   UNL     1     -12.262  15.708  73.259  0.00  0.00    -0.000 A 
ATOM     18  C   UNL     1     -11.571  15.212  72.164  0.00  0.00    -0.003 A 
ENDBRANCH  12  13
ENDBRANCH   1  12
BRANCH   1  19
ATOM     19  C   UNL     1     -11.104  14.567  67.476  0.00  0.00    +0.090 C 
BRANCH  19  20
ATOM     20  C   UNL     1     -11.802  13.408  66.858  0.00  0.00    +0.112 C 
ATOM     21 CL   UNL     1     -12.777  14.045  65.500  0.00  0.00    -0.112 Cl
ENDBRANCH  19  20
ENDBRANCH   1  19
TORSDOF 8
ENDMDL
MODEL 9
REMARK VINA RESULT:      -5.5      1.986      5.749
REMARK  Name = 
REMARK  8 active torsions:
REMARK  status: ('A' for Active; 'I' for Inactive)
REMARK    1  A    between atoms: C_2  and  C_3
REMARK    2  A    between atoms: C_2  and  N_11
REMARK    3  A    between atoms: C_3  and  O_4
REMARK    4  A    between atoms: O_4  and  C_5
REMARK    5  A    between atoms: N_11  and  C_12
REMARK    6  A    between atoms: N_11  and  C_15
REMARK    7  A    between atoms: C_12  and  C_13
REMARK    8  A    between atoms: C_15  and  C_16
REMARK                            x       y       z     vdW  Elec       q    Type
REMARK                         _______ _______ _______ _____ _____    ______ ____
ROOT
ATOM      1  N   UNL     1     -11.105  14.341  67.653  0.00  0.00    -0.266 NA
ENDROOT
BRANCH   1   3
ATOM      2  C   UNL     1     -11.580  14.083  70.005  0.00  0.00    +0.021 C 
ATOM      3  C   UNL     1     -12.045  15.057  68.728  0.00  0.00    +0.102 C 
BRANCH   3   4
ATOM      4  C   UNL     1     -10.848  16.162  69.095  0.00  0.00    +0.221 C 
BRANCH   4   5
ATOM      5  O   UNL     1     -11.244  17.337  68.436  0.00  0.00    -0.474 OA
BRANCH   5   6
ATOM      6  C   UNL     1     -10.268  18.251  68.068  0.00  0.00    +0.139 A 
ATOM      7  C   UNL     1      -8.933  18.021  68.363  0.00  0.00    +0.037 A 
ATOM      8  C   UNL     1      -7.953  18.458  67.504  0.00  0.00    +0.003 A 
ATOM      9  C   UNL     1      -8.253  19.171  66.349  0.00  0.00    +0.000 A 
ATOM     10  C   UNL     1      -9.554  19.653  66.266  0.00  0.00    +0.003 A 
ATOM     11  C   UNL     1     -10.509  19.294  67.182  0.00  0.00    +0.037 A 
ENDBRANCH   5   6
ENDBRANCH   4   5
ENDBRANCH   3   4
ENDBRANCH   1   3
BRANCH   1  12
ATOM     12  C   UNL     1     -11.793  13.053  67.551  0.00  0.00    +0.099 C 
BRANCH  12  13
ATOM     13  C   UNL     1     -11.720  12.515  66.156  0.00  0.00    -0.006 A 
ATOM     14  C   UNL     1     -12.226  13.333  65.152  0.00  0.00    -0.003 A 
ATOM     15  C   UNL     1     -12.123  13.001  63.831  0.00  0.00    -0.000 A 
ATOM     16  C   UNL     1     -11.393  11.873  63.486  0.00  0.00    -0.000 A 
ATOM     17  C   UNL     1     -10.661  11.210  64.452  0.00  0.00    -0.000 A 
ATOM     18  C   UNL     1     -10.784  11.560  65.788  0.00  0.00    -0.003 A 
ENDBRANCH  12  13
ENDBRANCH   1  12
BRANCH   1  19
ATOM     19  C   UNL     1      -9.804  14.273  68.141  0.00  0.00    +0.090 C 
BRANCH  19  20
ATOM     20  C   UNL     1      -8.681  14.419  67.175  0.00  0.00    +0.112 C 
ATOM     21 CL   UNL     1      -9.276  15.434  65.828  0.00  0.00    -0.112 Cl
ENDBRANCH  19  20
ENDBRANCH   1  19
TORSDOF 8
ENDMDL
