MODEL 1
REMARK VINA RESULT:      -6.1      0.000      0.000
REMARK  Name = 
REMARK  6 active torsions:
REMARK  status: ('A' for Active; 'I' for Inactive)
REMARK    1  A    between atoms: N_2  and  C_3
REMARK    2  A    between atoms: C_3  and  C_4
REMARK    3  A    between atoms: C_4  and  C_5
REMARK    4  A    between atoms: C_5  and  O_6
REMARK    5  A    between atoms: C_5  and  C_14
REMARK    6  A    between atoms: O_6  and  C_7
REMARK                            x       y       z     vdW  Elec       q    Type
REMARK                         _______ _______ _______ _____ _____    ______ ____
ROOT
ATOM      1  C   UNL     1     -12.077  15.485  69.195  0.00  0.00    +0.190 C 
ENDROOT
BRANCH   1   2
ATOM      2  C   UNL     1     -12.566  15.729  70.738  0.00  0.00    +0.017 A 
ATOM      3  C   UNL     1     -13.753  15.157  71.090  0.00  0.00    -0.001 A 
ATOM      4  C   UNL     1     -14.141  15.379  72.407  0.00  0.00    -0.000 A 
ATOM      5  C   UNL     1     -13.183  15.706  73.356  0.00  0.00    -0.000 A 
ATOM      6  C   UNL     1     -11.867  15.469  72.971  0.00  0.00    -0.000 A 
ATOM      7  C   UNL     1     -11.531  15.415  71.621  0.00  0.00    -0.001 A 
ENDBRANCH   1   2
BRANCH   1   8
ATOM      8  C   UNL     1     -10.702  16.412  69.413  0.00  0.00    +0.067 C 
BRANCH   8   9
ATOM      9  C   UNL     1     -10.553  16.936  67.988  0.00  0.00    +0.093 C 
BRANCH   9  11
ATOM     10  C   UNL     1     -10.628  18.827  67.198  0.00  0.00    +0.107 C 
ATOM     11  N   UNL     1     -10.673  18.370  67.909  0.00  0.00    -0.216 NA
ENDBRANCH   9  11
ENDBRANCH   8   9
ENDBRANCH   1   8
BRANCH   1  12
ATOM     12  O   UNL     1     -11.317  14.162  69.535  0.00  0.00    -0.475 OA
BRANCH  12  13
ATOM     13  C   UNL     1     -11.725  13.109  68.737  0.00  0.00    +0.135 A 
ATOM     14  C   UNL     1     -11.802  11.858  69.333  0.00  0.00    +0.012 A 
ATOM     15  C   UNL     1     -12.261  11.723  70.744  0.00  0.00    +0.034 C 
ATOM     16  C   UNL     1     -11.572  10.696  68.604  0.00  0.00    -0.001 A 
ATOM     17  C   UNL     1     -11.122  10.783  67.306  0.00  0.00    -0.000 A 
ATOM     18  C   UNL     1     -11.176  11.999  66.645  0.00  0.00    +0.003 A 
ATOM     19  C   UNL     1     -11.387  13.115  67.401  0.00  0.00    +0.037 A 
ENDBRANCH  12  13
ENDBRANCH   1  12
TORSDOF 6
ENDMDL
MODEL 2
REMARK VINA RESULT:      -5.8      0.743      1.308
REMARK  Name = 
REMARK  6 active torsions:
REMARK  status: ('A' for Active; 'I' for Inactive)
REMARK    1  A    between atoms: N_2  and  C_3
REMARK    2  A    between atoms: C_3  and  C_4
REMARK    3  A    between atoms: C_4  and  C_5
REMARK    4  A    between atoms: C_5  and  O_6
REMARK    5  A    between atoms: C_5  and  C_14
REMARK    6  A    between atoms: O_6  and  C_7
REMARK                            x       y       z     vdW  Elec       q    Type
REMARK                         _______ _______ _______ _____ _____    ______ ____
ROOT
ATOM      1  C   UNL     1     -12.049  15.569  69.271  0.00  0.00    +0.190 C 
ENDROOT
BRANCH   1   2
ATOM      2  C   UNL     1     -12.194  15.232  70.866  0.00  0.00    +0.017 A 
ATOM      3  C   UNL     1     -11.912  16.254  71.725  0.00  0.00    -0.001 A 
ATOM      4  C   UNL     1     -12.047  15.939  73.073  0.00  0.00    -0.000 A 
ATOM      5  C   UNL     1     -12.858  14.878  73.449  0.00  0.00    -0.000 A 
ATOM      6  C   UNL     1     -13.723  14.419  72.461  0.00  0.00    -0.000 A 
ATOM      7  C   UNL     1     -13.435  14.642  71.118  0.00  0.00    -0.001 A 
ENDBRANCH   1   2
BRANCH   1   8
ATOM      8  C   UNL     1     -10.748  16.586  69.535  0.00  0.00    +0.067 C 
BRANCH   8   9
ATOM      9  C   UNL     1     -10.561  17.091  68.108  0.00  0.00    +0.093 C 
BRANCH   9  11
ATOM     10  C   UNL     1     -10.582  18.975  67.299  0.00  0.00    +0.107 C 
ATOM     11  N   UNL     1     -10.616  18.528  68.016  0.00  0.00    -0.216 NA
ENDBRANCH   9  11
ENDBRANCH   8   9
ENDBRANCH   1   8
BRANCH   1  12
ATOM     12  O   UNL     1     -11.118  14.344  68.991  0.00  0.00    -0.475 OA
BRANCH  12  13
ATOM     13  C   UNL     1     -11.666  13.476  68.065  0.00  0.00    +0.135 A 
ATOM     14  C   UNL     1     -11.508  12.117  68.303  0.00  0.00    +0.012 A 
ATOM     15  C   UNL     1     -11.561  11.586  69.693  0.00  0.00    +0.034 C 
ATOM     16  C   UNL     1     -11.418  11.208  67.255  0.00  0.00    -0.001 A 
ATOM     17  C   UNL     1     -11.340  11.665  65.959  0.00  0.00    -0.000 A 
ATOM     18  C   UNL     1     -11.640  12.989  65.684  0.00  0.00    +0.003 A 
ATOM     19  C   UNL     1     -11.702  13.850  66.739  0.00  0.00    +0.037 A 
ENDBRANCH  12  13
ENDBRANCH   1  12
TORSDOF 6
ENDMDL
MODEL 3
REMARK VINA RESULT:      -5.5      2.326      4.187
REMARK  Name = 
REMARK  6 active torsions:
REMARK  status: ('A' for Active; 'I' for Inactive)
REMARK    1  A    between atoms: N_2  and  C_3
REMARK    2  A    between atoms: C_3  and  C_4
REMARK    3  A    between atoms: C_4  and  C_5
REMARK    4  A    between atoms: C_5  and  O_6
REMARK    5  A    between atoms: C_5  and  C_14
REMARK    6  A    between atoms: O_6  and  C_7
REMARK                            x       y       z     vdW  Elec       q    Type
REMARK                         _______ _______ _______ _____ _____    ______ ____
ROOT
ATOM      1  C   UNL     1     -11.258  13.787  69.503  0.00  0.00    +0.190 C 
ENDROOT
BRANCH   1   2
ATOM      2  C   UNL     1     -12.244  14.436  70.637  0.00  0.00    +0.017 A 
ATOM      3  C   UNL     1     -12.905  13.551  71.437  0.00  0.00    -0.001 A 
ATOM      4  C   UNL     1     -13.732  14.132  72.392  0.00  0.00    -0.000 A 
ATOM      5  C   UNL     1     -13.500  15.440  72.793  0.00  0.00    -0.000 A 
ATOM      6  C   UNL     1     -12.258  15.954  72.436  0.00  0.00    -0.000 A 
ATOM      7  C   UNL     1     -11.558  15.413  71.362  0.00  0.00    -0.001 A 
ENDBRANCH   1   2
BRANCH   1   8
ATOM      8  C   UNL     1     -11.902  12.259  69.721  0.00  0.00    +0.067 C 
BRANCH   8   9
ATOM      9  C   UNL     1     -10.874  11.463  68.924  0.00  0.00    +0.093 C 
BRANCH   9  11
ATOM     10  C   UNL     1     -11.059  10.140  67.368  0.00  0.00    +0.107 C 
ATOM     11  N   UNL     1     -11.472  10.677  67.874  0.00  0.00    -0.216 NA
ENDBRANCH   9  11
ENDBRANCH   8   9
ENDBRANCH   1   8
BRANCH   1  12
ATOM     12  O   UNL     1     -12.235  14.101  68.323  0.00  0.00    -0.475 OA
BRANCH  12  13
ATOM     13  C   UNL     1     -11.632  14.862  67.339  0.00  0.00    +0.135 A 
ATOM     14  C   UNL     1     -11.369  14.234  66.129  0.00  0.00    +0.012 A 
ATOM     15  C   UNL     1     -12.322  13.230  65.579  0.00  0.00    +0.034 C 
ATOM     16  C   UNL     1     -10.283  14.607  65.345  0.00  0.00    -0.001 A 
ATOM     17  C   UNL     1      -9.368  15.512  65.832  0.00  0.00    -0.000 A 
ATOM     18  C   UNL     1      -9.678  16.256  66.959  0.00  0.00    +0.003 A 
ATOM     19  C   UNL     1     -10.740  15.846  67.708  0.00  0.00    +0.037 A 
ENDBRANCH  12  13
ENDBRANCH   1  12
TORSDOF 6
ENDMDL
MODEL 4
REMARK VINA RESULT:      -5.5      2.884      4.922
REMARK  Name = 
REMARK  6 active torsions:
REMARK  status: ('A' for Active; 'I' for Inactive)
REMARK    1  A    between atoms: N_2  and  C_3
REMARK    2  A    between atoms: C_3  and  C_4
REMARK    3  A    between atoms: C_4  and  C_5
REMARK    4  A    between atoms: C_5  and  O_6
REMARK    5  A    between atoms: C_5  and  C_14
REMARK    6  A    between atoms: O_6  and  C_7
REMARK                            x       y       z     vdW  Elec       q    Type
REMARK                         _______ _______ _______ _____ _____    ______ ____
ROOT
ATOM      1  C   UNL     1     -11.099  12.081  68.781  0.00  0.00    +0.190 C 
ENDROOT
BRANCH   1   2
ATOM      2  C   UNL     1     -11.957  13.303  69.451  0.00  0.00    +0.017 A 
ATOM      3  C   UNL     1     -12.306  13.146  70.760  0.00  0.00    -0.001 A 
ATOM      4  C   UNL     1     -13.031  14.201  71.303  0.00  0.00    -0.000 A 
ATOM      5  C   UNL     1     -12.951  15.457  70.719  0.00  0.00    -0.000 A 
ATOM      6  C   UNL     1     -11.896  15.626  69.828  0.00  0.00    -0.000 A 
ATOM      7  C   UNL     1     -11.322  14.522  69.203  0.00  0.00    -0.001 A 
ENDBRANCH   1   2
BRANCH   1   8
ATOM      8  C   UNL     1     -11.979  10.921  69.605  0.00  0.00    +0.067 C 
BRANCH   8   9
ATOM      9  C   UNL     1     -10.848   9.940  69.894  0.00  0.00    +0.093 C 
BRANCH   9  11
ATOM     10  C   UNL     1     -11.594   9.228  71.667  0.00  0.00    +0.107 C 
ATOM     11  N   UNL     1     -10.891   9.425  71.240  0.00  0.00    -0.216 NA
ENDBRANCH   9  11
ENDBRANCH   8   9
ENDBRANCH   1   8
BRANCH   1  12
ATOM     12  O   UNL     1     -12.024  11.982  67.524  0.00  0.00    -0.475 OA
BRANCH  12  13
ATOM     13  C   UNL     1     -11.307  12.057  66.344  0.00  0.00    +0.135 A 
ATOM     14  C   UNL     1     -11.890  12.752  65.294  0.00  0.00    +0.012 A 
ATOM     15  C   UNL     1     -12.696  13.977  65.557  0.00  0.00    +0.034 C 
ATOM     16  C   UNL     1     -11.644  12.400  63.971  0.00  0.00    -0.001 A 
ATOM     17  C   UNL     1     -10.926  11.260  63.690  0.00  0.00    -0.000 A 
ATOM     18  C   UNL     1     -10.216  10.635  64.703  0.00  0.00    +0.003 A 
ATOM     19  C   UNL     1     -10.501  10.998  65.985  0.00  0.00    +0.037 A 
ENDBRANCH  12  13
ENDBRANCH   1  12
TORSDOF 6
ENDMDL
MODEL 5
REMARK VINA RESULT:      -5.4      2.097      4.463
REMARK  Name = 
REMARK  6 active torsions:
REMARK  status: ('A' for Active; 'I' for Inactive)
REMARK    1  A    between atoms: N_2  and  C_3
REMARK    2  A    between atoms: C_3  and  C_4
REMARK    3  A    between atoms: C_4  and  C_5
REMARK    4  A    between atoms: C_5  and  O_6
REMARK    5  A    between atoms: C_5  and  C_14
REMARK    6  A    between atoms: O_6  and  C_7
REMARK                            x       y       z     vdW  Elec       q    Type
REMARK                         _______ _______ _______ _____ _____    ______ ____
ROOT
ATOM      1  C   UNL     1     -10.964  15.408  69.468  0.00  0.00    +0.190 C 
ENDROOT
BRANCH   1   2
ATOM      2  C   UNL     1     -12.159  15.609  70.569  0.00  0.00    +0.017 A 
ATOM      3  C   UNL     1     -13.078  14.603  70.648  0.00  0.00    -0.001 A 
ATOM      4  C   UNL     1     -14.079  14.800  71.593  0.00  0.00    -0.000 A 
ATOM      5  C   UNL     1     -13.856  15.665  72.655  0.00  0.00    -0.000 A 
ATOM      6  C   UNL     1     -12.527  16.019  72.857  0.00  0.00    -0.000 A 
ATOM      7  C   UNL     1     -11.613  15.940  71.810  0.00  0.00    -0.001 A 
ENDBRANCH   1   2
BRANCH   1   8
ATOM      8  C   UNL     1     -12.047  14.965  68.273  0.00  0.00    +0.067 C 
BRANCH   8   9
ATOM      9  C   UNL     1     -11.090  14.188  67.376  0.00  0.00    +0.093 C 
BRANCH   9  11
ATOM     10  C   UNL     1     -10.176  14.664  65.603  0.00  0.00    +0.107 C 
ATOM     11  N   UNL     1     -10.762  14.899  66.166  0.00  0.00    -0.216 NA
ENDBRANCH   9  11
ENDBRANCH   8   9
ENDBRANCH   1   8
BRANCH   1  12
ATOM     12  O   UNL     1     -10.983  16.907  69.020  0.00  0.00    -0.475 OA
BRANCH  12  13
ATOM     13  C   UNL     1      -9.742  17.335  68.589  0.00  0.00    +0.135 A 
ATOM     14  C   UNL     1      -9.712  18.161  67.474  0.00  0.00    +0.012 A 
ATOM     15  C   UNL     1     -10.778  19.179  67.262  0.00  0.00    +0.034 C 
ATOM     16  C   UNL     1      -8.634  18.146  66.595  0.00  0.00    -0.001 A 
ATOM     17  C   UNL     1      -7.643  17.203  66.745  0.00  0.00    -0.000 A 
ATOM     18  C   UNL     1      -7.572  16.470  67.919  0.00  0.00    +0.003 A 
ATOM     19  C   UNL     1      -8.657  16.499  68.743  0.00  0.00    +0.037 A 
ENDBRANCH  12  13
ENDBRANCH   1  12
TORSDOF 6
ENDMDL
MODEL 6
REMARK VINA RESULT:      -5.4      1.347      4.816
REMARK  Name = 
REMARK  6 active torsions:
REMARK  status: ('A' for Active; 'I' for Inactive)
REMARK    1  A    between atoms: N_2  and  C_3
REMARK    2  A    between atoms: C_3  and  C_4
REMARK    3  A    between atoms: C_4  and  C_5
REMARK    4  A    between atoms: C_5  and  O_6
REMARK    5  A    between atoms: C_5  and  C_14
REMARK    6  A    between atoms: O_6  and  C_7
REMARK                            x       y       z     vdW  Elec       q    Type
REMARK                         _______ _______ _______ _____ _____    ______ ____
ROOT
ATOM      1  C   UNL     1     -10.373  15.343  68.741  0.00  0.00    +0.190 C 
ENDROOT
BRANCH   1   2
ATOM      2  C   UNL     1     -10.549  14.360  67.444  0.00  0.00    +0.017 A 
ATOM      3  C   UNL     1     -10.001  13.115  67.554  0.00  0.00    -0.001 A 
ATOM      4  C   UNL     1     -10.169  12.303  66.438  0.00  0.00    -0.000 A 
ATOM      5  C   UNL     1     -11.202  12.565  65.550  0.00  0.00    -0.000 A 
ATOM      6  C   UNL     1     -12.181  13.431  66.026  0.00  0.00    -0.000 A 
ATOM      7  C   UNL     1     -11.888  14.328  67.048  0.00  0.00    -0.001 A 
ENDBRANCH   1   2
BRANCH   1   8
ATOM      8  C   UNL     1     -10.886  16.683  67.881  0.00  0.00    +0.067 C 
BRANCH   8   9
ATOM      9  C   UNL     1      -9.965  17.723  68.510  0.00  0.00    +0.093 C 
BRANCH   9  11
ATOM     10  C   UNL     1     -10.618  19.220  67.270  0.00  0.00    +0.107 C 
ATOM     11  N   UNL     1     -10.048  19.005  67.858  0.00  0.00    -0.216 NA
ENDBRANCH   9  11
ENDBRANCH   8   9
ENDBRANCH   1   8
BRANCH   1  12
ATOM     12  O   UNL     1     -11.813  15.059  69.282  0.00  0.00    -0.475 OA
BRANCH  12  13
ATOM     13  C   UNL     1     -11.826  14.875  70.652  0.00  0.00    +0.135 A 
ATOM     14  C   UNL     1     -12.440  13.726  71.130  0.00  0.00    +0.012 A 
ATOM     15  C   UNL     1     -12.327  12.445  70.378  0.00  0.00    +0.034 C 
ATOM     16  C   UNL     1     -13.069  13.706  72.369  0.00  0.00    -0.001 A 
ATOM     17  C   UNL     1     -13.215  14.876  73.080  0.00  0.00    -0.000 A 
ATOM     18  C   UNL     1     -12.493  15.997  72.703  0.00  0.00    +0.003 A 
ATOM     19  C   UNL     1     -11.906  15.981  71.473  0.00  0.00    +0.037 A 
ENDBRANCH  12  13
ENDBRANCH   1  12
TORSDOF 6
ENDMDL
MODEL 7
REMARK VINA RESULT:      -5.4      2.123      3.215
REMARK  Name = 
REMARK  6 active torsions:
REMARK  status: ('A' for Active; 'I' for Inactive)
REMARK    1  A    between atoms: N_2  and  C_3
REMARK    2  A    between atoms: C_3  and  C_4
REMARK    3  A    between atoms: C_4  and  C_5
REMARK    4  A    between atoms: C_5  and  O_6
REMARK    5  A    between atoms: C_5  and  C_14
REMARK    6  A    between atoms: O_6  and  C_7
REMARK                            x       y       z     vdW  Elec       q    Type
REMARK                         _______ _______ _______ _____ _____    ______ ____
ROOT
ATOM      1  C   UNL     1     -11.717  14.416  66.979  0.00  0.00    +0.190 C 
ENDROOT
BRANCH   1   2
ATOM      2  C   UNL     1     -12.027  14.732  68.555  0.00  0.00    +0.017 A 
ATOM      3  C   UNL     1     -11.905  13.679  69.415  0.00  0.00    -0.001 A 
ATOM      4  C   UNL     1     -12.171  13.978  70.746  0.00  0.00    -0.000 A 
ATOM      5  C   UNL     1     -12.069  15.290  71.186  0.00  0.00    -0.000 A 
ATOM      6  C   UNL     1     -11.395  16.149  70.324  0.00  0.00    -0.000 A 
ATOM      7  C   UNL     1     -11.304  15.853  68.967  0.00  0.00    -0.001 A 
ENDBRANCH   1   2
BRANCH   1   8
ATOM      8  C   UNL     1     -10.081  14.705  67.173  0.00  0.00    +0.067 C 
BRANCH   8   9
ATOM      9  C   UNL     1      -9.783  15.264  65.785  0.00  0.00    +0.093 C 
BRANCH   9  11
ATOM     10  C   UNL     1      -8.222  16.483  66.318  0.00  0.00    +0.107 C 
ATOM     11  N   UNL     1      -8.905  16.406  65.824  0.00  0.00    -0.216 NA
ENDBRANCH   9  11
ENDBRANCH   8   9
ENDBRANCH   1   8
BRANCH   1  12
ATOM     12  O   UNL     1     -11.540  12.881  67.214  0.00  0.00    -0.475 OA
BRANCH  12  13
ATOM     13  C   UNL     1     -11.705  12.155  66.049  0.00  0.00    +0.135 A 
ATOM     14  C   UNL     1     -10.673  11.301  65.685  0.00  0.00    +0.012 A 
ATOM     15  C   UNL     1      -9.912  10.554  66.725  0.00  0.00    +0.034 C 
ATOM     16  C   UNL     1     -10.401  11.026  64.349  0.00  0.00    -0.001 A 
ATOM     17  C   UNL     1     -11.066  11.716  63.361  0.00  0.00    -0.000 A 
ATOM     18  C   UNL     1     -12.190  12.458  63.686  0.00  0.00    +0.003 A 
ATOM     19  C   UNL     1     -12.410  12.718  65.006  0.00  0.00    +0.037 A 
ENDBRANCH  12  13
ENDBRANCH   1  12
TORSDOF 6
ENDMDL
MODEL 8
REMARK VINA RESULT:      -5.3      2.175      6.366
REMARK  Name = 
REMARK  6 active torsions:
REMARK  status: ('A' for Active; 'I' for Inactive)
REMARK    1  A    between atoms: N_2  and  C_3
REMARK    2  A    between atoms: C_3  and  C_4
REMARK    3  A    between atoms: C_4  and  C_5
REMARK    4  A    between atoms: C_5  and  O_6
REMARK    5  A    between atoms: C_5  and  C_14
REMARK    6  A    between atoms: O_6  and  C_7
REMARK                            x       y       z     vdW  Elec       q    Type
REMARK                         _______ _______ _______ _____ _____    ______ ____
ROOT
ATOM      1  C   UNL     1     -10.878  15.902  67.515  0.00  0.00    +0.190 C 
ENDROOT
BRANCH   1   2
ATOM      2  C   UNL     1     -10.913  14.477  66.710  0.00  0.00    +0.017 A 
ATOM      3  C   UNL     1     -11.759  13.527  67.205  0.00  0.00    -0.001 A 
ATOM      4  C   UNL     1     -11.769  12.329  66.499  0.00  0.00    -0.000 A 
ATOM      5  C   UNL     1     -11.352  12.312  65.176  0.00  0.00    -0.000 A 
ATOM      6  C   UNL     1     -11.262  13.561  64.571  0.00  0.00    -0.000 A 
ATOM      7  C   UNL     1     -11.096  14.705  65.345  0.00  0.00    -0.001 A 
ENDBRANCH   1   2
BRANCH   1   8
ATOM      8  C   UNL     1     -10.335  15.173  68.919  0.00  0.00    +0.067 C 
BRANCH   8   9
ATOM      9  C   UNL     1     -10.965  16.127  69.929  0.00  0.00    +0.093 C 
BRANCH   9  11
ATOM     10  C   UNL     1     -12.739  15.537  70.772  0.00  0.00    +0.107 C 
ATOM     11  N   UNL     1     -12.379  15.901  70.098  0.00  0.00    -0.216 NA
ENDBRANCH   9  11
ENDBRANCH   8   9
ENDBRANCH   1   8
BRANCH   1  12
ATOM     12  O   UNL     1      -9.425  16.246  67.054  0.00  0.00    -0.475 OA
BRANCH  12  13
ATOM     13  C   UNL     1      -9.247  17.605  66.868  0.00  0.00    +0.135 A 
ATOM     14  C   UNL     1      -8.555  18.292  67.855  0.00  0.00    +0.012 A 
ATOM     15  C   UNL     1      -7.406  17.652  68.554  0.00  0.00    +0.034 C 
ATOM     16  C   UNL     1      -8.832  19.626  68.134  0.00  0.00    -0.001 A 
ATOM     17  C   UNL     1      -9.903  20.243  67.527  0.00  0.00    -0.000 A 
ATOM     18  C   UNL     1     -10.514  19.635  66.442  0.00  0.00    +0.003 A 
ATOM     19  C   UNL     1     -10.227  18.322  66.214  0.00  0.00    +0.037 A 
ENDBRANCH  12  13
ENDBRANCH   1  12
TORSDOF 6
ENDMDL
MODEL 9
REMARK VINA RESULT:      -5.2      2.102      4.652
REMARK  Name = 
REMARK  6 active torsions:
REMARK  status: ('A' for Active; 'I' for Inactive)
REMARK    1  A    between atoms: N_2  and  C_3
REMARK    2  A    between atoms: C_3  and  C_4
REMARK    3  A    between atoms: C_4  and  C_5
REMARK    4  A    between atoms: C_5  and  O_6
REMARK    5  A    between atoms: C_5  and  C_14
REMARK    6  A    between atoms: O_6  and  C_7
REMARK                            x       y       z     vdW  Elec       q    Type
REMARK                         _______ _______ _______ _____ _____    ______ ____
ROOT
ATOM      1  C   UNL     1     -10.226  15.923  68.153  0.00  0.00    +0.190 C 
ENDROOT
BRANCH   1   2
ATOM      2  C   UNL     1     -10.417  17.519  67.839  0.00  0.00    +0.017 A 
ATOM      3  C   UNL     1      -9.690  18.375  68.614  0.00  0.00    -0.001 A 
ATOM      4  C   UNL     1      -9.871  19.723  68.322  0.00  0.00    -0.000 A 
ATOM      5  C   UNL     1     -10.336  20.094  67.069  0.00  0.00    -0.000 A 
ATOM      6  C   UNL     1     -10.278  19.098  66.100  0.00  0.00    -0.000 A 
ATOM      7  C   UNL     1     -10.256  17.757  66.473  0.00  0.00    -0.001 A 
ENDBRANCH   1   2
BRANCH   1   8
ATOM      8  C   UNL     1     -11.717  15.824  68.906  0.00  0.00    +0.067 C 
BRANCH   8   9
ATOM      9  C   UNL     1     -11.238  15.490  70.315  0.00  0.00    +0.093 C 
BRANCH   9  11
ATOM     10  C   UNL     1     -11.962  15.978  72.171  0.00  0.00    +0.107 C 
ATOM     11  N   UNL     1     -12.062  16.084  71.337  0.00  0.00    -0.216 NA
ENDBRANCH   9  11
ENDBRANCH   8   9
ENDBRANCH   1   8
BRANCH   1  12
ATOM     12  O   UNL     1     -10.819  15.475  66.778  0.00  0.00    -0.475 OA
BRANCH  12  13
ATOM     13  C   UNL     1     -10.500  14.164  66.478  0.00  0.00    +0.135 A 
ATOM     14  C   UNL     1     -11.555  13.302  66.212  0.00  0.00    +0.012 A 
ATOM     15  C   UNL     1     -12.754  13.787  65.473  0.00  0.00    +0.034 C 
ATOM     16  C   UNL     1     -11.474  11.948  66.517  0.00  0.00    -0.001 A 
ATOM     17  C   UNL     1     -10.393  11.469  67.222  0.00  0.00    -0.000 A 
ATOM     18  C   UNL     1      -9.270  12.267  67.370  0.00  0.00    +0.003 A 
ATOM     19  C   UNL     1      -9.397  13.592  67.076  0.00  0.00    +0.037 A 
ENDBRANCH  12  13
ENDBRANCH   1  12
TORSDOF 6
ENDMDL
