MODEL 1
REMARK VINA RESULT:      -4.0      0.000      0.000
REMARK  Name = 
REMARK  4 active torsions:
REMARK  status: ('A' for Active; 'I' for Inactive)
REMARK    1  A    between atoms: C_2  and  O_4
REMARK    2  A    between atoms: O_4  and  C_5
REMARK    3  A    between atoms: C_5  and  C_7
REMARK    4  A    between atoms: C_7  and  N_8
REMARK                            x       y       z     vdW  Elec       q    Type
REMARK                         _______ _______ _______ _____ _____    ______ ____
ROOT
ATOM      1  C   UNL     1     -11.040  13.313  64.700  0.00  0.00    +0.223 C 
ATOM      2  C   UNL     1     -11.991  12.695  63.508  0.00  0.00    +0.054 C 
ENDROOT
BRANCH   1   3
ATOM      3  O   UNL     1     -11.877  14.601  64.778  0.00  0.00    -0.446 OA
BRANCH   3   5
ATOM      4  C   UNL     1     -10.375  16.040  65.662  0.00  0.00    +0.121 C 
ATOM      5  C   UNL     1     -11.135  15.786  64.722  0.00  0.00    +0.318 C 
ATOM      6  O   UNL     1     -11.599  16.662  63.931  0.00  0.00    -0.250 OA
ENDBRANCH   3   5
ENDBRANCH   1   3
BRANCH   1   7
ATOM      7  C   UNL     1     -11.941  12.595  65.875  0.00  0.00    +0.153 C 
BRANCH   7   8
ATOM      8  N   UNL     1     -11.026  12.384  66.967  0.00  0.00    +0.313 N 
ATOM      9  C   UNL     1     -11.193  10.995  67.389  0.00  0.00    +0.171 C 
ATOM     10  C   UNL     1     -11.332  13.268  68.064  0.00  0.00    +0.171 C 
ATOM     11  C   UNL     1      -9.645  12.535  66.579  0.00  0.00    +0.171 C 
ENDBRANCH   7   8
ENDBRANCH   1   7
TORSDOF 4
ENDMDL
MODEL 2
REMARK VINA RESULT:      -4.0      0.061      1.242
REMARK  Name = 
REMARK  4 active torsions:
REMARK  status: ('A' for Active; 'I' for Inactive)
REMARK    1  A    between atoms: C_2  and  O_4
REMARK    2  A    between atoms: O_4  and  C_5
REMARK    3  A    between atoms: C_5  and  C_7
REMARK    4  A    between atoms: C_7  and  N_8
REMARK                            x       y       z     vdW  Elec       q    Type
REMARK                         _______ _______ _______ _____ _____    ______ ____
ROOT
ATOM      1  C   UNL     1     -11.080  13.323  64.694  0.00  0.00    +0.223 C 
ATOM      2  C   UNL     1     -12.038  12.704  63.508  0.00  0.00    +0.054 C 
ENDROOT
BRANCH   1   3
ATOM      3  O   UNL     1     -11.900  14.623  64.756  0.00  0.00    -0.446 OA
BRANCH   3   5
ATOM      4  C   UNL     1     -10.384  16.036  65.657  0.00  0.00    +0.121 C 
ATOM      5  C   UNL     1     -11.140  15.797  64.710  0.00  0.00    +0.318 C 
ATOM      6  O   UNL     1     -11.585  16.683  63.919  0.00  0.00    -0.250 OA
ENDBRANCH   3   5
ENDBRANCH   1   3
BRANCH   1   7
ATOM      7  C   UNL     1     -11.993  12.631  65.876  0.00  0.00    +0.153 C 
BRANCH   7   8
ATOM      8  N   UNL     1     -11.062  12.322  66.930  0.00  0.00    +0.313 N 
ATOM      9  C   UNL     1     -11.344  13.250  68.022  0.00  0.00    +0.171 C 
ATOM     10  C   UNL     1      -9.705  12.500  66.477  0.00  0.00    +0.171 C 
ATOM     11  C   UNL     1     -11.235  10.993  67.461  0.00  0.00    +0.171 C 
ENDBRANCH   7   8
ENDBRANCH   1   7
TORSDOF 4
ENDMDL
MODEL 3
REMARK VINA RESULT:      -3.8      1.828      3.416
REMARK  Name = 
REMARK  4 active torsions:
REMARK  status: ('A' for Active; 'I' for Inactive)
REMARK    1  A    between atoms: C_2  and  O_4
REMARK    2  A    between atoms: O_4  and  C_5
REMARK    3  A    between atoms: C_5  and  C_7
REMARK    4  A    between atoms: C_7  and  N_8
REMARK                            x       y       z     vdW  Elec       q    Type
REMARK                         _______ _______ _______ _____ _____    ______ ____
ROOT
ATOM      1  C   UNL     1     -11.107  12.746  66.411  0.00  0.00    +0.223 C 
ATOM      2  C   UNL     1     -11.753  12.096  67.778  0.00  0.00    +0.054 C 
ENDROOT
BRANCH   1   3
ATOM      3  O   UNL     1     -12.348  12.378  65.581  0.00  0.00    -0.446 OA
BRANCH   3   5
ATOM      4  C   UNL     1     -11.115  11.722  63.804  0.00  0.00    +0.121 C 
ATOM      5  C   UNL     1     -12.129  12.305  64.201  0.00  0.00    +0.318 C 
ATOM      6  O   UNL     1     -12.759  13.171  63.521  0.00  0.00    -0.250 OA
ENDBRANCH   3   5
ENDBRANCH   1   3
BRANCH   1   7
ATOM      7  C   UNL     1     -11.716  14.235  66.757  0.00  0.00    +0.153 C 
BRANCH   7   8
ATOM      8  N   UNL     1     -10.673  15.157  66.391  0.00  0.00    +0.313 N 
ATOM      9  C   UNL     1      -9.429  14.391  66.366  0.00  0.00    +0.171 C 
ATOM     10  C   UNL     1     -10.571  16.221  67.358  0.00  0.00    +0.171 C 
ATOM     11  C   UNL     1     -10.847  15.706  65.069  0.00  0.00    +0.171 C 
ENDBRANCH   7   8
ENDBRANCH   1   7
TORSDOF 4
ENDMDL
MODEL 4
REMARK VINA RESULT:      -3.7      2.448      3.601
REMARK  Name = 
REMARK  4 active torsions:
REMARK  status: ('A' for Active; 'I' for Inactive)
REMARK    1  A    between atoms: C_2  and  O_4
REMARK    2  A    between atoms: O_4  and  C_5
REMARK    3  A    between atoms: C_5  and  C_7
REMARK    4  A    between atoms: C_7  and  N_8
REMARK                            x       y       z     vdW  Elec       q    Type
REMARK                         _______ _______ _______ _____ _____    ______ ____
ROOT
ATOM      1  C   UNL     1     -10.054  16.406  66.608  0.00  0.00    +0.223 C 
ATOM      2  C   UNL     1      -8.465  16.305  66.195  0.00  0.00    +0.054 C 
ENDROOT
BRANCH   1   3
ATOM      3  O   UNL     1     -10.246  17.689  65.782  0.00  0.00    -0.446 OA
BRANCH   3   5
ATOM      4  C   UNL     1     -10.002  19.898  66.190  0.00  0.00    +0.121 C 
ATOM      5  C   UNL     1     -10.526  18.834  66.535  0.00  0.00    +0.318 C 
ATOM      6  O   UNL     1     -10.951  18.603  67.708  0.00  0.00    -0.250 OA
ENDBRANCH   3   5
ENDBRANCH   1   3
BRANCH   1   7
ATOM      7  C   UNL     1     -10.507  15.460  65.340  0.00  0.00    +0.153 C 
BRANCH   7   8
ATOM      8  N   UNL     1     -11.206  14.351  65.936  0.00  0.00    +0.313 N 
ATOM      9  C   UNL     1     -12.387  14.110  65.111  0.00  0.00    +0.171 C 
ATOM     10  C   UNL     1     -11.609  14.669  67.283  0.00  0.00    +0.171 C 
ATOM     11  C   UNL     1     -10.438  13.131  65.925  0.00  0.00    +0.171 C 
ENDBRANCH   7   8
ENDBRANCH   1   7
TORSDOF 4
ENDMDL
MODEL 5
REMARK VINA RESULT:      -3.7      3.352      5.130
REMARK  Name = 
REMARK  4 active torsions:
REMARK  status: ('A' for Active; 'I' for Inactive)
REMARK    1  A    between atoms: C_2  and  O_4
REMARK    2  A    between atoms: O_4  and  C_5
REMARK    3  A    between atoms: C_5  and  C_7
REMARK    4  A    between atoms: C_7  and  N_8
REMARK                            x       y       z     vdW  Elec       q    Type
REMARK                         _______ _______ _______ _____ _____    ______ ____
ROOT
ATOM      1  C   UNL     1     -10.099  17.755  67.172  0.00  0.00    +0.223 C 
ATOM      2  C   UNL     1     -10.717  19.279  67.135  0.00  0.00    +0.054 C 
ENDROOT
BRANCH   1   3
ATOM      3  O   UNL     1     -10.108  17.653  65.637  0.00  0.00    -0.446 OA
BRANCH   3   5
ATOM      4  C   UNL     1     -10.332  15.411  65.459  0.00  0.00    +0.121 C 
ATOM      5  C   UNL     1     -10.758  16.523  65.129  0.00  0.00    +0.318 C 
ATOM      6  O   UNL     1     -11.446  16.736  64.085  0.00  0.00    -0.250 OA
ENDBRANCH   3   5
ENDBRANCH   1   3
BRANCH   1   7
ATOM      7  C   UNL     1      -8.552  18.317  67.176  0.00  0.00    +0.153 C 
BRANCH   7   8
ATOM      8  N   UNL     1      -7.810  17.353  67.947  0.00  0.00    +0.313 N 
ATOM      9  C   UNL     1      -7.067  16.536  66.990  0.00  0.00    +0.171 C 
ATOM     10  C   UNL     1      -8.702  16.519  68.712  0.00  0.00    +0.171 C 
ATOM     11  C   UNL     1      -6.833  17.961  68.817  0.00  0.00    +0.171 C 
ENDBRANCH   7   8
ENDBRANCH   1   7
TORSDOF 4
ENDMDL
MODEL 6
REMARK VINA RESULT:      -3.5      4.126      5.873
REMARK  Name = 
REMARK  4 active torsions:
REMARK  status: ('A' for Active; 'I' for Inactive)
REMARK    1  A    between atoms: C_2  and  O_4
REMARK    2  A    between atoms: O_4  and  C_5
REMARK    3  A    between atoms: C_5  and  C_7
REMARK    4  A    between atoms: C_7  and  N_8
REMARK                            x       y       z     vdW  Elec       q    Type
REMARK                         _______ _______ _______ _____ _____    ______ ____
ROOT
ATOM      1  C   UNL     1     -11.954  14.548  70.341  0.00  0.00    +0.223 C 
ATOM      2  C   UNL     1     -11.229  15.891  70.955  0.00  0.00    +0.054 C 
ENDROOT
BRANCH   1   3
ATOM      3  O   UNL     1     -13.358  15.130  70.573  0.00  0.00    -0.446 OA
BRANCH   3   5
ATOM      4  C   UNL     1     -13.983  13.759  72.257  0.00  0.00    +0.121 C 
ATOM      5  C   UNL     1     -13.873  14.922  71.858  0.00  0.00    +0.318 C 
ATOM      6  O   UNL     1     -14.542  15.895  72.322  0.00  0.00    -0.250 OA
ENDBRANCH   3   5
ENDBRANCH   1   3
BRANCH   1   7
ATOM      7  C   UNL     1     -11.903  15.146  68.809  0.00  0.00    +0.153 C 
BRANCH   7   8
ATOM      8  N   UNL     1     -11.474  14.040  67.993  0.00  0.00    +0.313 N 
ATOM      9  C   UNL     1     -10.027  14.173  67.838  0.00  0.00    +0.171 C 
ATOM     10  C   UNL     1     -12.110  14.084  66.701  0.00  0.00    +0.171 C 
ATOM     11  C   UNL     1     -11.707  12.759  68.615  0.00  0.00    +0.171 C 
ENDBRANCH   7   8
ENDBRANCH   1   7
TORSDOF 4
ENDMDL
MODEL 7
REMARK VINA RESULT:      -3.5      1.311      1.985
REMARK  Name = 
REMARK  4 active torsions:
REMARK  status: ('A' for Active; 'I' for Inactive)
REMARK    1  A    between atoms: C_2  and  O_4
REMARK    2  A    between atoms: O_4  and  C_5
REMARK    3  A    between atoms: C_5  and  C_7
REMARK    4  A    between atoms: C_7  and  N_8
REMARK                            x       y       z     vdW  Elec       q    Type
REMARK                         _______ _______ _______ _____ _____    ______ ____
ROOT
ATOM      1  C   UNL     1     -10.970  13.717  66.229  0.00  0.00    +0.223 C 
ATOM      2  C   UNL     1     -11.788  12.602  65.336  0.00  0.00    +0.054 C 
ENDROOT
BRANCH   1   3
ATOM      3  O   UNL     1     -11.652  14.886  65.498  0.00  0.00    -0.446 OA
BRANCH   3   5
ATOM      4  C   UNL     1      -9.810  16.161  65.792  0.00  0.00    +0.121 C 
ATOM      5  C   UNL     1     -10.785  15.901  65.080  0.00  0.00    +0.318 C 
ATOM      6  O   UNL     1     -11.287  16.712  64.244  0.00  0.00    -0.250 OA
ENDBRANCH   3   5
ENDBRANCH   1   3
BRANCH   1   7
ATOM      7  C   UNL     1     -12.122  13.711  67.404  0.00  0.00    +0.153 C 
BRANCH   7   8
ATOM      8  N   UNL     1     -11.416  13.381  68.614  0.00  0.00    +0.313 N 
ATOM      9  C   UNL     1      -9.993  13.550  68.326  0.00  0.00    +0.171 C 
ATOM     10  C   UNL     1     -11.677  12.016  68.999  0.00  0.00    +0.171 C 
ATOM     11  C   UNL     1     -11.725  14.270  69.706  0.00  0.00    +0.171 C 
ENDBRANCH   7   8
ENDBRANCH   1   7
TORSDOF 4
ENDMDL
MODEL 8
REMARK VINA RESULT:      -3.4      2.540      4.027
REMARK  Name = 
REMARK  4 active torsions:
REMARK  status: ('A' for Active; 'I' for Inactive)
REMARK    1  A    between atoms: C_2  and  O_4
REMARK    2  A    between atoms: O_4  and  C_5
REMARK    3  A    between atoms: C_5  and  C_7
REMARK    4  A    between atoms: C_7  and  N_8
REMARK                            x       y       z     vdW  Elec       q    Type
REMARK                         _______ _______ _______ _____ _____    ______ ____
ROOT
ATOM      1  C   UNL     1     -11.895  13.691  68.048  0.00  0.00    +0.223 C 
ATOM      2  C   UNL     1     -11.553  12.235  68.735  0.00  0.00    +0.054 C 
ENDROOT
BRANCH   1   3
ATOM      3  O   UNL     1     -11.110  14.451  69.130  0.00  0.00    -0.446 OA
BRANCH   3   5
ATOM      4  C   UNL     1     -12.524  15.560  70.500  0.00  0.00    +0.121 C 
ATOM      5  C   UNL     1     -11.715  15.633  69.570  0.00  0.00    +0.318 C 
ATOM      6  O   UNL     1     -11.685  16.584  68.731  0.00  0.00    -0.250 OA
ENDBRANCH   3   5
ENDBRANCH   1   3
BRANCH   1   7
ATOM      7  C   UNL     1     -10.572  13.611  67.072  0.00  0.00    +0.153 C 
BRANCH   7   8
ATOM      8  N   UNL     1     -11.035  14.053  65.783  0.00  0.00    +0.313 N 
ATOM      9  C   UNL     1     -10.498  15.398  65.585  0.00  0.00    +0.171 C 
ATOM     10  C   UNL     1     -12.475  14.093  65.746  0.00  0.00    +0.171 C 
ATOM     11  C   UNL     1     -10.534  13.245  64.698  0.00  0.00    +0.171 C 
ENDBRANCH   7   8
ENDBRANCH   1   7
TORSDOF 4
ENDMDL
MODEL 9
REMARK VINA RESULT:      -3.4      3.190      5.180
REMARK  Name = 
REMARK  4 active torsions:
REMARK  status: ('A' for Active; 'I' for Inactive)
REMARK    1  A    between atoms: C_2  and  O_4
REMARK    2  A    between atoms: O_4  and  C_5
REMARK    3  A    between atoms: C_5  and  C_7
REMARK    4  A    between atoms: C_7  and  N_8
REMARK                            x       y       z     vdW  Elec       q    Type
REMARK                         _______ _______ _______ _____ _____    ______ ____
ROOT
ATOM      1  C   UNL     1      -9.652  16.272  67.297  0.00  0.00    +0.223 C 
ATOM      2  C   UNL     1      -9.909  15.521  68.739  0.00  0.00    +0.054 C 
ENDROOT
BRANCH   1   3
ATOM      3  O   UNL     1     -10.928  15.665  66.689  0.00  0.00    -0.446 OA
BRANCH   3   5
ATOM      4  C   UNL     1     -10.378  14.329  64.952  0.00  0.00    +0.121 C 
ATOM      5  C   UNL     1     -10.857  15.407  65.316  0.00  0.00    +0.318 C 
ATOM      6  O   UNL     1     -10.913  16.441  64.582  0.00  0.00    -0.250 OA
ENDBRANCH   3   5
ENDBRANCH   1   3
BRANCH   1   7
ATOM      7  C   UNL     1     -10.464  17.619  67.784  0.00  0.00    +0.153 C 
BRANCH   7   8
ATOM      8  N   UNL     1      -9.688  18.722  67.279  0.00  0.00    +0.313 N 
ATOM      9  C   UNL     1      -9.197  19.455  68.444  0.00  0.00    +0.171 C 
ATOM     10  C   UNL     1     -10.506  19.587  66.466  0.00  0.00    +0.171 C 
ATOM     11  C   UNL     1      -8.527  18.298  66.537  0.00  0.00    +0.171 C 
ENDBRANCH   7   8
ENDBRANCH   1   7
TORSDOF 4
ENDMDL
