MODEL 1
REMARK VINA RESULT:      -8.5      0.000      0.000
REMARK  Name = 
REMARK  7 active torsions:
REMARK  status: ('A' for Active; 'I' for Inactive)
REMARK    1  A    between atoms: C_2  and  C_3
REMARK    2  A    between atoms: N_10  and  C_11
REMARK    3  A    between atoms: C_11  and  C_12
REMARK    4  A    between atoms: C_12  and  C_13
REMARK    5  A    between atoms: C_16  and  S_17
REMARK    6  A    between atoms: S_17  and  N_20
REMARK    7  A    between atoms: N_23  and  C_24
REMARK                            x       y       z     vdW  Elec       q    Type
REMARK                         _______ _______ _______ _____ _____    ______ ____
ROOT
ATOM      1  C   UNL     1      -9.621   9.992  65.332  0.00  0.00    -0.020 A 
ATOM      2  C   UNL     1      -9.950  10.395  64.055  0.00  0.00    -0.003 A 
ATOM      3  C   UNL     1     -10.942  11.345  63.892  0.00  0.00    +0.020 A 
ATOM      4  C   UNL     1     -11.537  11.973  64.965  0.00  0.00    +0.129 A 
ATOM      5  C   UNL     1     -11.045  11.716  66.238  0.00  0.00    +0.020 A 
ATOM      6  C   UNL     1     -10.325  10.537  66.387  0.00  0.00    -0.003 A 
ENDROOT
BRANCH   4   7
ATOM      7  S   UNL     1     -12.174  13.586  64.664  0.00  0.00    +0.104 S 
ATOM      8  O   UNL     1     -13.445  13.807  65.447  0.00  0.00    -0.146 OA
ATOM      9  O   UNL     1     -12.441  13.691  63.192  0.00  0.00    -0.146 OA
BRANCH   7  10
ATOM     10  N   UNL     1     -11.043  14.791  65.151  0.00  0.00    -0.071 NA
ATOM     11  C   UNL     1     -11.026  15.988  64.686  0.00  0.00    +0.371 C 
ATOM     12  N   UNL     1     -10.274  16.953  65.422  0.00  0.00    -0.185 NA
ATOM     13  O   UNL     1     -12.113  16.370  63.899  0.00  0.00    -0.244 OA
BRANCH  12  14
ATOM     14  C   UNL     1      -9.436  16.563  66.551  0.00  0.00    +0.097 C 
ATOM     15  C   UNL     1     -10.091  17.069  67.805  0.00  0.00    +0.022 C 
ATOM     16  C   UNL     1      -9.302  18.144  68.500  0.00  0.00    +0.002 C 
ATOM     17  C   UNL     1      -8.822  19.226  67.576  0.00  0.00    +0.000 C 
ATOM     18  C   UNL     1      -9.807  20.342  67.389  0.00  0.00    +0.000 C 
ATOM     19  C   UNL     1      -8.329  18.706  66.253  0.00  0.00    +0.002 C 
ATOM     20  C   UNL     1      -8.063  17.217  66.440  0.00  0.00    +0.022 C 
ENDBRANCH  12  14
ENDBRANCH   7  10
ENDBRANCH   4   7
BRANCH   1  21
ATOM     21  C   UNL     1      -8.510   9.028  65.582  0.00  0.00    +0.050 C 
BRANCH  21  22
ATOM     22  C   UNL     1      -9.017   7.639  65.854  0.00  0.00    +0.121 C 
BRANCH  22  28
ATOM     23  C   UNL     1     -11.046   6.578  71.509  0.00  0.00    +0.026 C 
ATOM     24  C   UNL     1     -10.197   6.258  70.355  0.00  0.00    +0.252 C 
ATOM     25  O   UNL     1      -9.622   5.162  70.145  0.00  0.00    -0.270 OA
ATOM     26  N   UNL     1     -10.262   7.332  69.409  0.00  0.00    -0.206 N 
ATOM     27  C   UNL     1     -10.192   7.247  67.981  0.00  0.00    +0.329 C 
ATOM     28  N   UNL     1      -8.951   7.392  67.280  0.00  0.00    -0.188 NA
ATOM     29  O   UNL     1     -11.164   6.807  67.296  0.00  0.00    -0.250 OA
ATOM     30  C   UNL     1     -10.771   8.459  70.185  0.00  0.00    +0.125 C 
ATOM     31  C   UNL     1     -11.456   7.824  71.338  0.00  0.00    -0.023 C 
ATOM     32  C   UNL     1     -12.455   8.501  72.201  0.00  0.00    +0.028 C 
BRANCH  23  34
ATOM     33  C   UNL     1     -10.715   5.191  73.546  0.00  0.00    +0.005 C 
ATOM     34  C   UNL     1     -11.688   5.609  72.453  0.00  0.00    +0.030 C 
ENDBRANCH  23  34
ENDBRANCH  22  28
ENDBRANCH  21  22
ENDBRANCH   1  21
TORSDOF 7
ENDMDL
MODEL 2
REMARK VINA RESULT:      -8.0      3.242      5.807
REMARK  Name = 
REMARK  7 active torsions:
REMARK  status: ('A' for Active; 'I' for Inactive)
REMARK    1  A    between atoms: C_2  and  C_3
REMARK    2  A    between atoms: N_10  and  C_11
REMARK    3  A    between atoms: C_11  and  C_12
REMARK    4  A    between atoms: C_12  and  C_13
REMARK    5  A    between atoms: C_16  and  S_17
REMARK    6  A    between atoms: S_17  and  N_20
REMARK    7  A    between atoms: N_23  and  C_24
REMARK                            x       y       z     vdW  Elec       q    Type
REMARK                         _______ _______ _______ _____ _____    ______ ____
ROOT
ATOM      1  C   UNL     1     -10.148  10.183  66.929  0.00  0.00    -0.020 A 
ATOM      2  C   UNL     1     -10.069  10.359  65.565  0.00  0.00    -0.003 A 
ATOM      3  C   UNL     1     -10.914  11.275  64.962  0.00  0.00    +0.020 A 
ATOM      4  C   UNL     1     -11.756  12.084  65.693  0.00  0.00    +0.129 A 
ATOM      5  C   UNL     1     -11.670  12.049  67.079  0.00  0.00    +0.020 A 
ATOM      6  C   UNL     1     -11.094  10.908  67.625  0.00  0.00    -0.003 A 
ENDROOT
BRANCH   4   7
ATOM      7  S   UNL     1     -12.183  13.625  64.957  0.00  0.00    +0.104 S 
ATOM      8  O   UNL     1     -13.512  14.111  65.483  0.00  0.00    -0.146 OA
ATOM      9  O   UNL     1     -12.256  13.404  63.475  0.00  0.00    -0.146 OA
BRANCH   7  10
ATOM     10  N   UNL     1     -11.003  14.826  65.323  0.00  0.00    -0.071 NA
ATOM     11  C   UNL     1     -10.952  15.976  64.756  0.00  0.00    +0.371 C 
ATOM     12  N   UNL     1     -10.155  16.974  65.396  0.00  0.00    -0.185 NA
ATOM     13  O   UNL     1     -12.037  16.328  63.952  0.00  0.00    -0.244 OA
BRANCH  12  14
ATOM     14  C   UNL     1      -9.314  16.653  66.544  0.00  0.00    +0.097 C 
ATOM     15  C   UNL     1     -10.016  17.142  67.779  0.00  0.00    +0.022 C 
ATOM     16  C   UNL     1      -9.302  18.273  68.465  0.00  0.00    +0.002 C 
ATOM     17  C   UNL     1      -8.870  19.364  67.528  0.00  0.00    +0.000 C 
ATOM     18  C   UNL     1      -9.915  20.418  67.305  0.00  0.00    +0.000 C 
ATOM     19  C   UNL     1      -8.328  18.851  66.222  0.00  0.00    +0.002 C 
ATOM     20  C   UNL     1      -7.979  17.382  66.441  0.00  0.00    +0.022 C 
ENDBRANCH  12  14
ENDBRANCH   7  10
ENDBRANCH   4   7
BRANCH   1  21
ATOM     21  C   UNL     1      -9.215   9.268  67.651  0.00  0.00    +0.050 C 
BRANCH  21  22
ATOM     22  C   UNL     1      -8.393   9.994  68.679  0.00  0.00    +0.121 C 
BRANCH  22  28
ATOM     23  C   UNL     1      -5.127  15.130  68.254  0.00  0.00    +0.026 C 
ATOM     24  C   UNL     1      -5.469  13.771  67.817  0.00  0.00    +0.252 C 
ATOM     25  O   UNL     1      -4.753  13.025  67.104  0.00  0.00    -0.270 OA
ATOM     26  N   UNL     1      -6.671  13.353  68.473  0.00  0.00    -0.206 N 
ATOM     27  C   UNL     1      -7.026  12.030  68.893  0.00  0.00    +0.329 C 
ATOM     28  N   UNL     1      -7.792  11.156  68.056  0.00  0.00    -0.188 NA
ATOM     29  O   UNL     1      -6.486  11.491  69.906  0.00  0.00    -0.250 OA
ATOM     30  C   UNL     1      -7.277  14.598  68.934  0.00  0.00    +0.125 C 
ATOM     31  C   UNL     1      -6.142  15.552  68.990  0.00  0.00    -0.023 C 
ATOM     32  C   UNL     1      -6.149  16.825  69.752  0.00  0.00    +0.028 C 
BRANCH  23  34
ATOM     33  C   UNL     1      -3.564  16.626  67.030  0.00  0.00    +0.005 C 
ATOM     34  C   UNL     1      -3.768  15.760  68.264  0.00  0.00    +0.030 C 
ENDBRANCH  23  34
ENDBRANCH  22  28
ENDBRANCH  21  22
ENDBRANCH   1  21
TORSDOF 7
ENDMDL
MODEL 3
REMARK VINA RESULT:      -8.0      1.331      2.110
REMARK  Name = 
REMARK  7 active torsions:
REMARK  status: ('A' for Active; 'I' for Inactive)
REMARK    1  A    between atoms: C_2  and  C_3
REMARK    2  A    between atoms: N_10  and  C_11
REMARK    3  A    between atoms: C_11  and  C_12
REMARK    4  A    between atoms: C_12  and  C_13
REMARK    5  A    between atoms: C_16  and  S_17
REMARK    6  A    between atoms: S_17  and  N_20
REMARK    7  A    between atoms: N_23  and  C_24
REMARK                            x       y       z     vdW  Elec       q    Type
REMARK                         _______ _______ _______ _____ _____    ______ ____
ROOT
ATOM      1  C   UNL     1     -10.197  10.164  66.881  0.00  0.00    -0.020 A 
ATOM      2  C   UNL     1     -10.122  10.343  65.516  0.00  0.00    -0.003 A 
ATOM      3  C   UNL     1     -10.959  11.270  64.919  0.00  0.00    +0.020 A 
ATOM      4  C   UNL     1     -11.789  12.087  65.655  0.00  0.00    +0.129 A 
ATOM      5  C   UNL     1     -11.697  12.047  67.041  0.00  0.00    +0.020 A 
ATOM      6  C   UNL     1     -11.132  10.899  67.582  0.00  0.00    -0.003 A 
ENDROOT
BRANCH   4   7
ATOM      7  S   UNL     1     -12.201  13.635  64.926  0.00  0.00    +0.104 S 
ATOM      8  O   UNL     1     -13.551  14.104  65.411  0.00  0.00    -0.146 OA
ATOM      9  O   UNL     1     -12.220  13.433  63.439  0.00  0.00    -0.146 OA
BRANCH   7  10
ATOM     10  N   UNL     1     -11.044  14.839  65.348  0.00  0.00    -0.071 NA
ATOM     11  C   UNL     1     -10.972  15.991  64.787  0.00  0.00    +0.371 C 
ATOM     12  N   UNL     1     -10.208  16.989  65.466  0.00  0.00    -0.185 NA
ATOM     13  O   UNL     1     -12.021  16.342  63.937  0.00  0.00    -0.244 OA
BRANCH  12  14
ATOM     14  C   UNL     1      -9.418  16.668  66.650  0.00  0.00    +0.097 C 
ATOM     15  C   UNL     1     -10.137  17.224  67.846  0.00  0.00    +0.022 C 
ATOM     16  C   UNL     1      -9.395  18.343  68.523  0.00  0.00    +0.002 C 
ATOM     17  C   UNL     1      -8.887  19.386  67.569  0.00  0.00    +0.000 C 
ATOM     18  C   UNL     1      -9.877  20.476  67.283  0.00  0.00    +0.000 C 
ATOM     19  C   UNL     1      -8.327  18.810  66.297  0.00  0.00    +0.002 C 
ATOM     20  C   UNL     1      -8.050  17.336  66.569  0.00  0.00    +0.022 C 
ENDBRANCH  12  14
ENDBRANCH   7  10
ENDBRANCH   4   7
BRANCH   1  21
ATOM     21  C   UNL     1      -9.272   9.237  67.596  0.00  0.00    +0.050 C 
BRANCH  21  22
ATOM     22  C   UNL     1      -9.926   7.923  67.920  0.00  0.00    +0.121 C 
BRANCH  22  28
ATOM     23  C   UNL     1     -10.201   6.298  73.794  0.00  0.00    +0.026 C 
ATOM     24  C   UNL     1     -10.038   7.298  72.732  0.00  0.00    +0.252 C 
ATOM     25  O   UNL     1      -9.547   8.445  72.869  0.00  0.00    -0.270 OA
ATOM     26  N   UNL     1     -10.366   6.704  71.470  0.00  0.00    -0.206 N 
ATOM     27  C   UNL     1      -9.785   6.986  70.192  0.00  0.00    +0.329 C 
ATOM     28  N   UNL     1     -10.360   7.950  69.302  0.00  0.00    -0.188 NA
ATOM     29  O   UNL     1      -8.621   6.582  69.890  0.00  0.00    -0.250 OA
ATOM     30  C   UNL     1     -11.142   5.519  71.826  0.00  0.00    +0.125 C 
ATOM     31  C   UNL     1     -10.744   5.234  73.226  0.00  0.00    -0.023 C 
ATOM     32  C   UNL     1     -10.948   3.933  73.911  0.00  0.00    +0.028 C 
BRANCH  23  34
ATOM     33  C   UNL     1      -8.024   6.022  74.963  0.00  0.00    +0.005 C 
ATOM     34  C   UNL     1      -9.515   6.276  75.126  0.00  0.00    +0.030 C 
ENDBRANCH  23  34
ENDBRANCH  22  28
ENDBRANCH  21  22
ENDBRANCH   1  21
TORSDOF 7
ENDMDL
MODEL 4
REMARK VINA RESULT:      -8.0      3.191      4.522
REMARK  Name = 
REMARK  7 active torsions:
REMARK  status: ('A' for Active; 'I' for Inactive)
REMARK    1  A    between atoms: C_2  and  C_3
REMARK    2  A    between atoms: N_10  and  C_11
REMARK    3  A    between atoms: C_11  and  C_12
REMARK    4  A    between atoms: C_12  and  C_13
REMARK    5  A    between atoms: C_16  and  S_17
REMARK    6  A    between atoms: S_17  and  N_20
REMARK    7  A    between atoms: N_23  and  C_24
REMARK                            x       y       z     vdW  Elec       q    Type
REMARK                         _______ _______ _______ _____ _____    ______ ____
ROOT
ATOM      1  C   UNL     1      -9.818  10.006  65.490  0.00  0.00    -0.020 A 
ATOM      2  C   UNL     1      -9.983  10.470  64.202  0.00  0.00    -0.003 A 
ATOM      3  C   UNL     1     -10.941  11.440  63.962  0.00  0.00    +0.020 A 
ATOM      4  C   UNL     1     -11.660  12.026  64.981  0.00  0.00    +0.129 A 
ATOM      5  C   UNL     1     -11.331  11.705  66.293  0.00  0.00    +0.020 A 
ATOM      6  C   UNL     1     -10.644  10.511  66.474  0.00  0.00    -0.003 A 
ENDROOT
BRANCH   4   7
ATOM      7  S   UNL     1     -12.242  13.660  64.680  0.00  0.00    +0.104 S 
ATOM      8  O   UNL     1     -13.508  13.920  65.458  0.00  0.00    -0.146 OA
ATOM      9  O   UNL     1     -12.500  13.774  63.206  0.00  0.00    -0.146 OA
BRANCH   7  10
ATOM     10  N   UNL     1     -11.074  14.827  65.172  0.00  0.00    -0.071 NA
ATOM     11  C   UNL     1     -11.002  16.015  64.692  0.00  0.00    +0.371 C 
ATOM     12  N   UNL     1     -10.227  16.961  65.429  0.00  0.00    -0.185 NA
ATOM     13  O   UNL     1     -12.059  16.428  63.879  0.00  0.00    -0.244 OA
BRANCH  12  14
ATOM     14  C   UNL     1      -9.425  16.554  66.578  0.00  0.00    +0.097 C 
ATOM     15  C   UNL     1     -10.106  17.065  67.817  0.00  0.00    +0.022 C 
ATOM     16  C   UNL     1      -9.321  18.126  68.537  0.00  0.00    +0.002 C 
ATOM     17  C   UNL     1      -8.800  19.204  67.630  0.00  0.00    +0.000 C 
ATOM     18  C   UNL     1      -9.763  20.335  67.421  0.00  0.00    +0.000 C 
ATOM     19  C   UNL     1      -8.280  18.682  66.319  0.00  0.00    +0.002 C 
ATOM     20  C   UNL     1      -8.041  17.188  66.507  0.00  0.00    +0.022 C 
ENDBRANCH  12  14
ENDBRANCH   7  10
ENDBRANCH   4   7
BRANCH   1  21
ATOM     21  C   UNL     1      -8.754   9.016  65.830  0.00  0.00    +0.050 C 
BRANCH  21  22
ATOM     22  C   UNL     1      -8.604   8.835  67.315  0.00  0.00    +0.121 C 
BRANCH  22  28
ATOM     23  C   UNL     1      -5.835  13.337  70.362  0.00  0.00    +0.026 C 
ATOM     24  C   UNL     1      -5.973  11.928  69.973  0.00  0.00    +0.252 C 
ATOM     25  O   UNL     1      -5.460  10.947  70.566  0.00  0.00    -0.270 OA
ATOM     26  N   UNL     1      -6.929  11.823  68.912  0.00  0.00    -0.206 N 
ATOM     27  C   UNL     1      -7.845  10.751  68.661  0.00  0.00    +0.329 C 
ATOM     28  N   UNL     1      -7.516   9.674  67.776  0.00  0.00    -0.188 NA
ATOM     29  O   UNL     1      -8.875  10.578  69.381  0.00  0.00    -0.250 OA
ATOM     30  C   UNL     1      -7.015  13.178  68.375  0.00  0.00    +0.125 C 
ATOM     31  C   UNL     1      -6.534  14.037  69.485  0.00  0.00    -0.023 C 
ATOM     32  C   UNL     1      -6.785  15.496  69.589  0.00  0.00    +0.028 C 
BRANCH  23  34
ATOM     33  C   UNL     1      -3.923  14.274  71.646  0.00  0.00    +0.005 C 
ATOM     34  C   UNL     1      -5.389  13.867  71.690  0.00  0.00    +0.030 C 
ENDBRANCH  23  34
ENDBRANCH  22  28
ENDBRANCH  21  22
ENDBRANCH   1  21
TORSDOF 7
ENDMDL
MODEL 5
REMARK VINA RESULT:      -7.9      1.693      2.380
REMARK  Name = 
REMARK  7 active torsions:
REMARK  status: ('A' for Active; 'I' for Inactive)
REMARK    1  A    between atoms: C_2  and  C_3
REMARK    2  A    between atoms: N_10  and  C_11
REMARK    3  A    between atoms: C_11  and  C_12
REMARK    4  A    between atoms: C_12  and  C_13
REMARK    5  A    between atoms: C_16  and  S_17
REMARK    6  A    between atoms: S_17  and  N_20
REMARK    7  A    between atoms: N_23  and  C_24
REMARK                            x       y       z     vdW  Elec       q    Type
REMARK                         _______ _______ _______ _____ _____    ______ ____
ROOT
ATOM      1  C   UNL     1     -10.197  10.291  67.214  0.00  0.00    -0.020 A 
ATOM      2  C   UNL     1      -9.989  10.461  65.862  0.00  0.00    -0.003 A 
ATOM      3  C   UNL     1     -10.804  11.340  65.169  0.00  0.00    +0.020 A 
ATOM      4  C   UNL     1     -11.745  12.121  65.805  0.00  0.00    +0.129 A 
ATOM      5  C   UNL     1     -11.795  12.098  67.194  0.00  0.00    +0.020 A 
ATOM      6  C   UNL     1     -11.234  10.984  67.805  0.00  0.00    -0.003 A 
ENDROOT
BRANCH   4   7
ATOM      7  S   UNL     1     -12.154  13.640  65.016  0.00  0.00    +0.104 S 
ATOM      8  O   UNL     1     -13.497  14.137  65.491  0.00  0.00    -0.146 OA
ATOM      9  O   UNL     1     -12.185  13.378  63.539  0.00  0.00    -0.146 OA
BRANCH   7  10
ATOM     10  N   UNL     1     -10.986  14.853  65.380  0.00  0.00    -0.071 NA
ATOM     11  C   UNL     1     -10.938  15.998  64.800  0.00  0.00    +0.371 C 
ATOM     12  N   UNL     1     -10.155  17.008  65.437  0.00  0.00    -0.185 NA
ATOM     13  O   UNL     1     -12.016  16.332  63.981  0.00  0.00    -0.244 OA
BRANCH  12  14
ATOM     14  C   UNL     1      -9.323  16.706  66.597  0.00  0.00    +0.097 C 
ATOM     15  C   UNL     1     -10.036  17.215  67.817  0.00  0.00    +0.022 C 
ATOM     16  C   UNL     1      -9.328  18.358  68.491  0.00  0.00    +0.002 C 
ATOM     17  C   UNL     1      -8.889  19.434  67.540  0.00  0.00    +0.000 C 
ATOM     18  C   UNL     1      -9.932  20.483  67.292  0.00  0.00    +0.000 C 
ATOM     19  C   UNL     1      -8.335  18.899  66.247  0.00  0.00    +0.002 C 
ATOM     20  C   UNL     1      -7.988  17.435  66.493  0.00  0.00    +0.022 C 
ENDBRANCH  12  14
ENDBRANCH   7  10
ENDBRANCH   4   7
BRANCH   1  21
ATOM     21  C   UNL     1      -9.306   9.417  68.034  0.00  0.00    +0.050 C 
BRANCH  21  22
ATOM     22  C   UNL     1      -9.293   9.822  69.482  0.00  0.00    +0.121 C 
BRANCH  22  28
ATOM     23  C   UNL     1     -10.587   5.011  73.004  0.00  0.00    +0.026 C 
ATOM     24  C   UNL     1     -10.672   6.440  72.678  0.00  0.00    +0.252 C 
ATOM     25  O   UNL     1     -11.007   7.356  73.469  0.00  0.00    -0.270 OA
ATOM     26  N   UNL     1     -10.144   6.657  71.365  0.00  0.00    -0.206 N 
ATOM     27  C   UNL     1      -9.433   7.804  70.885  0.00  0.00    +0.329 C 
ATOM     28  N   UNL     1     -10.107   8.886  70.231  0.00  0.00    -0.188 NA
ATOM     29  O   UNL     1      -8.231   8.026  71.222  0.00  0.00    -0.250 OA
ATOM     30  C   UNL     1     -10.169   5.334  70.748  0.00  0.00    +0.125 C 
ATOM     31  C   UNL     1     -10.190   4.399  71.900  0.00  0.00    -0.023 C 
ATOM     32  C   UNL     1      -9.835   2.960  71.823  0.00  0.00    +0.028 C 
BRANCH  23  34
ATOM     33  C   UNL     1      -9.318   4.923  75.140  0.00  0.00    +0.005 C 
ATOM     34  C   UNL     1     -10.520   4.398  74.369  0.00  0.00    +0.030 C 
ENDBRANCH  23  34
ENDBRANCH  22  28
ENDBRANCH  21  22
ENDBRANCH   1  21
TORSDOF 7
ENDMDL
MODEL 6
REMARK VINA RESULT:      -7.9      1.279      1.889
REMARK  Name = 
REMARK  7 active torsions:
REMARK  status: ('A' for Active; 'I' for Inactive)
REMARK    1  A    between atoms: C_2  and  C_3
REMARK    2  A    between atoms: N_10  and  C_11
REMARK    3  A    between atoms: C_11  and  C_12
REMARK    4  A    between atoms: C_12  and  C_13
REMARK    5  A    between atoms: C_16  and  S_17
REMARK    6  A    between atoms: S_17  and  N_20
REMARK    7  A    between atoms: N_23  and  C_24
REMARK                            x       y       z     vdW  Elec       q    Type
REMARK                         _______ _______ _______ _____ _____    ______ ____
ROOT
ATOM      1  C   UNL     1      -9.906  10.056  65.672  0.00  0.00    -0.020 A 
ATOM      2  C   UNL     1     -10.103  10.447  64.365  0.00  0.00    -0.003 A 
ATOM      3  C   UNL     1     -11.041  11.429  64.098  0.00  0.00    +0.020 A 
ATOM      4  C   UNL     1     -11.707  12.097  65.103  0.00  0.00    +0.129 A 
ATOM      5  C   UNL     1     -11.341  11.845  66.420  0.00  0.00    +0.020 A 
ATOM      6  C   UNL     1     -10.682  10.644  66.650  0.00  0.00    -0.003 A 
ENDROOT
BRANCH   4   7
ATOM      7  S   UNL     1     -12.254  13.726  64.723  0.00  0.00    +0.104 S 
ATOM      8  O   UNL     1     -13.536  14.037  65.454  0.00  0.00    -0.146 OA
ATOM      9  O   UNL     1     -12.469  13.787  63.239  0.00  0.00    -0.146 OA
BRANCH   7  10
ATOM     10  N   UNL     1     -11.080  14.893  65.202  0.00  0.00    -0.071 NA
ATOM     11  C   UNL     1     -11.003  16.076  64.708  0.00  0.00    +0.371 C 
ATOM     12  N   UNL     1     -10.223  17.026  65.434  0.00  0.00    -0.185 NA
ATOM     13  O   UNL     1     -12.057  16.485  63.890  0.00  0.00    -0.244 OA
BRANCH  12  14
ATOM     14  C   UNL     1      -9.424  16.629  66.588  0.00  0.00    +0.097 C 
ATOM     15  C   UNL     1     -10.111  17.144  67.822  0.00  0.00    +0.022 C 
ATOM     16  C   UNL     1      -9.332  18.212  68.539  0.00  0.00    +0.002 C 
ATOM     17  C   UNL     1      -8.812  19.287  67.627  0.00  0.00    +0.000 C 
ATOM     18  C   UNL     1      -9.779  20.413  67.409  0.00  0.00    +0.000 C 
ATOM     19  C   UNL     1      -8.286  18.760  66.321  0.00  0.00    +0.002 C 
ATOM     20  C   UNL     1      -8.041  17.268  66.518  0.00  0.00    +0.022 C 
ENDBRANCH  12  14
ENDBRANCH   7  10
ENDBRANCH   4   7
BRANCH   1  21
ATOM     21  C   UNL     1      -8.859   9.057  66.036  0.00  0.00    +0.050 C 
BRANCH  21  22
ATOM     22  C   UNL     1      -8.603   9.019  67.517  0.00  0.00    +0.121 C 
BRANCH  22  28
ATOM     23  C   UNL     1     -10.312   4.850  71.632  0.00  0.00    +0.026 C 
ATOM     24  C   UNL     1     -10.595   5.973  70.729  0.00  0.00    +0.252 C 
ATOM     25  O   UNL     1     -11.605   6.717  70.774  0.00  0.00    -0.270 OA
ATOM     26  N   UNL     1      -9.455   6.206  69.894  0.00  0.00    -0.206 N 
ATOM     27  C   UNL     1      -8.984   7.458  69.382  0.00  0.00    +0.329 C 
ATOM     28  N   UNL     1      -9.381   7.939  68.093  0.00  0.00    -0.188 NA
ATOM     29  O   UNL     1      -8.398   8.299  70.129  0.00  0.00    -0.250 OA
ATOM     30  C   UNL     1      -8.691   4.964  69.980  0.00  0.00    +0.125 C 
ATOM     31  C   UNL     1      -9.151   4.345  71.248  0.00  0.00    -0.023 C 
ATOM     32  C   UNL     1      -8.419   3.282  71.980  0.00  0.00    +0.028 C 
BRANCH  23  34
ATOM     33  C   UNL     1     -10.486   5.612  73.992  0.00  0.00    +0.005 C 
ATOM     34  C   UNL     1     -10.939   4.584  72.965  0.00  0.00    +0.030 C 
ENDBRANCH  23  34
ENDBRANCH  22  28
ENDBRANCH  21  22
ENDBRANCH   1  21
TORSDOF 7
ENDMDL
MODEL 7
REMARK VINA RESULT:      -7.8      1.298      1.469
REMARK  Name = 
REMARK  7 active torsions:
REMARK  status: ('A' for Active; 'I' for Inactive)
REMARK    1  A    between atoms: C_2  and  C_3
REMARK    2  A    between atoms: N_10  and  C_11
REMARK    3  A    between atoms: C_11  and  C_12
REMARK    4  A    between atoms: C_12  and  C_13
REMARK    5  A    between atoms: C_16  and  S_17
REMARK    6  A    between atoms: S_17  and  N_20
REMARK    7  A    between atoms: N_23  and  C_24
REMARK                            x       y       z     vdW  Elec       q    Type
REMARK                         _______ _______ _______ _____ _____    ______ ____
ROOT
ATOM      1  C   UNL     1     -10.012  10.051  66.142  0.00  0.00    -0.020 A 
ATOM      2  C   UNL     1     -10.071  10.389  64.806  0.00  0.00    -0.003 A 
ATOM      3  C   UNL     1     -10.975  11.358  64.404  0.00  0.00    +0.020 A 
ATOM      4  C   UNL     1     -11.741  12.062  65.307  0.00  0.00    +0.129 A 
ATOM      5  C   UNL     1     -11.515  11.864  66.664  0.00  0.00    +0.020 A 
ATOM      6  C   UNL     1     -10.885  10.675  67.009  0.00  0.00    -0.003 A 
ENDROOT
BRANCH   4   7
ATOM      7  S   UNL     1     -12.243  13.674  64.808  0.00  0.00    +0.104 S 
ATOM      8  O   UNL     1     -13.548  14.048  65.466  0.00  0.00    -0.146 OA
ATOM      9  O   UNL     1     -12.398  13.647  63.316  0.00  0.00    -0.146 OA
BRANCH   7  10
ATOM     10  N   UNL     1     -11.069  14.850  65.263  0.00  0.00    -0.071 NA
ATOM     11  C   UNL     1     -10.973  16.012  64.726  0.00  0.00    +0.371 C 
ATOM     12  N   UNL     1     -10.199  16.983  65.430  0.00  0.00    -0.185 NA
ATOM     13  O   UNL     1     -12.009  16.397  63.875  0.00  0.00    -0.244 OA
BRANCH  12  14
ATOM     14  C   UNL     1      -9.423  16.625  66.613  0.00  0.00    +0.097 C 
ATOM     15  C   UNL     1     -10.147  17.160  67.816  0.00  0.00    +0.022 C 
ATOM     16  C   UNL     1      -9.401  18.255  68.525  0.00  0.00    +0.002 C 
ATOM     17  C   UNL     1      -8.872  19.315  67.601  0.00  0.00    +0.000 C 
ATOM     18  C   UNL     1      -9.848  20.422  67.332  0.00  0.00    +0.000 C 
ATOM     19  C   UNL     1      -8.306  18.764  66.321  0.00  0.00    +0.002 C 
ATOM     20  C   UNL     1      -8.048  17.280  66.561  0.00  0.00    +0.022 C 
ENDBRANCH  12  14
ENDBRANCH   7  10
ENDBRANCH   4   7
BRANCH   1  21
ATOM     21  C   UNL     1      -9.009   9.070  66.652  0.00  0.00    +0.050 C 
BRANCH  21  22
ATOM     22  C   UNL     1      -9.595   7.696  66.816  0.00  0.00    +0.121 C 
BRANCH  22  28
ATOM     23  C   UNL     1      -8.725   5.998  72.612  0.00  0.00    +0.026 C 
ATOM     24  C   UNL     1      -8.859   5.702  71.180  0.00  0.00    +0.252 C 
ATOM     25  O   UNL     1      -9.098   4.576  70.681  0.00  0.00    -0.270 OA
ATOM     26  N   UNL     1      -8.849   6.929  70.442  0.00  0.00    -0.206 N 
ATOM     27  C   UNL     1      -9.556   7.231  69.233  0.00  0.00    +0.329 C 
ATOM     28  N   UNL     1      -8.955   7.052  67.946  0.00  0.00    -0.188 NA
ATOM     29  O   UNL     1     -10.808   7.437  69.234  0.00  0.00    -0.250 OA
ATOM     30  C   UNL     1      -8.264   7.896  71.366  0.00  0.00    +0.125 C 
ATOM     31  C   UNL     1      -8.487   7.296  72.705  0.00  0.00    -0.023 C 
ATOM     32  C   UNL     1      -8.428   8.046  73.984  0.00  0.00    +0.028 C 
BRANCH  23  34
ATOM     33  C   UNL     1     -10.707   5.076  73.796  0.00  0.00    +0.005 C 
ATOM     34  C   UNL     1      -9.188   5.150  73.756  0.00  0.00    +0.030 C 
ENDBRANCH  23  34
ENDBRANCH  22  28
ENDBRANCH  21  22
ENDBRANCH   1  21
TORSDOF 7
ENDMDL
MODEL 8
REMARK VINA RESULT:      -7.6      1.756      2.817
REMARK  Name = 
REMARK  7 active torsions:
REMARK  status: ('A' for Active; 'I' for Inactive)
REMARK    1  A    between atoms: C_2  and  C_3
REMARK    2  A    between atoms: N_10  and  C_11
REMARK    3  A    between atoms: C_11  and  C_12
REMARK    4  A    between atoms: C_12  and  C_13
REMARK    5  A    between atoms: C_16  and  S_17
REMARK    6  A    between atoms: S_17  and  N_20
REMARK    7  A    between atoms: N_23  and  C_24
REMARK                            x       y       z     vdW  Elec       q    Type
REMARK                         _______ _______ _______ _____ _____    ______ ____
ROOT
ATOM      1  C   UNL     1     -10.834  10.739  68.415  0.00  0.00    -0.020 A 
ATOM      2  C   UNL     1     -10.582  10.425  67.096  0.00  0.00    -0.003 A 
ATOM      3  C   UNL     1     -11.128  11.223  66.106  0.00  0.00    +0.020 A 
ATOM      4  C   UNL     1     -11.828  12.374  66.398  0.00  0.00    +0.129 A 
ATOM      5  C   UNL     1     -11.889  12.794  67.721  0.00  0.00    +0.020 A 
ATOM      6  C   UNL     1     -11.650  11.819  68.681  0.00  0.00    -0.003 A 
ENDROOT
BRANCH   4   7
ATOM      7  S   UNL     1     -11.811  13.626  65.161  0.00  0.00    +0.104 S 
ATOM      8  O   UNL     1     -13.186  14.227  64.999  0.00  0.00    -0.146 OA
ATOM      9  O   UNL     1     -11.368  12.980  63.882  0.00  0.00    -0.146 OA
BRANCH   7  10
ATOM     10  N   UNL     1     -10.730  14.897  65.592  0.00  0.00    -0.071 NA
ATOM     11  C   UNL     1     -10.655  16.016  64.966  0.00  0.00    +0.371 C 
ATOM     12  N   UNL     1      -9.980  17.082  65.635  0.00  0.00    -0.185 NA
ATOM     13  O   UNL     1     -11.647  16.274  64.019  0.00  0.00    -0.244 OA
BRANCH  12  14
ATOM     14  C   UNL     1      -9.272  16.863  66.892  0.00  0.00    +0.097 C 
ATOM     15  C   UNL     1     -10.090  17.479  67.992  0.00  0.00    +0.022 C 
ATOM     16  C   UNL     1      -9.426  18.662  68.641  0.00  0.00    +0.002 C 
ATOM     17  C   UNL     1      -8.872  19.651  67.656  0.00  0.00    +0.000 C 
ATOM     18  C   UNL     1      -9.863  20.692  67.223  0.00  0.00    +0.000 C 
ATOM     19  C   UNL     1      -8.207  19.006  66.470  0.00  0.00    +0.002 C 
ATOM     20  C   UNL     1      -7.918  17.562  66.864  0.00  0.00    +0.022 C 
ENDBRANCH  12  14
ENDBRANCH   7  10
ENDBRANCH   4   7
BRANCH   1  21
ATOM     21  C   UNL     1     -10.215   9.965  69.531  0.00  0.00    +0.050 C 
BRANCH  21  22
ATOM     22  C   UNL     1     -11.127   8.887  70.046  0.00  0.00    +0.121 C 
BRANCH  22  28
ATOM     23  C   UNL     1      -9.485   3.381  72.102  0.00  0.00    +0.026 C 
ATOM     24  C   UNL     1      -9.207   4.637  71.394  0.00  0.00    +0.252 C 
ATOM     25  O   UNL     1      -8.261   4.837  70.593  0.00  0.00    -0.270 OA
ATOM     26  N   UNL     1     -10.284   5.554  71.618  0.00  0.00    -0.206 N 
ATOM     27  C   UNL     1     -10.798   6.541  70.716  0.00  0.00    +0.329 C 
ATOM     28  N   UNL     1     -10.326   7.894  70.735  0.00  0.00    -0.188 NA
ATOM     29  O   UNL     1     -11.505   6.217  69.714  0.00  0.00    -0.250 OA
ATOM     30  C   UNL     1     -10.961   5.025  72.799  0.00  0.00    +0.125 C 
ATOM     31  C   UNL     1     -10.569   3.595  72.829  0.00  0.00    -0.023 C 
ATOM     32  C   UNL     1     -11.283   2.542  73.593  0.00  0.00    +0.028 C 
BRANCH  23  34
ATOM     33  C   UNL     1      -9.488   1.552  70.419  0.00  0.00    +0.005 C 
ATOM     34  C   UNL     1      -8.959   2.020  71.766  0.00  0.00    +0.030 C 
ENDBRANCH  23  34
ENDBRANCH  22  28
ENDBRANCH  21  22
ENDBRANCH   1  21
TORSDOF 7
ENDMDL
MODEL 9
REMARK VINA RESULT:      -7.5      1.541      2.119
REMARK  Name = 
REMARK  7 active torsions:
REMARK  status: ('A' for Active; 'I' for Inactive)
REMARK    1  A    between atoms: C_2  and  C_3
REMARK    2  A    between atoms: N_10  and  C_11
REMARK    3  A    between atoms: C_11  and  C_12
REMARK    4  A    between atoms: C_12  and  C_13
REMARK    5  A    between atoms: C_16  and  S_17
REMARK    6  A    between atoms: S_17  and  N_20
REMARK    7  A    between atoms: N_23  and  C_24
REMARK                            x       y       z     vdW  Elec       q    Type
REMARK                         _______ _______ _______ _____ _____    ______ ____
ROOT
ATOM      1  C   UNL     1      -8.676  10.328  65.608  0.00  0.00    -0.020 A 
ATOM      2  C   UNL     1      -8.313  11.365  66.441  0.00  0.00    -0.003 A 
ATOM      3  C   UNL     1      -9.121  12.487  66.499  0.00  0.00    +0.020 A 
ATOM      4  C   UNL     1     -10.325  12.556  65.832  0.00  0.00    +0.129 A 
ATOM      5  C   UNL     1     -10.782  11.421  65.172  0.00  0.00    +0.020 A 
ATOM      6  C   UNL     1      -9.818  10.476  64.846  0.00  0.00    -0.003 A 
ENDROOT
BRANCH   4   7
ATOM      7  S   UNL     1     -11.542  13.616  66.535  0.00  0.00    +0.104 S 
ATOM      8  O   UNL     1     -11.980  13.097  67.882  0.00  0.00    -0.146 OA
ATOM      9  O   UNL     1     -12.702  13.651  65.584  0.00  0.00    -0.146 OA
BRANCH   7  10
ATOM     10  N   UNL     1     -10.912  15.204  66.763  0.00  0.00    -0.071 NA
ATOM     11  C   UNL     1     -10.294  15.867  65.854  0.00  0.00    +0.371 C 
ATOM     12  N   UNL     1     -10.143  17.270  66.073  0.00  0.00    -0.185 NA
ATOM     13  O   UNL     1     -10.323  15.339  64.563  0.00  0.00    -0.244 OA
BRANCH  12  14
ATOM     14  C   UNL     1     -10.527  17.887  67.338  0.00  0.00    +0.097 C 
ATOM     15  C   UNL     1     -10.688  19.362  67.099  0.00  0.00    +0.022 C 
ATOM     16  C   UNL     1      -9.663  20.200  67.812  0.00  0.00    +0.002 C 
ATOM     17  C   UNL     1      -8.258  19.697  67.644  0.00  0.00    +0.000 C 
ATOM     18  C   UNL     1      -7.566  20.237  66.426  0.00  0.00    +0.000 C 
ATOM     19  C   UNL     1      -8.146  18.199  67.714  0.00  0.00    +0.002 C 
ATOM     20  C   UNL     1      -9.425  17.696  68.374  0.00  0.00    +0.022 C 
ENDBRANCH  12  14
ENDBRANCH   7  10
ENDBRANCH   4   7
BRANCH   1  21
ATOM     21  C   UNL     1      -7.890   9.061  65.554  0.00  0.00    +0.050 C 
BRANCH  21  22
ATOM     22  C   UNL     1      -8.671   7.887  66.076  0.00  0.00    +0.121 C 
BRANCH  22  28
ATOM     23  C   UNL     1     -11.694   8.937  71.271  0.00  0.00    +0.026 C 
ATOM     24  C   UNL     1     -10.789   8.138  70.436  0.00  0.00    +0.252 C 
ATOM     25  O   UNL     1     -10.470   6.940  70.635  0.00  0.00    -0.270 OA
ATOM     26  N   UNL     1     -10.456   8.879  69.257  0.00  0.00    -0.206 N 
ATOM     27  C   UNL     1     -10.202   8.368  67.943  0.00  0.00    +0.329 C 
ATOM     28  N   UNL     1      -8.874   8.063  67.500  0.00  0.00    -0.188 NA
ATOM     29  O   UNL     1     -11.141   7.940  67.207  0.00  0.00    -0.250 OA
ATOM     30  C   UNL     1     -10.787  10.259  69.599  0.00  0.00    +0.125 C 
ATOM     31  C   UNL     1     -11.764  10.132  70.708  0.00  0.00    -0.023 C 
ATOM     32  C   UNL     1     -12.686  11.210  71.146  0.00  0.00    +0.028 C 
BRANCH  23  34
ATOM     33  C   UNL     1     -13.827   7.700  71.589  0.00  0.00    +0.005 C 
ATOM     34  C   UNL     1     -12.681   8.428  72.275  0.00  0.00    +0.030 C 
ENDBRANCH  23  34
ENDBRANCH  22  28
ENDBRANCH  21  22
ENDBRANCH   1  21
TORSDOF 7
ENDMDL
