MODEL 1
REMARK VINA RESULT:      -3.9      0.000      0.000
REMARK  Name = 
REMARK  0 active torsions:
REMARK  status: ('A' for Active; 'I' for Inactive)
REMARK                            x       y       z     vdW  Elec       q    Type
REMARK                         _______ _______ _______ _____ _____    ______ ____
ROOT
ATOM      1  O   UNL     1     -14.293  13.088  72.598  0.00  0.00    -0.287 OA
ATOM      2  C   UNL     1     -13.719  14.327  72.293  0.00  0.00    +0.196 A 
ATOM      3  C   UNL     1     -12.897  14.827  73.297  0.00  0.00    +0.042 A 
ATOM      4  C   UNL     1     -12.315  16.061  73.051  0.00  0.00    +0.003 A 
ATOM      5  C   UNL     1     -11.762  16.213  71.786  0.00  0.00    +0.000 A 
ATOM      6  C   UNL     1     -12.522  15.668  70.756  0.00  0.00    +0.003 A 
ATOM      7  C   UNL     1     -13.233  14.509  71.004  0.00  0.00    +0.042 A 
ENDROOT
TORSDOF 0
ENDMDL
MODEL 2
REMARK VINA RESULT:      -3.9      1.856      2.436
REMARK  Name = 
REMARK  0 active torsions:
REMARK  status: ('A' for Active; 'I' for Inactive)
REMARK                            x       y       z     vdW  Elec       q    Type
REMARK                         _______ _______ _______ _____ _____    ______ ____
ROOT
ATOM      1  O   UNL     1     -12.620  16.304  74.613  0.00  0.00    -0.287 OA
ATOM      2  C   UNL     1     -12.783  15.556  73.441  0.00  0.00    +0.196 A 
ATOM      3  C   UNL     1     -13.991  15.788  72.791  0.00  0.00    +0.042 A 
ATOM      4  C   UNL     1     -14.209  15.060  71.631  0.00  0.00    +0.003 A 
ATOM      5  C   UNL     1     -13.134  15.008  70.754  0.00  0.00    +0.000 A 
ATOM      6  C   UNL     1     -11.897  14.843  71.367  0.00  0.00    +0.003 A 
ATOM      7  C   UNL     1     -11.686  15.439  72.596  0.00  0.00    +0.042 A 
ENDROOT
TORSDOF 0
ENDMDL
MODEL 3
REMARK VINA RESULT:      -3.8      1.619      2.405
REMARK  Name = 
REMARK  0 active torsions:
REMARK  status: ('A' for Active; 'I' for Inactive)
REMARK                            x       y       z     vdW  Elec       q    Type
REMARK                         _______ _______ _______ _____ _____    ______ ____
ROOT
ATOM      1  O   UNL     1     -12.742  16.208  74.383  0.00  0.00    -0.287 OA
ATOM      2  C   UNL     1     -12.912  15.722  73.082  0.00  0.00    +0.196 A 
ATOM      3  C   UNL     1     -11.965  16.194  72.179  0.00  0.00    +0.042 A 
ATOM      4  C   UNL     1     -12.098  15.755  70.870  0.00  0.00    +0.003 A 
ATOM      5  C   UNL     1     -12.342  14.396  70.724  0.00  0.00    +0.000 A 
ATOM      6  C   UNL     1     -13.235  13.867  71.650  0.00  0.00    +0.003 A 
ATOM      7  C   UNL     1     -13.231  14.378  72.934  0.00  0.00    +0.042 A 
ENDROOT
TORSDOF 0
ENDMDL
MODEL 4
REMARK VINA RESULT:      -3.8      1.891      2.575
REMARK  Name = 
REMARK  0 active torsions:
REMARK  status: ('A' for Active; 'I' for Inactive)
REMARK                            x       y       z     vdW  Elec       q    Type
REMARK                         _______ _______ _______ _____ _____    ______ ____
ROOT
ATOM      1  O   UNL     1     -12.233  16.110  69.430  0.00  0.00    -0.287 OA
ATOM      2  C   UNL     1     -12.452  15.532  70.686  0.00  0.00    +0.196 A 
ATOM      3  C   UNL     1     -11.775  16.168  71.721  0.00  0.00    +0.042 A 
ATOM      4  C   UNL     1     -11.945  15.625  72.986  0.00  0.00    +0.003 A 
ATOM      5  C   UNL     1     -13.254  15.307  73.322  0.00  0.00    +0.000 A 
ATOM      6  C   UNL     1     -13.990  14.728  72.293  0.00  0.00    +0.003 A 
ATOM      7  C   UNL     1     -13.749  15.143  70.997  0.00  0.00    +0.042 A 
ENDROOT
TORSDOF 0
ENDMDL
MODEL 5
REMARK VINA RESULT:      -3.7      1.727      2.731
REMARK  Name = 
REMARK  0 active torsions:
REMARK  status: ('A' for Active; 'I' for Inactive)
REMARK                            x       y       z     vdW  Elec       q    Type
REMARK                         _______ _______ _______ _____ _____    ______ ____
ROOT
ATOM      1  O   UNL     1     -12.168  15.541  69.403  0.00  0.00    -0.287 OA
ATOM      2  C   UNL     1     -12.626  15.571  70.725  0.00  0.00    +0.196 A 
ATOM      3  C   UNL     1     -13.235  14.390  71.135  0.00  0.00    +0.042 A 
ATOM      4  C   UNL     1     -13.722  14.373  72.434  0.00  0.00    +0.003 A 
ATOM      5  C   UNL     1     -12.863  14.890  73.394  0.00  0.00    +0.000 A 
ATOM      6  C   UNL     1     -12.181  16.037  73.001  0.00  0.00    +0.003 A 
ATOM      7  C   UNL     1     -11.801  16.156  71.678  0.00  0.00    +0.042 A 
ENDROOT
TORSDOF 0
ENDMDL
MODEL 6
REMARK VINA RESULT:      -3.5      6.516      7.294
REMARK  Name = 
REMARK  0 active torsions:
REMARK  status: ('A' for Active; 'I' for Inactive)
REMARK                            x       y       z     vdW  Elec       q    Type
REMARK                         _______ _______ _______ _____ _____    ______ ____
ROOT
ATOM      1  O   UNL     1     -11.260  16.710  64.222  0.00  0.00    -0.287 OA
ATOM      2  C   UNL     1     -11.254  15.435  64.800  0.00  0.00    +0.196 A 
ATOM      3  C   UNL     1     -10.885  15.429  66.141  0.00  0.00    +0.042 A 
ATOM      4  C   UNL     1     -10.847  14.188  66.758  0.00  0.00    +0.003 A 
ATOM      5  C   UNL     1     -11.937  13.367  66.502  0.00  0.00    +0.000 A 
ATOM      6  C   UNL     1     -12.382  13.392  65.185  0.00  0.00    +0.003 A 
ATOM      7  C   UNL     1     -12.305  14.583  64.487  0.00  0.00    +0.042 A 
ENDROOT
TORSDOF 0
ENDMDL
MODEL 7
REMARK VINA RESULT:      -3.5      6.292      7.236
REMARK  Name = 
REMARK  0 active torsions:
REMARK  status: ('A' for Active; 'I' for Inactive)
REMARK                            x       y       z     vdW  Elec       q    Type
REMARK                         _______ _______ _______ _____ _____    ______ ____
ROOT
ATOM      1  O   UNL     1     -10.735  17.313  65.132  0.00  0.00    -0.287 OA
ATOM      2  C   UNL     1     -10.196  18.078  66.172  0.00  0.00    +0.196 A 
ATOM      3  C   UNL     1     -10.443  19.442  66.052  0.00  0.00    +0.042 A 
ATOM      4  C   UNL     1      -9.915  20.248  67.050  0.00  0.00    +0.003 A 
ATOM      5  C   UNL     1     -10.104  19.786  68.345  0.00  0.00    +0.000 A 
ATOM      6  C   UNL     1      -9.932  18.414  68.499  0.00  0.00    +0.003 A 
ATOM      7  C   UNL     1     -10.316  17.582  67.464  0.00  0.00    +0.042 A 
ENDROOT
TORSDOF 0
ENDMDL
MODEL 8
REMARK VINA RESULT:      -3.5      7.121      8.250
REMARK  Name = 
REMARK  0 active torsions:
REMARK  status: ('A' for Active; 'I' for Inactive)
REMARK                            x       y       z     vdW  Elec       q    Type
REMARK                         _______ _______ _______ _____ _____    ______ ____
ROOT
ATOM      1  O   UNL     1     -13.232  14.014  65.183  0.00  0.00    -0.287 OA
ATOM      2  C   UNL     1     -12.496  12.833  65.035  0.00  0.00    +0.196 A 
ATOM      3  C   UNL     1     -11.928  12.680  63.774  0.00  0.00    +0.042 A 
ATOM      4  C   UNL     1     -11.201  11.517  63.570  0.00  0.00    +0.003 A 
ATOM      5  C   UNL     1     -10.324  11.180  64.592  0.00  0.00    +0.000 A 
ATOM      6  C   UNL     1     -10.828  11.380  65.873  0.00  0.00    +0.003 A 
ATOM      7  C   UNL     1     -11.674  12.452  66.089  0.00  0.00    +0.042 A 
ENDROOT
TORSDOF 0
ENDMDL
MODEL 9
REMARK VINA RESULT:      -3.5      7.244      8.190
REMARK  Name = 
REMARK  0 active torsions:
REMARK  status: ('A' for Active; 'I' for Inactive)
REMARK                            x       y       z     vdW  Elec       q    Type
REMARK                         _______ _______ _______ _____ _____    ______ ____
ROOT
ATOM      1  O   UNL     1     -13.255  13.943  65.166  0.00  0.00    -0.287 OA
ATOM      2  C   UNL     1     -12.108  13.189  64.893  0.00  0.00    +0.196 A 
ATOM      3  C   UNL     1     -11.761  12.308  65.912  0.00  0.00    +0.042 A 
ATOM      4  C   UNL     1     -10.621  11.547  65.698  0.00  0.00    +0.003 A 
ATOM      5  C   UNL     1     -10.523  10.970  64.439  0.00  0.00    +0.000 A 
ATOM      6  C   UNL     1     -10.924  11.795  63.394  0.00  0.00    +0.003 A 
ATOM      7  C   UNL     1     -11.969  12.672  63.611  0.00  0.00    +0.042 A 
ENDROOT
TORSDOF 0
ENDMDL
