MODEL 1
REMARK VINA RESULT:      -8.5      0.000      0.000
REMARK  Name = 
REMARK  4 active torsions:
REMARK  status: ('A' for Active; 'I' for Inactive)
REMARK    1  A    between atoms: C_23  and  O_24
REMARK    2  A    between atoms: C_26  and  C_27
REMARK    3  A    between atoms: C_27  and  C_28
REMARK    4  A    between atoms: C_28  and  C_30
REMARK                            x       y       z     vdW  Elec       q    Type
REMARK                         _______ _______ _______ _____ _____    ______ ____
ROOT
ATOM      1  C   UNL     1      -2.601  15.478  66.874  0.00  0.00    -0.007 C 
ATOM      2  C   UNL     1      -2.820  15.955  67.634  0.00  0.00    -0.015 C 
ATOM      3  C   UNL     1      -3.791  15.535  68.871  0.00  0.00    +0.134 C 
ATOM      4  O   UNL     1      -4.923  15.341  67.906  0.00  0.00    -0.354 OA
ATOM      5  C   UNL     1      -4.975  16.682  67.223  0.00  0.00    +0.120 C 
ATOM      6  C   UNL     1      -5.771  17.363  68.500  0.00  0.00    +0.035 C 
ATOM      7  C   UNL     1      -6.208  18.677  67.905  0.00  0.00    +0.059 C 
ATOM      8  C   UNL     1      -7.668  18.893  67.859  0.00  0.00    +0.190 C 
ATOM      9  O   UNL     1      -7.985  20.197  67.964  0.00  0.00    -0.332 OA
ATOM     10  C   UNL     1      -9.469  20.270  67.692  0.00  0.00    +0.174 C 
ATOM     11  C   UNL     1      -9.376  19.655  66.125  0.00  0.00    +0.150 C 
ATOM     12  O   UNL     1     -10.550  18.807  66.403  0.00  0.00    -0.351 OA
ATOM     13  C   UNL     1     -10.634  18.109  67.758  0.00  0.00    +0.174 C 
ATOM     14  C   UNL     1      -8.964  17.290  67.557  0.00  0.00    +0.176 C 
ATOM     15  C   UNL     1      -9.520  15.805  67.960  0.00  0.00    +0.172 C 
ATOM     16  C   UNL     1     -10.560  16.867  67.049  0.00  0.00    +0.145 C 
ATOM     17  C   UNL     1     -10.320  15.905  65.852  0.00  0.00    +0.035 C 
ATOM     18  C   UNL     1     -10.878  14.959  66.835  0.00  0.00    +0.033 C 
ATOM     19  C   UNL     1     -11.622  15.486  68.200  0.00  0.00    +0.123 C 
ATOM     20  C   UNL     1     -11.363  14.037  68.939  0.00  0.00    +0.094 C 
ATOM     21  C   UNL     1     -11.131  13.023  67.920  0.00  0.00    +0.153 C 
ATOM     22  C   UNL     1      -9.770  12.593  67.434  0.00  0.00    +0.070 C 
ATOM     23  C   UNL     1      -9.767  10.995  67.535  0.00  0.00    +0.064 C 
ATOM     24  C   UNL     1      -8.208  10.826  68.153  0.00  0.00    +0.121 C 
ATOM     25  C   UNL     1      -7.574  10.359  66.719  0.00  0.00    +0.063 C 
ATOM     26  C   UNL     1      -6.144  11.179  66.655  0.00  0.00    +0.136 C 
ATOM     27  C   UNL     1      -5.237   9.911  67.061  0.00  0.00    -0.018 C 
ATOM     28  C   UNL     1      -5.706   8.920  67.700  0.00  0.00    -0.007 C 
ATOM     29  C   UNL     1      -3.829  10.432  67.664  0.00  0.00    +0.023 C 
ATOM     30  C   UNL     1      -4.332  10.575  69.225  0.00  0.00    +0.005 C 
ATOM     31  C   UNL     1      -3.901  11.969  67.192  0.00  0.00    +0.034 C 
ATOM     32  C   UNL     1      -5.214  12.801  67.633  0.00  0.00    +0.116 C 
ATOM     33  C   UNL     1      -4.612  13.165  69.132  0.00  0.00    +0.032 C 
ATOM     34  O   UNL     1      -6.096  11.654  68.105  0.00  0.00    -0.355 OA
ATOM     35  O   UNL     1      -8.698   9.424  68.405  0.00  0.00    -0.356 OA
ATOM     36  C   UNL     1      -9.342   9.778  69.708  0.00  0.00    +0.145 C 
ATOM     37  C   UNL     1     -10.321  11.053  69.118  0.00  0.00    +0.145 C 
ATOM     38  O   UNL     1     -12.043  12.837  67.111  0.00  0.00    -0.296 OA
ATOM     39  O   UNL     1      -9.367  17.859  66.957  0.00  0.00    -0.351 OA
ATOM     40  O   UNL     1     -10.494  16.114  69.056  0.00  0.00    -0.353 OA
ATOM     41  C   UNL     1      -9.416  18.704  68.334  0.00  0.00    +0.174 C 
ATOM     42  O   UNL     1      -8.231  17.864  68.710  0.00  0.00    -0.332 OA
ATOM     43  C   UNL     1      -8.016  18.772  66.426  0.00  0.00    +0.088 C 
ATOM     44  C   UNL     1      -3.353  13.943  68.782  0.00  0.00    +0.036 C 
ATOM     45  C   UNL     1      -3.517  17.257  67.720  0.00  0.00    +0.054 C 
ENDROOT
BRANCH  37  46
ATOM     46  O   UNL     1     -11.523  10.273  68.685  0.00  0.00    -0.351 OA
ATOM     47  C   UNL     1     -12.438  10.687  69.703  0.00  0.00    +0.174 C 
ENDBRANCH  37  46
BRANCH  36  48
ATOM     48  C   UNL     1     -10.492   8.612  69.723  0.00  0.00    +0.066 C 
BRANCH  48  49
ATOM     49  C   UNL     1     -10.006   7.521  70.841  0.00  0.00    +0.173 C 
ATOM     50  O   UNL     1     -11.354   6.813  70.868  0.00  0.00    -0.221 OA
BRANCH  49  51
ATOM     51  C   UNL     1     -10.477   8.438  72.125  0.00  0.00    +0.142 C 
ATOM     52  N   UNL     1     -11.787   8.062  72.500  0.00  0.00    -0.129 NA
ENDBRANCH  49  51
ENDBRANCH  48  49
ENDBRANCH  36  48
TORSDOF 4
ENDMDL
MODEL 2
REMARK VINA RESULT:      -8.5      1.693      2.213
REMARK  Name = 
REMARK  4 active torsions:
REMARK  status: ('A' for Active; 'I' for Inactive)
REMARK    1  A    between atoms: C_23  and  O_24
REMARK    2  A    between atoms: C_26  and  C_27
REMARK    3  A    between atoms: C_27  and  C_28
REMARK    4  A    between atoms: C_28  and  C_30
REMARK                            x       y       z     vdW  Elec       q    Type
REMARK                         _______ _______ _______ _____ _____    ______ ____
ROOT
ATOM      1  C   UNL     1      -2.945  13.872  68.534  0.00  0.00    -0.007 C 
ATOM      2  C   UNL     1      -3.240  14.491  69.153  0.00  0.00    -0.015 C 
ATOM      3  C   UNL     1      -4.335  14.317  70.345  0.00  0.00    +0.134 C 
ATOM      4  O   UNL     1      -5.362  13.909  69.332  0.00  0.00    -0.354 OA
ATOM      5  C   UNL     1      -5.340  15.079  68.385  0.00  0.00    +0.120 C 
ATOM      6  C   UNL     1      -6.260  15.994  69.407  0.00  0.00    +0.035 C 
ATOM      7  C   UNL     1      -6.630  17.149  68.512  0.00  0.00    +0.059 C 
ATOM      8  C   UNL     1      -8.077  17.325  68.275  0.00  0.00    +0.190 C 
ATOM      9  O   UNL     1      -8.398  18.616  68.076  0.00  0.00    -0.332 OA
ATOM     10  C   UNL     1      -9.847  18.605  67.646  0.00  0.00    +0.174 C 
ATOM     11  C   UNL     1      -9.595  17.682  66.257  0.00  0.00    +0.150 C 
ATOM     12  O   UNL     1     -10.794  16.888  66.584  0.00  0.00    -0.351 OA
ATOM     13  C   UNL     1     -11.019  16.483  68.038  0.00  0.00    +0.174 C 
ATOM     14  C   UNL     1      -9.339  15.670  68.181  0.00  0.00    +0.176 C 
ATOM     15  C   UNL     1      -9.939  14.290  68.823  0.00  0.00    +0.172 C 
ATOM     16  C   UNL     1     -10.876  15.123  67.612  0.00  0.00    +0.145 C 
ATOM     17  C   UNL     1     -10.518  13.940  66.670  0.00  0.00    +0.035 C 
ATOM     18  C   UNL     1     -11.177  13.206  67.766  0.00  0.00    +0.033 C 
ATOM     19  C   UNL     1     -12.055  13.989  68.910  0.00  0.00    +0.123 C 
ATOM     20  C   UNL     1     -11.878  12.728  69.955  0.00  0.00    +0.094 C 
ATOM     21  C   UNL     1     -11.546  11.531  69.196  0.00  0.00    +0.153 C 
ATOM     22  C   UNL     1     -10.143  11.035  68.950  0.00  0.00    +0.070 C 
ATOM     23  C   UNL     1     -10.156   9.492  69.378  0.00  0.00    +0.064 C 
ATOM     24  C   UNL     1      -8.669   9.481  70.172  0.00  0.00    +0.121 C 
ATOM     25  C   UNL     1      -7.893   8.742  68.938  0.00  0.00    +0.063 C 
ATOM     26  C   UNL     1      -6.461   9.556  68.851  0.00  0.00    +0.136 C 
ATOM     27  C   UNL     1      -5.605   8.416  69.599  0.00  0.00    -0.018 C 
ATOM     28  C   UNL     1      -6.140   7.569  70.378  0.00  0.00    -0.007 C 
ATOM     29  C   UNL     1      -4.264   9.075  70.221  0.00  0.00    +0.023 C 
ATOM     30  C   UNL     1      -4.925   9.527  71.659  0.00  0.00    +0.005 C 
ATOM     31  C   UNL     1      -4.283  10.480  69.436  0.00  0.00    +0.034 C 
ATOM     32  C   UNL     1      -5.632  11.362  69.561  0.00  0.00    +0.116 C 
ATOM     33  C   UNL     1      -5.186  12.037  71.006  0.00  0.00    +0.032 C 
ATOM     34  O   UNL     1      -6.561  10.321  70.168  0.00  0.00    -0.355 OA
ATOM     35  O   UNL     1      -9.187   8.153  70.658  0.00  0.00    -0.356 OA
ATOM     36  C   UNL     1      -9.961   8.756  71.787  0.00  0.00    +0.145 C 
ATOM     37  C   UNL     1     -10.870   9.865  70.851  0.00  0.00    +0.145 C 
ATOM     38  O   UNL     1     -12.371  11.166  68.355  0.00  0.00    -0.296 OA
ATOM     39  O   UNL     1      -9.677  16.097  67.438  0.00  0.00    -0.351 OA
ATOM     40  O   UNL     1     -11.019  14.800  69.728  0.00  0.00    -0.353 OA
ATOM     41  C   UNL     1      -9.865  17.206  68.600  0.00  0.00    +0.174 C 
ATOM     42  O   UNL     1      -8.727  16.482  69.258  0.00  0.00    -0.332 OA
ATOM     43  C   UNL     1      -8.275  16.905  66.870  0.00  0.00    +0.088 C 
ATOM     44  C   UNL     1      -3.895  12.749  70.632  0.00  0.00    +0.036 C 
ATOM     45  C   UNL     1      -3.938  15.770  68.898  0.00  0.00    +0.054 C 
ENDROOT
BRANCH  37  46
ATOM     46  O   UNL     1     -12.024   8.990  70.469  0.00  0.00    -0.351 OA
ATOM     47  C   UNL     1     -13.046   9.615  71.249  0.00  0.00    +0.174 C 
ENDBRANCH  37  46
BRANCH  36  48
ATOM     48  C   UNL     1     -11.110   7.597  71.927  0.00  0.00    +0.066 C 
BRANCH  48  49
ATOM     49  C   UNL     1     -10.327   6.171  71.761  0.00  0.00    +0.173 C 
ATOM     50  O   UNL     1     -11.185   5.733  70.582  0.00  0.00    -0.221 OA
BRANCH  49  51
ATOM     51  C   UNL     1     -11.332   5.356  72.778  0.00  0.00    +0.142 C 
ATOM     52  N   UNL     1     -10.595   4.927  73.905  0.00  0.00    -0.129 NA
ENDBRANCH  49  51
ENDBRANCH  48  49
ENDBRANCH  36  48
TORSDOF 4
ENDMDL
MODEL 3
REMARK VINA RESULT:      -7.9      3.288      7.649
REMARK  Name = 
REMARK  4 active torsions:
REMARK  status: ('A' for Active; 'I' for Inactive)
REMARK    1  A    between atoms: C_23  and  O_24
REMARK    2  A    between atoms: C_26  and  C_27
REMARK    3  A    between atoms: C_27  and  C_28
REMARK    4  A    between atoms: C_28  and  C_30
REMARK                            x       y       z     vdW  Elec       q    Type
REMARK                         _______ _______ _______ _____ _____    ______ ____
ROOT
ATOM      1  C   UNL     1      -6.808   8.745  68.697  0.00  0.00    -0.007 C 
ATOM      2  C   UNL     1      -6.733   8.865  67.784  0.00  0.00    -0.015 C 
ATOM      3  C   UNL     1      -6.062  10.095  66.957  0.00  0.00    +0.134 C 
ATOM      4  O   UNL     1      -6.994  11.052  67.639  0.00  0.00    -0.354 OA
ATOM      5  C   UNL     1      -8.338  10.459  67.306  0.00  0.00    +0.120 C 
ATOM      6  C   UNL     1      -8.303  11.095  65.783  0.00  0.00    +0.035 C 
ATOM      7  C   UNL     1      -9.726  10.874  65.341  0.00  0.00    +0.059 C 
ATOM      8  C   UNL     1     -10.483  12.099  65.015  0.00  0.00    +0.190 C 
ATOM      9  O   UNL     1     -11.410  11.877  64.065  0.00  0.00    -0.332 OA
ATOM     10  C   UNL     1     -12.223  13.149  63.997  0.00  0.00    +0.174 C 
ATOM     11  C   UNL     1     -12.766  13.078  65.592  0.00  0.00    +0.150 C 
ATOM     12  O   UNL     1     -12.496  14.521  65.733  0.00  0.00    -0.351 OA
ATOM     13  C   UNL     1     -11.210  15.079  65.128  0.00  0.00    +0.174 C 
ATOM     14  C   UNL     1     -10.125  13.869  66.054  0.00  0.00    +0.176 C 
ATOM     15  C   UNL     1      -9.106  15.028  66.597  0.00  0.00    +0.172 C 
ATOM     16  C   UNL     1     -10.802  15.406  66.462  0.00  0.00    +0.145 C 
ATOM     17  C   UNL     1     -10.822  15.396  68.015  0.00  0.00    +0.035 C 
ATOM     18  C   UNL     1      -9.796  16.428  67.777  0.00  0.00    +0.033 C 
ATOM     19  C   UNL     1      -9.582  17.091  66.291  0.00  0.00    +0.123 C 
ATOM     20  C   UNL     1      -8.048  17.549  66.680  0.00  0.00    +0.094 C 
ATOM     21  C   UNL     1      -7.925  17.595  68.131  0.00  0.00    +0.153 C 
ATOM     22  C   UNL     1      -7.401  16.465  68.981  0.00  0.00    +0.070 C 
ATOM     23  C   UNL     1      -6.274  17.119  69.912  0.00  0.00    +0.064 C 
ATOM     24  C   UNL     1      -5.149  15.871  69.789  0.00  0.00    +0.121 C 
ATOM     25  C   UNL     1      -5.490  15.272  71.271  0.00  0.00    +0.063 C 
ATOM     26  C   UNL     1      -5.503  13.641  71.024  0.00  0.00    +0.136 C 
ATOM     27  C   UNL     1      -4.042  13.391  71.653  0.00  0.00    -0.018 C 
ATOM     28  C   UNL     1      -3.168  14.308  71.720  0.00  0.00    -0.007 C 
ATOM     29  C   UNL     1      -3.445  11.999  71.084  0.00  0.00    +0.023 C 
ATOM     30  C   UNL     1      -2.757  12.629  69.728  0.00  0.00    +0.005 C 
ATOM     31  C   UNL     1      -4.794  11.377  70.465  0.00  0.00    +0.034 C 
ATOM     32  C   UNL     1      -5.594  12.295  69.402  0.00  0.00    +0.116 C 
ATOM     33  C   UNL     1      -4.649  11.829  68.124  0.00  0.00    +0.032 C 
ATOM     34  O   UNL     1      -4.886  13.623  69.628  0.00  0.00    -0.355 OA
ATOM     35  O   UNL     1      -4.253  16.914  70.403  0.00  0.00    -0.356 OA
ATOM     36  C   UNL     1      -3.924  17.548  69.089  0.00  0.00    +0.145 C 
ATOM     37  C   UNL     1      -5.536  17.833  68.584  0.00  0.00    +0.145 C 
ATOM     38  O   UNL     1      -8.676  18.374  68.723  0.00  0.00    -0.296 OA
ATOM     39  O   UNL     1     -11.044  13.915  66.091  0.00  0.00    -0.351 OA
ATOM     40  O   UNL     1      -9.008  15.948  65.418  0.00  0.00    -0.353 OA
ATOM     41  C   UNL     1     -10.756  13.826  64.502  0.00  0.00    +0.174 C 
ATOM     42  O   UNL     1      -9.487  13.148  64.928  0.00  0.00    -0.332 OA
ATOM     43  C   UNL     1     -11.445  12.248  66.128  0.00  0.00    +0.088 C 
ATOM     44  C   UNL     1      -4.884  10.327  68.095  0.00  0.00    +0.036 C 
ATOM     45  C   UNL     1      -7.823   8.985  66.791  0.00  0.00    +0.054 C 
ENDROOT
BRANCH  37  46
ATOM     46  O   UNL     1      -5.770  19.168  69.220  0.00  0.00    -0.351 OA
ATOM     47  C   UNL     1      -5.810  19.974  68.039  0.00  0.00    +0.174 C 
ENDBRANCH  37  46
BRANCH  36  48
ATOM     48  C   UNL     1      -3.598  19.058  69.634  0.00  0.00    +0.066 C 
BRANCH  48  49
ATOM     49  C   UNL     1      -1.968  19.175  69.677  0.00  0.00    +0.173 C 
ATOM     50  O   UNL     1      -1.938  19.465  71.171  0.00  0.00    -0.221 OA
BRANCH  49  51
ATOM     51  C   UNL     1      -1.948  20.792  69.375  0.00  0.00    +0.142 C 
ATOM     52  N   UNL     1      -2.110  21.488  70.595  0.00  0.00    -0.129 NA
ENDBRANCH  49  51
ENDBRANCH  48  49
ENDBRANCH  36  48
TORSDOF 4
ENDMDL
MODEL 4
REMARK VINA RESULT:      -7.8      2.827      9.503
REMARK  Name = 
REMARK  4 active torsions:
REMARK  status: ('A' for Active; 'I' for Inactive)
REMARK    1  A    between atoms: C_23  and  O_24
REMARK    2  A    between atoms: C_26  and  C_27
REMARK    3  A    between atoms: C_27  and  C_28
REMARK    4  A    between atoms: C_28  and  C_30
REMARK                            x       y       z     vdW  Elec       q    Type
REMARK                         _______ _______ _______ _____ _____    ______ ____
ROOT
ATOM      1  C   UNL     1     -12.067  14.052  66.086  0.00  0.00    -0.007 C 
ATOM      2  C   UNL     1     -12.083  13.654  66.919  0.00  0.00    -0.015 C 
ATOM      3  C   UNL     1     -11.277  14.061  68.273  0.00  0.00    +0.134 C 
ATOM      4  O   UNL     1      -9.980  13.915  67.536  0.00  0.00    -0.354 OA
ATOM      5  C   UNL     1     -10.080  12.505  67.018  0.00  0.00    +0.120 C 
ATOM      6  C   UNL     1      -9.672  11.877  68.489  0.00  0.00    +0.035 C 
ATOM      7  C   UNL     1      -9.410  10.437  68.130  0.00  0.00    +0.059 C 
ATOM      8  C   UNL     1      -8.038   9.959  68.395  0.00  0.00    +0.190 C 
ATOM      9  O   UNL     1      -8.013   8.648  68.694  0.00  0.00    -0.332 OA
ATOM     10  C   UNL     1      -6.549   8.275  68.729  0.00  0.00    +0.174 C 
ATOM     11  C   UNL     1      -6.244   8.673  67.120  0.00  0.00    +0.150 C 
ATOM     12  O   UNL     1      -4.989   9.329  67.535  0.00  0.00    -0.351 OA
ATOM     13  C   UNL     1      -5.004  10.181  68.801  0.00  0.00    +0.174 C 
ATOM     14  C   UNL     1      -6.415  11.249  68.192  0.00  0.00    +0.176 C 
ATOM     15  C   UNL     1      -5.650  12.652  68.542  0.00  0.00    +0.172 C 
ATOM     16  C   UNL     1      -4.702  11.307  67.967  0.00  0.00    +0.145 C 
ATOM     17  C   UNL     1      -4.533  12.120  66.654  0.00  0.00    +0.035 C 
ATOM     18  C   UNL     1      -3.975  13.079  67.625  0.00  0.00    +0.033 C 
ATOM     19  C   UNL     1      -3.601  12.623  69.157  0.00  0.00    +0.123 C 
ATOM     20  C   UNL     1      -3.688  14.183  69.678  0.00  0.00    +0.094 C 
ATOM     21  C   UNL     1      -3.531  15.070  68.535  0.00  0.00    +0.153 C 
ATOM     22  C   UNL     1      -4.673  15.664  67.748  0.00  0.00    +0.070 C 
ATOM     23  C   UNL     1      -4.372  17.236  67.682  0.00  0.00    +0.064 C 
ATOM     24  C   UNL     1      -5.948  17.764  67.960  0.00  0.00    +0.121 C 
ATOM     25  C   UNL     1      -6.217  18.132  66.389  0.00  0.00    +0.063 C 
ATOM     26  C   UNL     1      -7.749  17.580  66.129  0.00  0.00    +0.136 C 
ATOM     27  C   UNL     1      -8.439  19.032  66.217  0.00  0.00    -0.018 C 
ATOM     28  C   UNL     1      -7.899  20.003  66.829  0.00  0.00    -0.007 C 
ATOM     29  C   UNL     1     -10.006  18.859  66.580  0.00  0.00    +0.023 C 
ATOM     30  C   UNL     1      -9.821  18.846  68.216  0.00  0.00    +0.005 C 
ATOM     31  C   UNL     1     -10.163  17.283  66.292  0.00  0.00    +0.034 C 
ATOM     32  C   UNL     1      -9.141  16.300  67.066  0.00  0.00    +0.116 C 
ATOM     33  C   UNL     1     -10.055  16.261  68.447  0.00  0.00    +0.032 C 
ATOM     34  O   UNL     1      -8.143  17.326  67.583  0.00  0.00    -0.355 OA
ATOM     35  O   UNL     1      -5.238  19.077  68.159  0.00  0.00    -0.356 OA
ATOM     36  C   UNL     1      -4.914  18.798  69.592  0.00  0.00    +0.145 C 
ATOM     37  C   UNL     1      -4.124  17.299  69.341  0.00  0.00    +0.145 C 
ATOM     38  O   UNL     1      -2.473  14.977  67.907  0.00  0.00    -0.296 OA
ATOM     39  O   UNL     1      -6.036  10.539  67.744  0.00  0.00    -0.351 OA
ATOM     40  O   UNL     1      -4.963  12.330  69.834  0.00  0.00    -0.353 OA
ATOM     41  C   UNL     1      -6.397   9.899  69.184  0.00  0.00    +0.174 C 
ATOM     42  O   UNL     1      -7.436  10.980  69.230  0.00  0.00    -0.332 OA
ATOM     43  C   UNL     1      -7.430   9.817  67.054  0.00  0.00    +0.088 C 
ATOM     44  C   UNL     1     -11.364  15.679  67.937  0.00  0.00    +0.036 C 
ATOM     45  C   UNL     1     -11.687  12.273  67.274  0.00  0.00    +0.054 C 
ENDROOT
BRANCH  37  46
ATOM     46  O   UNL     1      -2.733  17.786  69.075  0.00  0.00    -0.351 OA
ATOM     47  C   UNL     1      -2.090  17.271  70.243  0.00  0.00    +0.174 C 
ENDBRANCH  37  46
BRANCH  36  48
ATOM     48  C   UNL     1      -3.574  19.731  69.714  0.00  0.00    +0.066 C 
BRANCH  48  49
ATOM     49  C   UNL     1      -4.092  21.187  70.250  0.00  0.00    +0.173 C 
ATOM     50  O   UNL     1      -2.731  21.563  70.820  0.00  0.00    -0.221 OA
BRANCH  49  51
ATOM     51  C   UNL     1      -4.542  20.624  71.729  0.00  0.00    +0.142 C 
ATOM     52  N   UNL     1      -3.382  20.383  72.500  0.00  0.00    -0.129 NA
ENDBRANCH  49  51
ENDBRANCH  48  49
ENDBRANCH  36  48
TORSDOF 4
ENDMDL
MODEL 5
REMARK VINA RESULT:      -7.8      4.257      8.148
REMARK  Name = 
REMARK  4 active torsions:
REMARK  status: ('A' for Active; 'I' for Inactive)
REMARK    1  A    between atoms: C_23  and  O_24
REMARK    2  A    between atoms: C_26  and  C_27
REMARK    3  A    between atoms: C_27  and  C_28
REMARK    4  A    between atoms: C_28  and  C_30
REMARK                            x       y       z     vdW  Elec       q    Type
REMARK                         _______ _______ _______ _____ _____    ______ ____
ROOT
ATOM      1  C   UNL     1     -10.772   7.968  72.800  0.00  0.00    -0.007 C 
ATOM      2  C   UNL     1     -11.559   8.163  72.356  0.00  0.00    -0.015 C 
ATOM      3  C   UNL     1     -12.066   7.670  70.890  0.00  0.00    +0.134 C 
ATOM      4  O   UNL     1     -10.835   8.266  70.273  0.00  0.00    -0.354 OA
ATOM      5  C   UNL     1     -10.916   9.693  70.747  0.00  0.00    +0.120 C 
ATOM      6  C   UNL     1     -12.047  10.067  69.604  0.00  0.00    +0.035 C 
ATOM      7  C   UNL     1     -12.068  11.571  69.694  0.00  0.00    +0.059 C 
ATOM      8  C   UNL     1     -11.687  12.283  68.457  0.00  0.00    +0.190 C 
ATOM      9  O   UNL     1     -12.313  13.469  68.350  0.00  0.00    -0.332 OA
ATOM     10  C   UNL     1     -11.670  14.152  67.165  0.00  0.00    +0.174 C 
ATOM     11  C   UNL     1     -10.118  14.190  67.824  0.00  0.00    +0.150 C 
ATOM     12  O   UNL     1      -9.570  13.767  66.522  0.00  0.00    -0.351 OA
ATOM     13  C   UNL     1     -10.311  12.683  65.744  0.00  0.00    +0.174 C 
ATOM     14  C   UNL     1     -10.260  11.475  67.172  0.00  0.00    +0.176 C 
ATOM     15  C   UNL     1      -9.692  10.245  66.256  0.00  0.00    +0.172 C 
ATOM     16  C   UNL     1      -9.147  11.863  65.908  0.00  0.00    +0.145 C 
ATOM     17  C   UNL     1      -7.774  11.412  66.478  0.00  0.00    +0.035 C 
ATOM     18  C   UNL     1      -7.942  10.421  65.400  0.00  0.00    +0.033 C 
ATOM     19  C   UNL     1      -9.086  10.612  64.238  0.00  0.00    +0.123 C 
ATOM     20  C   UNL     1      -9.063   8.999  63.904  0.00  0.00    +0.094 C 
ATOM     21  C   UNL     1      -7.806   8.438  64.382  0.00  0.00    +0.153 C 
ATOM     22  C   UNL     1      -7.618   7.781  65.726  0.00  0.00    +0.070 C 
ATOM     23  C   UNL     1      -6.920   6.373  65.417  0.00  0.00    +0.064 C 
ATOM     24  C   UNL     1      -7.821   5.449  66.501  0.00  0.00    +0.121 C 
ATOM     25  C   UNL     1      -6.618   5.375  67.606  0.00  0.00    +0.063 C 
ATOM     26  C   UNL     1      -7.405   5.603  69.037  0.00  0.00    +0.136 C 
ATOM     27  C   UNL     1      -7.397   4.047  69.452  0.00  0.00    -0.018 C 
ATOM     28  C   UNL     1      -7.289   3.118  68.594  0.00  0.00    -0.007 C 
ATOM     29  C   UNL     1      -8.576   3.773  70.525  0.00  0.00    +0.023 C 
ATOM     30  C   UNL     1      -9.766   3.476  69.427  0.00  0.00    +0.005 C 
ATOM     31  C   UNL     1      -8.918   5.294  70.923  0.00  0.00    +0.034 C 
ATOM     32  C   UNL     1      -9.282   6.296  69.708  0.00  0.00    +0.116 C 
ATOM     33  C   UNL     1     -10.869   5.827  69.652  0.00  0.00    +0.032 C 
ATOM     34  O   UNL     1      -8.837   5.441  68.531  0.00  0.00    -0.355 OA
ATOM     35  O   UNL     1      -7.193   4.323  65.723  0.00  0.00    -0.356 OA
ATOM     36  C   UNL     1      -8.231   4.355  64.647  0.00  0.00    +0.145 C 
ATOM     37  C   UNL     1      -8.071   6.013  64.250  0.00  0.00    +0.145 C 
ATOM     38  O   UNL     1      -6.774   8.905  63.893  0.00  0.00    -0.296 OA
ATOM     39  O   UNL     1      -9.923  12.333  67.171  0.00  0.00    -0.351 OA
ATOM     40  O   UNL     1     -10.439  10.430  64.971  0.00  0.00    -0.353 OA
ATOM     41  C   UNL     1     -11.446  12.548  66.671  0.00  0.00    +0.174 C 
ATOM     42  O   UNL     1     -11.706  11.273  67.418  0.00  0.00    -0.332 OA
ATOM     43  C   UNL     1     -10.351  12.846  68.750  0.00  0.00    +0.088 C 
ATOM     44  C   UNL     1     -11.350   6.187  71.049  0.00  0.00    +0.036 C 
ATOM     45  C   UNL     1     -12.051   9.488  71.920  0.00  0.00    +0.054 C 
ENDROOT
BRANCH  37  46
ATOM     46  O   UNL     1      -6.967   5.928  63.242  0.00  0.00    -0.351 OA
ATOM     47  C   UNL     1      -7.712   6.254  62.066  0.00  0.00    +0.174 C 
ENDBRANCH  37  46
BRANCH  36  48
ATOM     48  C   UNL     1      -7.321   3.751  63.427  0.00  0.00    +0.066 C 
BRANCH  48  49
ATOM     49  C   UNL     1      -7.994   2.312  63.039  0.00  0.00    +0.173 C 
ATOM     50  O   UNL     1      -8.397   2.774  61.645  0.00  0.00    -0.221 OA
BRANCH  49  51
ATOM     51  C   UNL     1      -9.490   2.718  63.592  0.00  0.00    +0.142 C 
ATOM     52  N   UNL     1     -10.341   1.595  63.480  0.00  0.00    -0.129 NA
ENDBRANCH  49  51
ENDBRANCH  48  49
ENDBRANCH  36  48
TORSDOF 4
ENDMDL
MODEL 6
REMARK VINA RESULT:      -7.7      2.579      6.490
REMARK  Name = 
REMARK  4 active torsions:
REMARK  status: ('A' for Active; 'I' for Inactive)
REMARK    1  A    between atoms: C_23  and  O_24
REMARK    2  A    between atoms: C_26  and  C_27
REMARK    3  A    between atoms: C_27  and  C_28
REMARK    4  A    between atoms: C_28  and  C_30
REMARK                            x       y       z     vdW  Elec       q    Type
REMARK                         _______ _______ _______ _____ _____    ______ ____
ROOT
ATOM      1  C   UNL     1     -10.938  19.217  67.627  0.00  0.00    -0.007 C 
ATOM      2  C   UNL     1     -10.310  19.509  67.015  0.00  0.00    -0.015 C 
ATOM      3  C   UNL     1      -9.328  18.642  66.050  0.00  0.00    +0.134 C 
ATOM      4  O   UNL     1      -8.755  17.961  67.257  0.00  0.00    -0.354 OA
ATOM      5  C   UNL     1      -8.291  19.136  68.078  0.00  0.00    +0.120 C 
ATOM      6  C   UNL     1      -6.936  19.318  67.154  0.00  0.00    +0.035 C 
ATOM      7  C   UNL     1      -6.138  20.282  67.993  0.00  0.00    +0.059 C 
ATOM      8  C   UNL     1      -4.830  19.780  68.459  0.00  0.00    +0.190 C 
ATOM      9  O   UNL     1      -3.932  20.772  68.595  0.00  0.00    -0.332 OA
ATOM     10  C   UNL     1      -2.736  20.138  69.267  0.00  0.00    +0.174 C 
ATOM     11  C   UNL     1      -3.559  19.688  70.668  0.00  0.00    +0.150 C 
ATOM     12  O   UNL     1      -2.888  18.376  70.625  0.00  0.00    -0.351 OA
ATOM     13  C   UNL     1      -2.741  17.683  69.272  0.00  0.00    +0.174 C 
ATOM     14  C   UNL     1      -4.576  17.763  68.915  0.00  0.00    +0.176 C 
ATOM     15  C   UNL     1      -4.679  16.181  68.511  0.00  0.00    +0.172 C 
ATOM     16  C   UNL     1      -3.586  16.646  69.786  0.00  0.00    +0.145 C 
ATOM     17  C   UNL     1      -4.583  15.950  70.754  0.00  0.00    +0.035 C 
ATOM     18  C   UNL     1      -4.265  14.823  69.857  0.00  0.00    +0.033 C 
ATOM     19  C   UNL     1      -2.998  14.893  68.816  0.00  0.00    +0.123 C 
ATOM     20  C   UNL     1      -3.667  13.721  67.872  0.00  0.00    +0.094 C 
ATOM     21  C   UNL     1      -4.630  12.970  68.666  0.00  0.00    +0.153 C 
ATOM     22  C   UNL     1      -6.110  13.254  68.710  0.00  0.00    +0.070 C 
ATOM     23  C   UNL     1      -6.822  11.847  68.428  0.00  0.00    +0.064 C 
ATOM     24  C   UNL     1      -8.022  12.422  67.394  0.00  0.00    +0.121 C 
ATOM     25  C   UNL     1      -9.190  12.355  68.537  0.00  0.00    +0.063 C 
ATOM     26  C   UNL     1     -10.026  13.758  68.304  0.00  0.00    +0.136 C 
ATOM     27  C   UNL     1     -11.251  13.063  67.523  0.00  0.00    -0.018 C 
ATOM     28  C   UNL     1     -11.129  11.949  66.926  0.00  0.00    -0.007 C 
ATOM     29  C   UNL     1     -12.011  14.173  66.624  0.00  0.00    +0.023 C 
ATOM     30  C   UNL     1     -11.064  14.014  65.286  0.00  0.00    +0.005 C 
ATOM     31  C   UNL     1     -11.378  15.503  67.272  0.00  0.00    +0.034 C 
ATOM     32  C   UNL     1      -9.765  15.598  67.304  0.00  0.00    +0.116 C 
ATOM     33  C   UNL     1      -9.660  16.160  65.750  0.00  0.00    +0.032 C 
ATOM     34  O   UNL     1      -9.419  14.156  66.960  0.00  0.00    -0.355 OA
ATOM     35  O   UNL     1      -8.186  10.949  67.124  0.00  0.00    -0.356 OA
ATOM     36  C   UNL     1      -7.100  10.916  66.096  0.00  0.00    +0.145 C 
ATOM     37  C   UNL     1      -5.865  11.589  67.074  0.00  0.00    +0.145 C 
ATOM     38  O   UNL     1      -4.190  12.396  69.665  0.00  0.00    -0.296 OA
ATOM     39  O   UNL     1      -4.152  18.089  69.664  0.00  0.00    -0.351 OA
ATOM     40  O   UNL     1      -3.399  15.957  67.764  0.00  0.00    -0.353 OA
ATOM     41  C   UNL     1      -3.315  18.768  68.459  0.00  0.00    +0.174 C 
ATOM     42  O   UNL     1      -4.584  18.582  67.681  0.00  0.00    -0.332 OA
ATOM     43  C   UNL     1      -5.017  19.550  69.909  0.00  0.00    +0.088 C 
ATOM     44  C   UNL     1     -10.456  17.452  65.831  0.00  0.00    +0.036 C 
ATOM     45  C   UNL     1      -9.099  20.320  67.273  0.00  0.00    +0.054 C 
ENDROOT
BRANCH  37  46
ATOM     46  O   UNL     1      -5.348  10.343  67.724  0.00  0.00    -0.351 OA
ATOM     47  C   UNL     1      -4.069  10.274  67.090  0.00  0.00    +0.174 C 
ENDBRANCH  37  46
BRANCH  36  48
ATOM     48  C   UNL     1      -6.673   9.343  66.260  0.00  0.00    +0.066 C 
BRANCH  48  49
ATOM     49  C   UNL     1      -6.609   8.738  64.742  0.00  0.00    +0.173 C 
ATOM     50  O   UNL     1      -6.768  10.107  64.093  0.00  0.00    -0.221 OA
BRANCH  49  51
ATOM     51  C   UNL     1      -8.234   8.509  64.628  0.00  0.00    +0.142 C 
ATOM     52  N   UNL     1      -8.687   9.043  63.400  0.00  0.00    -0.129 NA
ENDBRANCH  49  51
ENDBRANCH  48  49
ENDBRANCH  36  48
TORSDOF 4
ENDMDL
MODEL 7
REMARK VINA RESULT:      -7.6      2.520      4.473
REMARK  Name = 
REMARK  4 active torsions:
REMARK  status: ('A' for Active; 'I' for Inactive)
REMARK    1  A    between atoms: C_23  and  O_24
REMARK    2  A    between atoms: C_26  and  C_27
REMARK    3  A    between atoms: C_27  and  C_28
REMARK    4  A    between atoms: C_28  and  C_30
REMARK                            x       y       z     vdW  Elec       q    Type
REMARK                         _______ _______ _______ _____ _____    ______ ____
ROOT
ATOM      1  C   UNL     1      -3.720  14.300  68.356  0.00  0.00    -0.007 C 
ATOM      2  C   UNL     1      -4.315  14.912  68.710  0.00  0.00    -0.015 C 
ATOM      3  C   UNL     1      -5.384  14.729  69.923  0.00  0.00    +0.134 C 
ATOM      4  O   UNL     1      -6.022  13.594  69.180  0.00  0.00    -0.354 OA
ATOM      5  C   UNL     1      -6.359  14.242  67.862  0.00  0.00    +0.120 C 
ATOM      6  C   UNL     1      -7.690  14.979  68.503  0.00  0.00    +0.035 C 
ATOM      7  C   UNL     1      -8.382  15.467  67.256  0.00  0.00    +0.059 C 
ATOM      8  C   UNL     1      -9.734  14.918  67.028  0.00  0.00    +0.190 C 
ATOM      9  O   UNL     1     -10.523  15.788  66.373  0.00  0.00    -0.332 OA
ATOM     10  C   UNL     1     -11.777  15.014  66.038  0.00  0.00    +0.174 C 
ATOM     11  C   UNL     1     -11.002  13.857  65.087  0.00  0.00    +0.150 C 
ATOM     12  O   UNL     1     -11.806  12.805  65.736  0.00  0.00    -0.351 OA
ATOM     13  C   UNL     1     -12.027  12.890  67.244  0.00  0.00    +0.174 C 
ATOM     14  C   UNL     1     -10.194  12.973  67.614  0.00  0.00    +0.176 C 
ATOM     15  C   UNL     1     -10.258  11.798  68.750  0.00  0.00    +0.172 C 
ATOM     16  C   UNL     1     -11.293  11.664  67.354  0.00  0.00    +0.145 C 
ATOM     17  C   UNL     1     -10.371  10.495  66.911  0.00  0.00    +0.035 C 
ATOM     18  C   UNL     1     -10.807   9.994  68.227  0.00  0.00    +0.033 C 
ATOM     19  C   UNL     1     -12.063  10.684  69.029  0.00  0.00    +0.123 C 
ATOM     20  C   UNL     1     -11.521  10.080  70.463  0.00  0.00    +0.094 C 
ATOM     21  C   UNL     1     -10.640   8.952  70.195  0.00  0.00    +0.153 C 
ATOM     22  C   UNL     1      -9.138   9.043  70.096  0.00  0.00    +0.070 C 
ATOM     23  C   UNL     1      -8.577   7.904  71.072  0.00  0.00    +0.064 C 
ATOM     24  C   UNL     1      -7.326   8.806  71.751  0.00  0.00    +0.121 C 
ATOM     25  C   UNL     1      -6.169   8.077  70.854  0.00  0.00    +0.063 C 
ATOM     26  C   UNL     1      -5.192   9.330  70.411  0.00  0.00    +0.136 C 
ATOM     27  C   UNL     1      -4.048   9.008  71.497  0.00  0.00    -0.018 C 
ATOM     28  C   UNL     1      -4.286   8.353  72.557  0.00  0.00    -0.007 C 
ATOM     29  C   UNL     1      -3.179  10.345  71.771  0.00  0.00    +0.023 C 
ATOM     30  C   UNL     1      -4.140  10.955  72.960  0.00  0.00    +0.005 C 
ATOM     31  C   UNL     1      -3.668  11.229  70.518  0.00  0.00    +0.034 C 
ATOM     32  C   UNL     1      -5.262  11.439  70.358  0.00  0.00    +0.116 C 
ATOM     33  C   UNL     1      -5.312  12.704  71.425  0.00  0.00    +0.032 C 
ATOM     34  O   UNL     1      -5.757  10.395  71.348  0.00  0.00    -0.355 OA
ATOM     35  O   UNL     1      -7.317   7.653  72.720  0.00  0.00    -0.356 OA
ATOM     36  C   UNL     1      -8.403   8.230  73.572  0.00  0.00    +0.145 C 
ATOM     37  C   UNL     1      -9.559   8.437  72.325  0.00  0.00    +0.145 C 
ATOM     38  O   UNL     1     -11.135   7.999  69.587  0.00  0.00    -0.296 OA
ATOM     39  O   UNL     1     -10.581  12.921  66.779  0.00  0.00    -0.351 OA
ATOM     40  O   UNL     1     -11.556  12.088  69.440  0.00  0.00    -0.353 OA
ATOM     41  C   UNL     1     -11.345  14.179  67.446  0.00  0.00    +0.174 C 
ATOM     42  O   UNL     1     -10.104  14.292  68.282  0.00  0.00    -0.332 OA
ATOM     43  C   UNL     1      -9.568  13.984  65.893  0.00  0.00    +0.088 C 
ATOM     44  C   UNL     1      -4.386  13.710  70.760  0.00  0.00    +0.036 C 
ATOM     45  C   UNL     1      -5.434  15.592  68.021  0.00  0.00    +0.054 C 
ENDROOT
BRANCH  37  46
ATOM     46  O   UNL     1     -10.201   7.085  72.346  0.00  0.00    -0.351 OA
ATOM     47  C   UNL     1     -11.485   7.455  72.856  0.00  0.00    +0.174 C 
ENDBRANCH  37  46
BRANCH  36  48
ATOM     48  C   UNL     1      -8.991   6.829  74.182  0.00  0.00    +0.066 C 
BRANCH  48  49
ATOM     49  C   UNL     1      -8.181   6.577  75.580  0.00  0.00    +0.173 C 
ATOM     50  O   UNL     1      -7.641   5.227  75.129  0.00  0.00    -0.221 OA
BRANCH  49  51
ATOM     51  C   UNL     1      -9.438   5.813  76.318  0.00  0.00    +0.142 C 
ATOM     52  N   UNL     1     -10.187   5.117  75.343  0.00  0.00    -0.129 NA
ENDBRANCH  49  51
ENDBRANCH  48  49
ENDBRANCH  36  48
TORSDOF 4
ENDMDL
MODEL 8
REMARK VINA RESULT:      -7.4      3.273      7.197
REMARK  Name = 
REMARK  4 active torsions:
REMARK  status: ('A' for Active; 'I' for Inactive)
REMARK    1  A    between atoms: C_23  and  O_24
REMARK    2  A    between atoms: C_26  and  C_27
REMARK    3  A    between atoms: C_27  and  C_28
REMARK    4  A    between atoms: C_28  and  C_30
REMARK                            x       y       z     vdW  Elec       q    Type
REMARK                         _______ _______ _______ _____ _____    ______ ____
ROOT
ATOM      1  C   UNL     1     -10.473  17.588  68.581  0.00  0.00    -0.007 C 
ATOM      2  C   UNL     1      -9.738  17.956  68.160  0.00  0.00    -0.015 C 
ATOM      3  C   UNL     1      -8.915  17.416  66.863  0.00  0.00    +0.134 C 
ATOM      4  O   UNL     1      -8.645  16.128  67.581  0.00  0.00    -0.354 OA
ATOM      5  C   UNL     1      -7.985  16.614  68.844  0.00  0.00    +0.120 C 
ATOM      6  C   UNL     1      -6.545  16.844  68.069  0.00  0.00    +0.035 C 
ATOM      7  C   UNL     1      -5.616  17.057  69.236  0.00  0.00    +0.059 C 
ATOM      8  C   UNL     1      -4.523  16.071  69.360  0.00  0.00    +0.190 C 
ATOM      9  O   UNL     1      -3.424  16.610  69.918  0.00  0.00    -0.332 OA
ATOM     10  C   UNL     1      -2.491  15.447  70.165  0.00  0.00    +0.174 C 
ATOM     11  C   UNL     1      -3.529  14.629  71.213  0.00  0.00    +0.150 C 
ATOM     12  O   UNL     1      -3.202  13.365  70.528  0.00  0.00    -0.351 OA
ATOM     13  C   UNL     1      -3.105  13.373  69.004  0.00  0.00    +0.174 C 
ATOM     14  C   UNL     1      -4.821  14.089  68.794  0.00  0.00    +0.176 C 
ATOM     15  C   UNL     1      -5.274  12.968  67.691  0.00  0.00    +0.172 C 
ATOM     16  C   UNL     1      -4.226  12.479  68.994  0.00  0.00    +0.145 C 
ATOM     17  C   UNL     1      -5.451  11.702  69.551  0.00  0.00    +0.035 C 
ATOM     18  C   UNL     1      -5.339  11.085  68.216  0.00  0.00    +0.033 C 
ATOM     19  C   UNL     1      -4.002  11.297  67.288  0.00  0.00    +0.123 C 
ATOM     20  C   UNL     1      -4.848  10.923  65.926  0.00  0.00    +0.094 C 
ATOM     21  C   UNL     1      -6.037  10.172  66.302  0.00  0.00    +0.153 C 
ATOM     22  C   UNL     1      -7.398  10.779  66.529  0.00  0.00    +0.070 C 
ATOM     23  C   UNL     1      -8.407   9.910  65.639  0.00  0.00    +0.064 C 
ATOM     24  C   UNL     1      -9.324  11.192  65.046  0.00  0.00    +0.121 C 
ATOM     25  C   UNL     1     -10.574  10.910  66.062  0.00  0.00    +0.063 C 
ATOM     26  C   UNL     1     -11.011  12.423  66.552  0.00  0.00    +0.136 C 
ATOM     27  C   UNL     1     -12.291  12.522  65.580  0.00  0.00    -0.018 C 
ATOM     28  C   UNL     1     -12.393  11.828  64.522  0.00  0.00    -0.007 C 
ATOM     29  C   UNL     1     -12.664  14.079  65.344  0.00  0.00    +0.023 C 
ATOM     30  C   UNL     1     -11.665  14.320  64.058  0.00  0.00    +0.005 C 
ATOM     31  C   UNL     1     -11.786  14.734  66.523  0.00  0.00    +0.034 C 
ATOM     32  C   UNL     1     -10.210  14.375  66.537  0.00  0.00    +0.116 C 
ATOM     33  C   UNL     1      -9.823  15.547  65.433  0.00  0.00    +0.032 C 
ATOM     34  O   UNL     1     -10.201  13.227  65.538  0.00  0.00    -0.355 OA
ATOM     35  O   UNL     1      -9.822  10.118  64.115  0.00  0.00    -0.356 OA
ATOM     36  C   UNL     1      -8.687  10.284  63.156  0.00  0.00    +0.145 C 
ATOM     37  C   UNL     1      -7.421  10.072  64.291  0.00  0.00    +0.145 C 
ATOM     38  O   UNL     1      -5.850   9.105  66.892  0.00  0.00    -0.296 OA
ATOM     39  O   UNL     1      -4.402  13.903  69.593  0.00  0.00    -0.351 OA
ATOM     40  O   UNL     1      -4.025  12.791  66.882  0.00  0.00    -0.353 OA
ATOM     41  C   UNL     1      -3.313  14.819  68.825  0.00  0.00    +0.174 C 
ATOM     42  O   UNL     1      -4.510  15.359  68.098  0.00  0.00    -0.332 OA
ATOM     43  C   UNL     1      -4.897  15.250  70.532  0.00  0.00    +0.088 C 
ATOM     44  C   UNL     1     -10.278  16.810  66.147  0.00  0.00    +0.036 C 
ATOM     45  C   UNL     1      -8.394  18.202  68.728  0.00  0.00    +0.054 C 
ENDROOT
BRANCH  37  46
ATOM     46  O   UNL     1      -7.292   8.581  64.253  0.00  0.00    -0.351 OA
ATOM     47  C   UNL     1      -5.997   8.483  63.655  0.00  0.00    +0.174 C 
ENDBRANCH  37  46
BRANCH  36  48
ATOM     48  C   UNL     1      -8.680   8.767  62.538  0.00  0.00    +0.066 C 
BRANCH  48  49
ATOM     49  C   UNL     1      -9.077   8.927  60.960  0.00  0.00    +0.173 C 
ATOM     50  O   UNL     1      -9.637   7.515  60.865  0.00  0.00    -0.221 OA
BRANCH  49  51
ATOM     51  C   UNL     1      -7.628   8.377  60.408  0.00  0.00    +0.142 C 
ATOM     52  N   UNL     1      -6.784   9.482  60.155  0.00  0.00    -0.129 NA
ENDBRANCH  49  51
ENDBRANCH  48  49
ENDBRANCH  36  48
TORSDOF 4
ENDMDL
MODEL 9
REMARK VINA RESULT:      -7.4      3.887      8.490
REMARK  Name = 
REMARK  4 active torsions:
REMARK  status: ('A' for Active; 'I' for Inactive)
REMARK    1  A    between atoms: C_23  and  O_24
REMARK    2  A    between atoms: C_26  and  C_27
REMARK    3  A    between atoms: C_27  and  C_28
REMARK    4  A    between atoms: C_28  and  C_30
REMARK                            x       y       z     vdW  Elec       q    Type
REMARK                         _______ _______ _______ _____ _____    ______ ____
ROOT
ATOM      1  C   UNL     1      -7.375   6.002  73.625  0.00  0.00    -0.007 C 
ATOM      2  C   UNL     1      -7.583   6.631  74.269  0.00  0.00    -0.015 C 
ATOM      3  C   UNL     1      -8.369   8.048  74.113  0.00  0.00    +0.134 C 
ATOM      4  O   UNL     1      -7.347   8.495  73.110  0.00  0.00    -0.354 OA
ATOM      5  C   UNL     1      -6.066   8.333  73.885  0.00  0.00    +0.120 C 
ATOM      6  C   UNL     1      -6.324   9.739  74.711  0.00  0.00    +0.035 C 
ATOM      7  C   UNL     1      -4.980   9.947  75.360  0.00  0.00    +0.059 C 
ATOM      8  C   UNL     1      -4.280  11.190  74.976  0.00  0.00    +0.190 C 
ATOM      9  O   UNL     1      -3.502  11.653  75.971  0.00  0.00    -0.332 OA
ATOM     10  C   UNL     1      -2.708  12.785  75.361  0.00  0.00    +0.174 C 
ATOM     11  C   UNL     1      -1.938  11.834  74.202  0.00  0.00    +0.150 C 
ATOM     12  O   UNL     1      -2.185  12.885  73.196  0.00  0.00    -0.351 OA
ATOM     13  C   UNL     1      -3.545  13.577  73.193  0.00  0.00    +0.174 C 
ATOM     14  C   UNL     1      -4.483  11.964  73.053  0.00  0.00    +0.176 C 
ATOM     15  C   UNL     1      -5.412  12.485  71.811  0.00  0.00    +0.172 C 
ATOM     16  C   UNL     1      -3.754  13.016  71.892  0.00  0.00    +0.145 C 
ATOM     17  C   UNL     1      -3.507  12.093  70.666  0.00  0.00    +0.035 C 
ATOM     18  C   UNL     1      -4.557  12.971  70.120  0.00  0.00    +0.033 C 
ATOM     19  C   UNL     1      -4.986  14.362  70.878  0.00  0.00    +0.123 C 
ATOM     20  C   UNL     1      -6.447  14.365  70.116  0.00  0.00    +0.094 C 
ATOM     21  C   UNL     1      -6.357  13.535  68.924  0.00  0.00    +0.153 C 
ATOM     22  C   UNL     1      -6.750  12.081  68.861  0.00  0.00    +0.070 C 
ATOM     23  C   UNL     1      -7.729  11.957  67.600  0.00  0.00    +0.064 C 
ATOM     24  C   UNL     1      -8.860  10.930  68.311  0.00  0.00    +0.121 C 
ATOM     25  C   UNL     1      -8.306   9.604  67.532  0.00  0.00    +0.063 C 
ATOM     26  C   UNL     1      -8.328   8.442  68.703  0.00  0.00    +0.136 C 
ATOM     27  C   UNL     1      -9.681   7.743  68.181  0.00  0.00    -0.018 C 
ATOM     28  C   UNL     1     -10.537   8.363  67.479  0.00  0.00    -0.007 C 
ATOM     29  C   UNL     1     -10.354   6.909  69.394  0.00  0.00    +0.023 C 
ATOM     30  C   UNL     1     -11.234   8.155  70.014  0.00  0.00    +0.005 C 
ATOM     31  C   UNL     1      -9.110   6.894  70.415  0.00  0.00    +0.034 C 
ATOM     32  C   UNL     1      -8.475   8.329  70.805  0.00  0.00    +0.116 C 
ATOM     33  C   UNL     1      -9.596   8.625  71.986  0.00  0.00    +0.032 C 
ATOM     34  O   UNL     1      -9.143   9.198  69.749  0.00  0.00    -0.355 OA
ATOM     35  O   UNL     1      -9.657  11.326  67.096  0.00  0.00    -0.356 OA
ATOM     36  C   UNL     1     -10.175  12.582  67.722  0.00  0.00    +0.145 C 
ATOM     37  C   UNL     1      -8.654  13.249  68.142  0.00  0.00    +0.145 C 
ATOM     38  O   UNL     1      -5.528  13.876  68.076  0.00  0.00    -0.296 OA
ATOM     39  O   UNL     1      -3.569  12.060  73.104  0.00  0.00    -0.351 OA
ATOM     40  O   UNL     1      -5.681  13.910  72.187  0.00  0.00    -0.353 OA
ATOM     41  C   UNL     1      -4.086  12.901  74.384  0.00  0.00    +0.174 C 
ATOM     42  O   UNL     1      -5.278  11.995  74.302  0.00  0.00    -0.332 OA
ATOM     43  C   UNL     1      -3.165  10.736  74.116  0.00  0.00    +0.088 C 
ATOM     44  C   UNL     1      -9.368   7.458  72.933  0.00  0.00    +0.036 C 
ATOM     45  C   UNL     1      -6.650   7.409  75.114  0.00  0.00    +0.054 C 
ENDROOT
BRANCH  37  46
ATOM     46  O   UNL     1      -8.330  13.966  66.868  0.00  0.00    -0.351 OA
ATOM     47  C   UNL     1      -8.494  15.312  67.320  0.00  0.00    +0.174 C 
ENDBRANCH  37  46
BRANCH  36  48
ATOM     48  C   UNL     1     -10.417  13.443  66.350  0.00  0.00    +0.066 C 
BRANCH  48  49
ATOM     49  C   UNL     1     -12.003  13.845  66.351  0.00  0.00    +0.173 C 
ATOM     50  O   UNL     1     -12.438  12.496  65.793  0.00  0.00    -0.221 OA
BRANCH  49  51
ATOM     51  C   UNL     1     -11.980  14.454  64.822  0.00  0.00    +0.142 C 
ATOM     52  N   UNL     1     -12.448  13.466  63.927  0.00  0.00    -0.129 NA
ENDBRANCH  49  51
ENDBRANCH  48  49
ENDBRANCH  36  48
TORSDOF 4
ENDMDL
