MODEL 1
REMARK VINA RESULT:      -7.0      0.000      0.000
REMARK  Name = 
REMARK  8 active torsions:
REMARK  status: ('A' for Active; 'I' for Inactive)
REMARK    1  A    between atoms: C_2  and  C_3
REMARK    2  A    between atoms: C_3  and  N_4
REMARK    3  A    between atoms: C_6  and  C_7
REMARK    4  A    between atoms: N_9  and  C_10
REMARK    5  A    between atoms: C_10  and  C_11
REMARK    6  A    between atoms: C_11  and  C_12
REMARK    7  A    between atoms: C_12  and  N_13
REMARK    8  A    between atoms: N_18  and  C_19
REMARK                            x       y       z     vdW  Elec       q    Type
REMARK                         _______ _______ _______ _____ _____    ______ ____
ROOT
ATOM      1  N   UNL     1     -12.369  14.889  71.034  0.00  0.00    -0.269 NA
ATOM      2  C   UNL     1     -12.733  13.566  70.250  0.00  0.00    +0.066 C 
ATOM      3  C   UNL     1     -11.058  13.193  70.041  0.00  0.00    +0.038 C 
ATOM      4  C   UNL     1     -11.424  11.890  69.170  0.00  0.00    -0.020 A 
ATOM      5  C   UNL     1     -12.031  10.967  70.003  0.00  0.00    +0.011 A 
ATOM      6  C   UNL     1     -11.691   9.626  70.050  0.00  0.00    +0.081 A 
ATOM      7  N   UNL     1     -12.438   9.051  71.024  0.00  0.00    -0.244 NA
ATOM      8  C   UNL     1     -12.938  10.066  71.773  0.00  0.00    +0.095 A 
ATOM      9  C   UNL     1     -10.868   9.157  69.041  0.00  0.00    +0.019 A 
ATOM     10  C   UNL     1     -10.265  10.068  68.184  0.00  0.00    +0.001 A 
ATOM     11  C   UNL     1     -12.611  11.280  71.202  0.00  0.00    -0.001 A 
ATOM     12  C   UNL     1     -10.426  11.442  68.329  0.00  0.00    -0.004 A 
ATOM     13  C   UNL     1     -10.970  14.179  68.734  0.00  0.00    +0.016 C 
ATOM     14  C   UNL     1     -10.492  15.477  69.658  0.00  0.00    +0.093 C 
ATOM     15  C   UNL     1     -12.810  12.694  71.647  0.00  0.00    +0.044 C 
ATOM     16  C   UNL     1     -12.068  15.857  70.017  0.00  0.00    +0.081 C 
ENDROOT
BRANCH  14  17
ATOM     17  C   UNL     1     -10.484  16.533  68.429  0.00  0.00    +0.233 C 
ATOM     18  N   UNL     1      -9.321  16.956  67.852  0.00  0.00    -0.213 N 
ATOM     19  C   UNL     1      -8.201  17.580  68.494  0.00  0.00    +0.329 C 
ATOM     20  N   UNL     1      -8.125  19.010  68.407  0.00  0.00    -0.188 NA
ATOM     21  O   UNL     1      -7.070  17.015  68.371  0.00  0.00    -0.250 OA
ATOM     22  O   UNL     1     -11.652  16.945  68.287  0.00  0.00    -0.274 OA
BRANCH  20  23
ATOM     23  C   UNL     1      -6.884  19.740  68.604  0.00  0.00    +0.117 C 
ATOM     24  C   UNL     1      -6.767  20.765  67.508  0.00  0.00    +0.025 C 
ENDBRANCH  20  23
BRANCH  18  25
ATOM     25  C   UNL     1      -9.340  17.144  66.401  0.00  0.00    +0.104 C 
BRANCH  25  26
ATOM     26  C   UNL     1      -9.555  15.792  65.730  0.00  0.00    +0.039 C 
BRANCH  26  27
ATOM     27  C   UNL     1     -10.865  15.722  64.994  0.00  0.00    +0.074 C 
BRANCH  27  28
ATOM     28  N   UNL     1     -11.318  14.371  64.759  0.00  0.00    -0.270 NA
ATOM     29  C   UNL     1     -10.295  13.448  65.153  0.00  0.00    +0.090 C 
ATOM     30  C   UNL     1     -12.568  14.063  65.400  0.00  0.00    +0.090 C 
ENDBRANCH  27  28
ENDBRANCH  26  27
ENDBRANCH  25  26
ENDBRANCH  18  25
ENDBRANCH  14  17
BRANCH   1  31
ATOM     31  C   UNL     1     -13.579  15.243  71.716  0.00  0.00    +0.099 C 
BRANCH  31  33
ATOM     32  C   UNL     1     -13.230  15.935  73.482  0.00  0.00    -0.003 C 
ATOM     33  C   UNL     1     -13.364  15.836  73.057  0.00  0.00    -0.009 C 
ENDBRANCH  31  33
ENDBRANCH   1  31
TORSDOF 8
ENDMDL
MODEL 2
REMARK VINA RESULT:      -6.8      1.638      2.013
REMARK  Name = 
REMARK  8 active torsions:
REMARK  status: ('A' for Active; 'I' for Inactive)
REMARK    1  A    between atoms: C_2  and  C_3
REMARK    2  A    between atoms: C_3  and  N_4
REMARK    3  A    between atoms: C_6  and  C_7
REMARK    4  A    between atoms: N_9  and  C_10
REMARK    5  A    between atoms: C_10  and  C_11
REMARK    6  A    between atoms: C_11  and  C_12
REMARK    7  A    between atoms: C_12  and  N_13
REMARK    8  A    between atoms: N_18  and  C_19
REMARK                            x       y       z     vdW  Elec       q    Type
REMARK                         _______ _______ _______ _____ _____    ______ ____
ROOT
ATOM      1  N   UNL     1     -12.336  13.132  70.865  0.00  0.00    -0.269 NA
ATOM      2  C   UNL     1     -12.669  11.700  70.285  0.00  0.00    +0.066 C 
ATOM      3  C   UNL     1     -11.042  11.512  69.733  0.00  0.00    +0.038 C 
ATOM      4  C   UNL     1     -11.399  10.090  69.067  0.00  0.00    -0.020 A 
ATOM      5  C   UNL     1     -11.677   9.193  70.083  0.00  0.00    +0.011 A 
ATOM      6  C   UNL     1     -11.149   7.916  70.153  0.00  0.00    +0.081 A 
ATOM      7  N   UNL     1     -11.581   7.360  71.311  0.00  0.00    -0.244 NA
ATOM      8  C   UNL     1     -12.048   8.380  72.075  0.00  0.00    +0.095 A 
ATOM      9  C   UNL     1     -10.503   7.446  69.023  0.00  0.00    +0.019 A 
ATOM     10  C   UNL     1     -10.232   8.329  67.986  0.00  0.00    +0.001 A 
ATOM     11  C   UNL     1     -12.025   9.558  71.355  0.00  0.00    -0.001 A 
ATOM     12  C   UNL     1     -10.551   9.681  68.059  0.00  0.00    -0.004 A 
ATOM     13  C   UNL     1     -11.376  12.360  68.369  0.00  0.00    +0.016 C 
ATOM     14  C   UNL     1     -10.900  13.795  69.060  0.00  0.00    +0.093 C 
ATOM     15  C   UNL     1     -12.322  10.976  71.725  0.00  0.00    +0.044 C 
ATOM     16  C   UNL     1     -12.399  14.017  69.736  0.00  0.00    +0.081 C 
ENDROOT
BRANCH  14  17
ATOM     17  C   UNL     1     -11.303  14.710  67.785  0.00  0.00    +0.233 C 
ATOM     18  N   UNL     1     -10.493  15.711  67.334  0.00  0.00    -0.213 N 
ATOM     19  C   UNL     1      -9.990  16.833  68.073  0.00  0.00    +0.329 C 
ATOM     20  N   UNL     1     -10.693  18.073  67.917  0.00  0.00    -0.188 NA
ATOM     21  O   UNL     1      -8.729  16.980  68.122  0.00  0.00    -0.250 OA
ATOM     22  O   UNL     1     -12.476  14.419  67.478  0.00  0.00    -0.274 OA
BRANCH  20  23
ATOM     23  C   UNL     1     -10.089  19.359  68.224  0.00  0.00    +0.117 C 
ATOM     24  C   UNL     1      -9.990  20.146  66.945  0.00  0.00    +0.025 C 
ENDBRANCH  20  23
BRANCH  18  25
ATOM     25  C   UNL     1     -10.417  15.890  65.883  0.00  0.00    +0.104 C 
BRANCH  25  26
ATOM     26  C   UNL     1     -10.101  14.546  65.236  0.00  0.00    +0.039 C 
BRANCH  26  27
ATOM     27  C   UNL     1     -11.207  14.072  64.334  0.00  0.00    +0.074 C 
BRANCH  27  28
ATOM     28  N   UNL     1     -11.012  12.726  63.847  0.00  0.00    -0.270 NA
ATOM     29  C   UNL     1     -10.266  11.973  64.810  0.00  0.00    +0.090 C 
ATOM     30  C   UNL     1     -12.237  12.056  63.501  0.00  0.00    +0.090 C 
ENDBRANCH  27  28
ENDBRANCH  26  27
ENDBRANCH  25  26
ENDBRANCH  18  25
ENDBRANCH  14  17
BRANCH   1  31
ATOM     31  C   UNL     1     -13.411  13.406  71.774  0.00  0.00    +0.099 C 
BRANCH  31  33
ATOM     32  C   UNL     1     -13.055  14.706  73.153  0.00  0.00    -0.003 C 
ATOM     33  C   UNL     1     -13.099  14.452  72.777  0.00  0.00    -0.009 C 
ENDBRANCH  31  33
ENDBRANCH   1  31
TORSDOF 8
ENDMDL
MODEL 3
REMARK VINA RESULT:      -6.6      1.991      5.707
REMARK  Name = 
REMARK  8 active torsions:
REMARK  status: ('A' for Active; 'I' for Inactive)
REMARK    1  A    between atoms: C_2  and  C_3
REMARK    2  A    between atoms: C_3  and  N_4
REMARK    3  A    between atoms: C_6  and  C_7
REMARK    4  A    between atoms: N_9  and  C_10
REMARK    5  A    between atoms: C_10  and  C_11
REMARK    6  A    between atoms: C_11  and  C_12
REMARK    7  A    between atoms: C_12  and  N_13
REMARK    8  A    between atoms: N_18  and  C_19
REMARK                            x       y       z     vdW  Elec       q    Type
REMARK                         _______ _______ _______ _____ _____    ______ ____
ROOT
ATOM      1  N   UNL     1     -10.689  11.663  66.073  0.00  0.00    -0.269 NA
ATOM      2  C   UNL     1      -9.945  10.791  67.161  0.00  0.00    +0.066 C 
ATOM      3  C   UNL     1     -11.394  10.668  68.095  0.00  0.00    +0.038 C 
ATOM      4  C   UNL     1     -10.620   9.852  69.246  0.00  0.00    -0.020 A 
ATOM      5  C   UNL     1     -10.260   8.617  68.736  0.00  0.00    +0.011 A 
ATOM      6  C   UNL     1     -10.464   7.418  69.397  0.00  0.00    +0.081 A 
ATOM      7  N   UNL     1     -10.058   6.424  68.569  0.00  0.00    -0.244 NA
ATOM      8  C   UNL     1      -9.955   6.972  67.333  0.00  0.00    +0.095 A 
ATOM      9  C   UNL     1     -10.828   7.495  70.729  0.00  0.00    +0.019 A 
ATOM     10  C   UNL     1     -11.175   8.729  71.263  0.00  0.00    +0.001 A 
ATOM     11  C   UNL     1     -10.175   8.334  67.400  0.00  0.00    -0.001 A 
ATOM     12  C   UNL     1     -11.208   9.888  70.494  0.00  0.00    -0.004 A 
ATOM     13  C   UNL     1     -11.109  12.128  68.785  0.00  0.00    +0.016 C 
ATOM     14  C   UNL     1     -12.005  12.926  67.632  0.00  0.00    +0.093 C 
ATOM     15  C   UNL     1     -10.282   9.395  66.352  0.00  0.00    +0.044 C 
ATOM     16  C   UNL     1     -10.703  12.996  66.606  0.00  0.00    +0.081 C 
ENDROOT
BRANCH  14  17
ATOM     17  C   UNL     1     -11.681  14.409  68.198  0.00  0.00    +0.233 C 
ATOM     18  N   UNL     1     -11.585  14.662  69.536  0.00  0.00    -0.213 N 
ATOM     19  C   UNL     1     -12.568  14.410  70.550  0.00  0.00    +0.329 C 
ATOM     20  N   UNL     1     -13.377  15.523  70.951  0.00  0.00    -0.188 NA
ATOM     21  O   UNL     1     -12.225  13.669  71.523  0.00  0.00    -0.250 OA
ATOM     22  O   UNL     1     -11.719  15.191  67.229  0.00  0.00    -0.274 OA
BRANCH  20  23
ATOM     23  C   UNL     1     -14.085  15.558  72.221  0.00  0.00    +0.117 C 
ATOM     24  C   UNL     1     -13.114  15.993  73.285  0.00  0.00    +0.025 C 
ENDBRANCH  20  23
BRANCH  18  25
ATOM     25  C   UNL     1     -10.554  15.615  69.951  0.00  0.00    +0.104 C 
BRANCH  25  26
ATOM     26  C   UNL     1      -9.215  15.179  69.368  0.00  0.00    +0.039 C 
BRANCH  26  27
ATOM     27  C   UNL     1      -8.383  16.345  68.910  0.00  0.00    +0.074 C 
BRANCH  27  28
ATOM     28  N   UNL     1      -9.112  17.276  68.079  0.00  0.00    -0.270 NA
ATOM     29  C   UNL     1      -8.805  18.616  68.481  0.00  0.00    +0.090 C 
ATOM     30  C   UNL     1      -8.884  17.092  66.671  0.00  0.00    +0.090 C 
ENDBRANCH  27  28
ENDBRANCH  26  27
ENDBRANCH  25  26
ENDBRANCH  18  25
ENDBRANCH  14  17
BRANCH   1  31
ATOM     31  C   UNL     1      -9.837  11.597  64.921  0.00  0.00    +0.099 C 
BRANCH  31  33
ATOM     32  C   UNL     1     -10.824  11.759  63.272  0.00  0.00    -0.003 C 
ATOM     33  C   UNL     1     -10.548  11.787  63.635  0.00  0.00    -0.009 C 
ENDBRANCH  31  33
ENDBRANCH   1  31
TORSDOF 8
ENDMDL
MODEL 4
REMARK VINA RESULT:      -6.6      2.217      3.566
REMARK  Name = 
REMARK  8 active torsions:
REMARK  status: ('A' for Active; 'I' for Inactive)
REMARK    1  A    between atoms: C_2  and  C_3
REMARK    2  A    between atoms: C_3  and  N_4
REMARK    3  A    between atoms: C_6  and  C_7
REMARK    4  A    between atoms: N_9  and  C_10
REMARK    5  A    between atoms: C_10  and  C_11
REMARK    6  A    between atoms: C_11  and  C_12
REMARK    7  A    between atoms: C_12  and  N_13
REMARK    8  A    between atoms: N_18  and  C_19
REMARK                            x       y       z     vdW  Elec       q    Type
REMARK                         _______ _______ _______ _____ _____    ______ ____
ROOT
ATOM      1  N   UNL     1     -11.117  15.587  70.158  0.00  0.00    -0.269 NA
ATOM      2  C   UNL     1     -11.588  14.666  68.963  0.00  0.00    +0.066 C 
ATOM      3  C   UNL     1      -9.954  14.216  68.626  0.00  0.00    +0.038 C 
ATOM      4  C   UNL     1     -10.422  13.344  67.356  0.00  0.00    -0.020 A 
ATOM      5  C   UNL     1     -11.144  12.258  67.818  0.00  0.00    +0.011 A 
ATOM      6  C   UNL     1     -10.941  10.957  67.391  0.00  0.00    +0.081 A 
ATOM      7  N   UNL     1     -11.772  10.161  68.107  0.00  0.00    -0.244 NA
ATOM      8  C   UNL     1     -12.190  10.897  69.167  0.00  0.00    +0.095 A 
ATOM      9  C   UNL     1     -10.140  10.785  66.277  0.00  0.00    +0.019 A 
ATOM     10  C   UNL     1      -9.422  11.869  65.789  0.00  0.00    +0.001 A 
ATOM     11  C   UNL     1     -11.726  12.193  69.055  0.00  0.00    -0.001 A 
ATOM     12  C   UNL     1      -9.449  13.115  66.406  0.00  0.00    -0.004 A 
ATOM     13  C   UNL     1      -9.727  15.581  67.746  0.00  0.00    +0.016 C 
ATOM     14  C   UNL     1      -9.150  16.418  69.062  0.00  0.00    +0.093 C 
ATOM     15  C   UNL     1     -11.796  13.376  69.967  0.00  0.00    +0.044 C 
ATOM     16  C   UNL     1     -10.690  16.811  69.541  0.00  0.00    +0.081 C 
ENDROOT
BRANCH  14  17
ATOM     17  C   UNL     1      -8.997  17.829  68.280  0.00  0.00    +0.233 C 
ATOM     18  N   UNL     1      -7.775  18.371  68.008  0.00  0.00    -0.213 N 
ATOM     19  C   UNL     1      -6.730  18.689  68.938  0.00  0.00    +0.329 C 
ATOM     20  N   UNL     1      -6.637  20.057  69.357  0.00  0.00    -0.188 NA
ATOM     21  O   UNL     1      -5.595  18.151  68.745  0.00  0.00    -0.250 OA
ATOM     22  O   UNL     1     -10.140  18.315  68.169  0.00  0.00    -0.274 OA
BRANCH  20  23
ATOM     23  C   UNL     1      -5.421  20.622  69.920  0.00  0.00    +0.117 C 
ATOM     24  C   UNL     1      -5.423  20.351  71.401  0.00  0.00    +0.025 C 
ENDBRANCH  20  23
BRANCH  18  25
ATOM     25  C   UNL     1      -7.629  19.045  66.716  0.00  0.00    +0.104 C 
BRANCH  25  26
ATOM     26  C   UNL     1      -6.977  18.083  65.729  0.00  0.00    +0.039 C 
BRANCH  26  27
ATOM     27  C   UNL     1      -5.741  18.662  65.099  0.00  0.00    +0.074 C 
BRANCH  27  28
ATOM     28  N   UNL     1      -5.985  19.269  63.811  0.00  0.00    -0.270 NA
ATOM     29  C   UNL     1      -6.056  20.692  63.959  0.00  0.00    +0.090 C 
ATOM     30  C   UNL     1      -5.022  18.900  62.808  0.00  0.00    +0.090 C 
ENDBRANCH  27  28
ENDBRANCH  26  27
ENDBRANCH  25  26
ENDBRANCH  18  25
ENDBRANCH  14  17
BRANCH   1  31
ATOM     31  C   UNL     1     -12.307  15.807  70.928  0.00  0.00    +0.099 C 
BRANCH  31  33
ATOM     32  C   UNL     1     -12.058  15.993  72.831  0.00  0.00    -0.003 C 
ATOM     33  C   UNL     1     -12.058  16.008  72.375  0.00  0.00    -0.009 C 
ENDBRANCH  31  33
ENDBRANCH   1  31
TORSDOF 8
ENDMDL
MODEL 5
REMARK VINA RESULT:      -6.4      2.958      7.603
REMARK  Name = 
REMARK  8 active torsions:
REMARK  status: ('A' for Active; 'I' for Inactive)
REMARK    1  A    between atoms: C_2  and  C_3
REMARK    2  A    between atoms: C_3  and  N_4
REMARK    3  A    between atoms: C_6  and  C_7
REMARK    4  A    between atoms: N_9  and  C_10
REMARK    5  A    between atoms: C_10  and  C_11
REMARK    6  A    between atoms: C_11  and  C_12
REMARK    7  A    between atoms: C_12  and  N_13
REMARK    8  A    between atoms: N_18  and  C_19
REMARK                            x       y       z     vdW  Elec       q    Type
REMARK                         _______ _______ _______ _____ _____    ______ ____
ROOT
ATOM      1  N   UNL     1      -7.106  18.677  68.158  0.00  0.00    -0.269 NA
ATOM      2  C   UNL     1      -6.500  17.932  69.414  0.00  0.00    +0.066 C 
ATOM      3  C   UNL     1      -6.528  16.424  68.570  0.00  0.00    +0.038 C 
ATOM      4  C   UNL     1      -5.990  15.649  69.874  0.00  0.00    -0.020 A 
ATOM      5  C   UNL     1      -4.689  16.052  70.114  0.00  0.00    +0.011 A 
ATOM      6  C   UNL     1      -3.646  15.182  70.379  0.00  0.00    +0.081 A 
ATOM      7  N   UNL     1      -2.516  15.923  70.487  0.00  0.00    -0.244 NA
ATOM      8  C   UNL     1      -2.801  17.137  69.953  0.00  0.00    +0.095 A 
ATOM      9  C   UNL     1      -3.985  13.868  70.649  0.00  0.00    +0.019 A 
ATOM     10  C   UNL     1      -5.291  13.450  70.431  0.00  0.00    +0.001 A 
ATOM     11  C   UNL     1      -4.139  17.205  69.622  0.00  0.00    -0.001 A 
ATOM     12  C   UNL     1      -6.264  14.297  69.912  0.00  0.00    -0.004 A 
ATOM     13  C   UNL     1      -8.107  16.204  68.953  0.00  0.00    +0.016 C 
ATOM     14  C   UNL     1      -8.621  16.921  67.543  0.00  0.00    +0.093 C 
ATOM     15  C   UNL     1      -4.958  18.243  68.923  0.00  0.00    +0.044 C 
ATOM     16  C   UNL     1      -8.519  18.432  68.223  0.00  0.00    +0.081 C 
ENDROOT
BRANCH  14  17
ATOM     17  C   UNL     1     -10.199  16.830  67.902  0.00  0.00    +0.233 C 
ATOM     18  N   UNL     1     -10.832  15.631  68.060  0.00  0.00    -0.213 N 
ATOM     19  C   UNL     1     -10.908  14.549  67.121  0.00  0.00    +0.329 C 
ATOM     20  N   UNL     1     -12.106  14.460  66.338  0.00  0.00    -0.188 NA
ATOM     21  O   UNL     1     -10.479  13.416  67.503  0.00  0.00    -0.250 OA
ATOM     22  O   UNL     1     -10.663  17.985  67.826  0.00  0.00    -0.274 OA
BRANCH  20  23
ATOM     23  C   UNL     1     -12.526  13.230  65.688  0.00  0.00    +0.117 C 
ATOM     24  C   UNL     1     -12.135  13.311  64.237  0.00  0.00    +0.025 C 
ENDBRANCH  20  23
BRANCH  18  25
ATOM     25  C   UNL     1     -11.844  15.558  69.115  0.00  0.00    +0.104 C 
BRANCH  25  26
ATOM     26  C   UNL     1     -11.146  15.367  70.456  0.00  0.00    +0.039 C 
BRANCH  26  27
ATOM     27  C   UNL     1     -11.876  16.045  71.582  0.00  0.00    +0.074 C 
BRANCH  27  28
ATOM     28  N   UNL     1     -12.705  15.146  72.352  0.00  0.00    -0.270 NA
ATOM     29  C   UNL     1     -12.413  15.304  73.746  0.00  0.00    +0.090 C 
ATOM     30  C   UNL     1     -14.112  15.298  72.097  0.00  0.00    +0.090 C 
ENDBRANCH  27  28
ENDBRANCH  26  27
ENDBRANCH  25  26
ENDBRANCH  18  25
ENDBRANCH  14  17
BRANCH   1  31
ATOM     31  C   UNL     1      -6.830  20.064  68.400  0.00  0.00    +0.099 C 
BRANCH  31  33
ATOM     32  C   UNL     1      -6.425  21.142  66.854  0.00  0.00    -0.003 C 
ATOM     33  C   UNL     1      -6.576  20.850  67.170  0.00  0.00    -0.009 C 
ENDBRANCH  31  33
ENDBRANCH   1  31
TORSDOF 8
ENDMDL
MODEL 6
REMARK VINA RESULT:      -6.3      2.026      4.988
REMARK  Name = 
REMARK  8 active torsions:
REMARK  status: ('A' for Active; 'I' for Inactive)
REMARK    1  A    between atoms: C_2  and  C_3
REMARK    2  A    between atoms: C_3  and  N_4
REMARK    3  A    between atoms: C_6  and  C_7
REMARK    4  A    between atoms: N_9  and  C_10
REMARK    5  A    between atoms: C_10  and  C_11
REMARK    6  A    between atoms: C_11  and  C_12
REMARK    7  A    between atoms: C_12  and  N_13
REMARK    8  A    between atoms: N_18  and  C_19
REMARK                            x       y       z     vdW  Elec       q    Type
REMARK                         _______ _______ _______ _____ _____    ______ ____
ROOT
ATOM      1  N   UNL     1     -10.850  11.861  67.211  0.00  0.00    -0.269 NA
ATOM      2  C   UNL     1     -10.774  12.311  68.724  0.00  0.00    +0.066 C 
ATOM      3  C   UNL     1     -12.002  13.499  68.464  0.00  0.00    +0.038 C 
ATOM      4  C   UNL     1     -11.867  14.016  69.982  0.00  0.00    -0.020 A 
ATOM      5  C   UNL     1     -12.323  13.017  70.823  0.00  0.00    +0.011 A 
ATOM      6  C   UNL     1     -13.203  13.230  71.870  0.00  0.00    +0.081 A 
ATOM      7  N   UNL     1     -13.478  12.022  72.421  0.00  0.00    -0.244 NA
ATOM      8  C   UNL     1     -13.072  11.090  71.523  0.00  0.00    +0.095 A 
ATOM      9  C   UNL     1     -13.441  14.545  72.226  0.00  0.00    +0.019 A 
ATOM     10  C   UNL     1     -12.976  15.561  71.403  0.00  0.00    +0.001 A 
ATOM     11  C   UNL     1     -12.430  11.701  70.464  0.00  0.00    -0.001 A 
ATOM     12  C   UNL     1     -12.311  15.303  70.208  0.00  0.00    -0.004 A 
ATOM     13  C   UNL     1     -10.895  14.561  67.885  0.00  0.00    +0.016 C 
ATOM     14  C   UNL     1     -11.138  14.069  66.315  0.00  0.00    +0.093 C 
ATOM     15  C   UNL     1     -11.885  11.179  69.173  0.00  0.00    +0.044 C 
ATOM     16  C   UNL     1     -10.059  12.821  66.494  0.00  0.00    +0.081 C 
ENDROOT
BRANCH  14  17
ATOM     17  C   UNL     1      -9.986  15.020  65.686  0.00  0.00    +0.233 C 
ATOM     18  N   UNL     1      -9.566  16.154  66.319  0.00  0.00    -0.213 N 
ATOM     19  C   UNL     1     -10.362  17.271  66.738  0.00  0.00    +0.329 C 
ATOM     20  N   UNL     1     -10.374  18.413  65.870  0.00  0.00    -0.188 NA
ATOM     21  O   UNL     1     -10.326  17.583  67.969  0.00  0.00    -0.250 OA
ATOM     22  O   UNL     1      -9.746  14.598  64.538  0.00  0.00    -0.274 OA
BRANCH  20  23
ATOM     23  C   UNL     1     -10.749  19.740  66.330  0.00  0.00    +0.117 C 
ATOM     24  C   UNL     1      -9.546  20.363  66.986  0.00  0.00    +0.025 C 
ENDBRANCH  20  23
BRANCH  18  25
ATOM     25  C   UNL     1      -8.135  16.455  66.242  0.00  0.00    +0.104 C 
BRANCH  25  26
ATOM     26  C   UNL     1      -7.390  15.568  67.232  0.00  0.00    +0.039 C 
BRANCH  26  27
ATOM     27  C   UNL     1      -7.114  16.269  68.533  0.00  0.00    +0.074 C 
BRANCH  27  28
ATOM     28  N   UNL     1      -6.265  17.429  68.390  0.00  0.00    -0.270 NA
ATOM     29  C   UNL     1      -6.898  18.562  68.997  0.00  0.00    +0.090 C 
ATOM     30  C   UNL     1      -4.937  17.239  68.907  0.00  0.00    +0.090 C 
ENDBRANCH  27  28
ENDBRANCH  26  27
ENDBRANCH  25  26
ENDBRANCH  18  25
ENDBRANCH  14  17
BRANCH   1  31
ATOM     31  C   UNL     1     -10.213  10.576  67.189  0.00  0.00    +0.099 C 
BRANCH  31  33
ATOM     32  C   UNL     1     -10.038   9.739  65.461  0.00  0.00    -0.003 C 
ATOM     33  C   UNL     1     -10.054  10.006  65.831  0.00  0.00    -0.009 C 
ENDBRANCH  31  33
ENDBRANCH   1  31
TORSDOF 8
ENDMDL
MODEL 7
REMARK VINA RESULT:      -6.3      2.660      7.950
REMARK  Name = 
REMARK  8 active torsions:
REMARK  status: ('A' for Active; 'I' for Inactive)
REMARK    1  A    between atoms: C_2  and  C_3
REMARK    2  A    between atoms: C_3  and  N_4
REMARK    3  A    between atoms: C_6  and  C_7
REMARK    4  A    between atoms: N_9  and  C_10
REMARK    5  A    between atoms: C_10  and  C_11
REMARK    6  A    between atoms: C_11  and  C_12
REMARK    7  A    between atoms: C_12  and  N_13
REMARK    8  A    between atoms: N_18  and  C_19
REMARK                            x       y       z     vdW  Elec       q    Type
REMARK                         _______ _______ _______ _____ _____    ______ ____
ROOT
ATOM      1  N   UNL     1      -6.595  15.276  68.243  0.00  0.00    -0.269 NA
ATOM      2  C   UNL     1      -7.040  16.429  67.259  0.00  0.00    +0.066 C 
ATOM      3  C   UNL     1      -8.426  16.769  68.235  0.00  0.00    +0.038 C 
ATOM      4  C   UNL     1      -8.927  17.886  67.190  0.00  0.00    -0.020 A 
ATOM      5  C   UNL     1      -8.034  18.943  67.223  0.00  0.00    +0.011 A 
ATOM      6  C   UNL     1      -8.412  20.271  67.311  0.00  0.00    +0.081 A 
ATOM      7  N   UNL     1      -7.278  21.011  67.392  0.00  0.00    -0.244 NA
ATOM      8  C   UNL     1      -6.279  20.148  67.704  0.00  0.00    +0.095 A 
ATOM      9  C   UNL     1      -9.752  20.553  67.117  0.00  0.00    +0.019 A 
ATOM     10  C   UNL     1     -10.660  19.503  67.064  0.00  0.00    +0.001 A 
ATOM     11  C   UNL     1      -6.755  18.852  67.699  0.00  0.00    -0.001 A 
ATOM     12  C   UNL     1     -10.274  18.178  67.239  0.00  0.00    -0.004 A 
ATOM     13  C   UNL     1      -9.267  15.559  67.515  0.00  0.00    +0.016 C 
ATOM     14  C   UNL     1      -8.809  14.457  68.674  0.00  0.00    +0.093 C 
ATOM     15  C   UNL     1      -6.130  17.543  68.063  0.00  0.00    +0.044 C 
ATOM     16  C   UNL     1      -7.390  14.140  67.873  0.00  0.00    +0.081 C 
ENDROOT
BRANCH  14  17
ATOM     17  C   UNL     1      -9.532  13.193  67.963  0.00  0.00    +0.233 C 
ATOM     18  N   UNL     1     -10.832  12.869  68.222  0.00  0.00    -0.213 N 
ATOM     19  C   UNL     1     -11.429  12.588  69.496  0.00  0.00    +0.329 C 
ATOM     20  N   UNL     1     -11.586  11.205  69.841  0.00  0.00    -0.188 NA
ATOM     21  O   UNL     1     -12.420  13.303  69.845  0.00  0.00    -0.250 OA
ATOM     22  O   UNL     1      -8.652  12.566  67.340  0.00  0.00    -0.274 OA
BRANCH  20  23
ATOM     23  C   UNL     1     -12.534  10.754  70.847  0.00  0.00    +0.117 C 
ATOM     24  C   UNL     1     -12.058   9.427  71.374  0.00  0.00    +0.025 C 
ENDBRANCH  20  23
BRANCH  18  25
ATOM     25  C   UNL     1     -11.627  12.392  67.089  0.00  0.00    +0.104 C 
BRANCH  25  26
ATOM     26  C   UNL     1     -12.083  13.591  66.266  0.00  0.00    +0.039 C 
BRANCH  26  27
ATOM     27  C   UNL     1     -11.534  13.566  64.867  0.00  0.00    +0.074 C 
BRANCH  27  28
ATOM     28  N   UNL     1     -11.431  12.234  64.316  0.00  0.00    -0.270 NA
ATOM     29  C   UNL     1     -12.542  11.989  63.445  0.00  0.00    +0.090 C 
ATOM     30  C   UNL     1     -10.183  11.983  63.647  0.00  0.00    +0.090 C 
ENDBRANCH  27  28
ENDBRANCH  26  27
ENDBRANCH  25  26
ENDBRANCH  18  25
ENDBRANCH  14  17
BRANCH   1  31
ATOM     31  C   UNL     1      -5.217  15.045  67.920  0.00  0.00    +0.099 C 
BRANCH  31  33
ATOM     32  C   UNL     1      -4.081  14.385  69.332  0.00  0.00    -0.003 C 
ATOM     33  C   UNL     1      -4.411  14.531  69.053  0.00  0.00    -0.009 C 
ENDBRANCH  31  33
ENDBRANCH   1  31
TORSDOF 8
ENDMDL
MODEL 8
REMARK VINA RESULT:      -6.3      3.030      9.452
REMARK  Name = 
REMARK  8 active torsions:
REMARK  status: ('A' for Active; 'I' for Inactive)
REMARK    1  A    between atoms: C_2  and  C_3
REMARK    2  A    between atoms: C_3  and  N_4
REMARK    3  A    between atoms: C_6  and  C_7
REMARK    4  A    between atoms: N_9  and  C_10
REMARK    5  A    between atoms: C_10  and  C_11
REMARK    6  A    between atoms: C_11  and  C_12
REMARK    7  A    between atoms: C_12  and  N_13
REMARK    8  A    between atoms: N_18  and  C_19
REMARK                            x       y       z     vdW  Elec       q    Type
REMARK                         _______ _______ _______ _____ _____    ______ ____
ROOT
ATOM      1  N   UNL     1      -6.284  19.335  65.907  0.00  0.00    -0.269 NA
ATOM      2  C   UNL     1      -5.980  20.352  67.078  0.00  0.00    +0.066 C 
ATOM      3  C   UNL     1      -5.847  19.053  68.211  0.00  0.00    +0.038 C 
ATOM      4  C   UNL     1      -5.622  20.091  69.421  0.00  0.00    -0.020 A 
ATOM      5  C   UNL     1      -4.398  20.710  69.239  0.00  0.00    +0.011 A 
ATOM      6  C   UNL     1      -3.453  20.862  70.239  0.00  0.00    +0.081 A 
ATOM      7  N   UNL     1      -2.362  21.443  69.682  0.00  0.00    -0.244 NA
ATOM      8  C   UNL     1      -2.503  21.313  68.339  0.00  0.00    +0.095 A 
ATOM      9  C   UNL     1      -3.864  20.590  71.532  0.00  0.00    +0.019 A 
ATOM     10  C   UNL     1      -5.097  19.986  71.734  0.00  0.00    +0.001 A 
ATOM     11  C   UNL     1      -3.735  20.765  68.044  0.00  0.00    -0.001 A 
ATOM     12  C   UNL     1      -5.919  19.606  70.678  0.00  0.00    -0.004 A 
ATOM     13  C   UNL     1      -7.475  19.013  68.402  0.00  0.00    +0.016 C 
ATOM     14  C   UNL     1      -7.656  17.862  67.214  0.00  0.00    +0.093 C 
ATOM     15  C   UNL     1      -4.363  20.317  66.763  0.00  0.00    +0.044 C 
ATOM     16  C   UNL     1      -7.681  19.026  66.031  0.00  0.00    +0.081 C 
ENDROOT
BRANCH  14  17
ATOM     17  C   UNL     1      -9.276  17.845  67.276  0.00  0.00    +0.233 C 
ATOM     18  N   UNL     1      -9.979  16.678  67.350  0.00  0.00    -0.213 N 
ATOM     19  C   UNL     1      -9.928  15.564  66.448  0.00  0.00    +0.329 C 
ATOM     20  N   UNL     1     -10.964  15.490  65.458  0.00  0.00    -0.188 NA
ATOM     21  O   UNL     1      -9.628  14.431  66.938  0.00  0.00    -0.250 OA
ATOM     22  O   UNL     1      -9.666  19.013  67.079  0.00  0.00    -0.274 OA
BRANCH  20  23
ATOM     23  C   UNL     1     -11.310  14.252  64.780  0.00  0.00    +0.117 C 
ATOM     24  C   UNL     1     -12.603  13.747  65.362  0.00  0.00    +0.025 C 
ENDBRANCH  20  23
BRANCH  18  25
ATOM     25  C   UNL     1     -11.171  16.684  68.200  0.00  0.00    +0.104 C 
BRANCH  25  26
ATOM     26  C   UNL     1     -10.766  16.311  69.621  0.00  0.00    +0.039 C 
BRANCH  26  27
ATOM     27  C   UNL     1     -11.678  15.278  70.223  0.00  0.00    +0.074 C 
BRANCH  27  28
ATOM     28  N   UNL     1     -12.596  15.822  71.197  0.00  0.00    -0.270 NA
ATOM     29  C   UNL     1     -13.707  14.931  71.357  0.00  0.00    +0.090 C 
ATOM     30  C   UNL     1     -11.984  16.119  72.464  0.00  0.00    +0.090 C 
ENDBRANCH  27  28
ENDBRANCH  26  27
ENDBRANCH  25  26
ENDBRANCH  18  25
ENDBRANCH  14  17
BRANCH   1  31
ATOM     31  C   UNL     1      -6.045  20.089  64.710  0.00  0.00    +0.099 C 
BRANCH  31  33
ATOM     32  C   UNL     1      -5.378  19.092  63.200  0.00  0.00    -0.003 C 
ATOM     33  C   UNL     1      -5.476  19.290  63.599  0.00  0.00    -0.009 C 
ENDBRANCH  31  33
ENDBRANCH   1  31
TORSDOF 8
ENDMDL
MODEL 9
REMARK VINA RESULT:      -6.3      3.088      8.909
REMARK  Name = 
REMARK  8 active torsions:
REMARK  status: ('A' for Active; 'I' for Inactive)
REMARK    1  A    between atoms: C_2  and  C_3
REMARK    2  A    between atoms: C_3  and  N_4
REMARK    3  A    between atoms: C_6  and  C_7
REMARK    4  A    between atoms: N_9  and  C_10
REMARK    5  A    between atoms: C_10  and  C_11
REMARK    6  A    between atoms: C_11  and  C_12
REMARK    7  A    between atoms: C_12  and  N_13
REMARK    8  A    between atoms: N_18  and  C_19
REMARK                            x       y       z     vdW  Elec       q    Type
REMARK                         _______ _______ _______ _____ _____    ______ ____
ROOT
ATOM      1  N   UNL     1      -5.695  19.121  69.195  0.00  0.00    -0.269 NA
ATOM      2  C   UNL     1      -4.814  19.066  67.884  0.00  0.00    +0.066 C 
ATOM      3  C   UNL     1      -6.190  19.440  66.907  0.00  0.00    +0.038 C 
ATOM      4  C   UNL     1      -5.314  19.302  65.564  0.00  0.00    -0.020 A 
ATOM      5  C   UNL     1      -4.397  20.338  65.536  0.00  0.00    +0.011 A 
ATOM      6  C   UNL     1      -4.165  21.134  64.428  0.00  0.00    +0.081 A 
ATOM      7  N   UNL     1      -3.263  22.080  64.789  0.00  0.00    -0.244 NA
ATOM      8  C   UNL     1      -3.229  22.078  66.145  0.00  0.00    +0.095 A 
ATOM      9  C   UNL     1      -4.711  20.710  63.230  0.00  0.00    +0.019 A 
ATOM     10  C   UNL     1      -5.619  19.660  63.238  0.00  0.00    +0.001 A 
ATOM     11  C   UNL     1      -4.012  21.053  66.636  0.00  0.00    -0.001 A 
ATOM     12  C   UNL     1      -6.032  19.044  64.415  0.00  0.00    -0.004 A 
ATOM     13  C   UNL     1      -6.652  17.866  66.901  0.00  0.00    +0.016 C 
ATOM     14  C   UNL     1      -7.628  18.075  68.231  0.00  0.00    +0.093 C 
ATOM     15  C   UNL     1      -4.410  20.658  68.023  0.00  0.00    +0.044 C 
ATOM     16  C   UNL     1      -6.348  17.844  69.262  0.00  0.00    +0.081 C 
ENDROOT
BRANCH  14  17
ATOM     17  C   UNL     1      -8.047  16.513  68.348  0.00  0.00    +0.233 C 
ATOM     18  N   UNL     1      -9.349  16.112  68.282  0.00  0.00    -0.213 N 
ATOM     19  C   UNL     1     -10.443  16.543  69.104  0.00  0.00    +0.329 C 
ATOM     20  N   UNL     1     -10.803  15.686  70.196  0.00  0.00    -0.188 NA
ATOM     21  O   UNL     1     -11.449  17.048  68.517  0.00  0.00    -0.250 OA
ATOM     22  O   UNL     1      -7.020  15.878  68.658  0.00  0.00    -0.274 OA
BRANCH  20  23
ATOM     23  C   UNL     1     -12.109  15.737  70.833  0.00  0.00    +0.117 C 
ATOM     24  C   UNL     1     -11.910  16.109  72.277  0.00  0.00    +0.025 C 
ENDBRANCH  20  23
BRANCH  18  25
ATOM     25  C   UNL     1      -9.614  14.860  67.572  0.00  0.00    +0.104 C 
BRANCH  25  26
ATOM     26  C   UNL     1      -9.446  15.095  66.076  0.00  0.00    +0.039 C 
BRANCH  26  27
ATOM     27  C   UNL     1     -10.726  15.529  65.417  0.00  0.00    +0.074 C 
BRANCH  27  28
ATOM     28  N   UNL     1     -11.429  14.449  64.764  0.00  0.00    -0.270 NA
ATOM     29  C   UNL     1     -10.515  13.380  64.490  0.00  0.00    +0.090 C 
ATOM     30  C   UNL     1     -12.571  13.977  65.500  0.00  0.00    +0.090 C 
ENDBRANCH  27  28
ENDBRANCH  26  27
ENDBRANCH  25  26
ENDBRANCH  18  25
ENDBRANCH  14  17
BRANCH   1  31
ATOM     31  C   UNL     1      -4.742  19.249  70.259  0.00  0.00    +0.099 C 
BRANCH  31  33
ATOM     32  C   UNL     1      -5.531  20.131  71.782  0.00  0.00    -0.003 C 
ATOM     33  C   UNL     1      -5.280  19.908  71.472  0.00  0.00    -0.009 C 
ENDBRANCH  31  33
ENDBRANCH   1  31
TORSDOF 8
ENDMDL
