MODEL 1
REMARK VINA RESULT:      -6.5      0.000      0.000
REMARK  Name = 
REMARK  11 active torsions:
REMARK  status: ('A' for Active; 'I' for Inactive)
REMARK    1  A    between atoms: C_2  and  C_3
REMARK    2  A    between atoms: C_3  and  N_4
REMARK    3  A    between atoms: N_4  and  C_5
REMARK    4  A    between atoms: C_5  and  C_6
REMARK    5  A    between atoms: C_6  and  C_8
REMARK    6  A    between atoms: C_8  and  O_9
REMARK    7  A    between atoms: O_9  and  C_10
REMARK    8  A    between atoms: C_15  and  C_16
REMARK    9  A    between atoms: C_16  and  C_18
REMARK   10  A    between atoms: C_18  and  C_19
REMARK   11  A    between atoms: C_19  and  C_20
REMARK                            x       y       z     vdW  Elec       q    Type
REMARK                         _______ _______ _______ _____ _____    ______ ____
ROOT
ATOM      1  C   UNL     1     -10.178  17.328  66.676  0.00  0.00    +0.141 A 
ATOM      2  C   UNL     1      -9.915  17.380  68.032  0.00  0.00    +0.069 A 
ATOM      3  C   UNL     1     -10.046  18.601  68.644  0.00  0.00    +0.006 A 
ATOM      4  C   UNL     1     -10.262  19.757  67.902  0.00  0.00    +0.000 A 
ATOM      5  C   UNL     1     -10.050  19.684  66.535  0.00  0.00    +0.003 A 
ATOM      6  C   UNL     1     -10.213  18.471  65.887  0.00  0.00    +0.037 A 
ENDROOT
BRANCH   2   7
ATOM      7  C   UNL     1      -9.425  16.180  68.677  0.00  0.00    +0.176 C 
ATOM      8  O   UNL     1      -8.177  15.958  68.740  0.00  0.00    -0.291 OA
BRANCH   7   9
ATOM      9  C   UNL     1     -10.263  15.330  69.574  0.00  0.00    +0.074 C 
BRANCH   9  10
ATOM     10  C   UNL     1     -11.733  15.518  69.325  0.00  0.00    +0.034 C 
BRANCH  10  11
ATOM     11  C   UNL     1     -12.405  15.632  70.647  0.00  0.00    -0.022 A 
ATOM     12  C   UNL     1     -13.480  14.825  70.997  0.00  0.00    -0.004 A 
ATOM     13  C   UNL     1     -14.186  15.216  72.125  0.00  0.00    -0.000 A 
ATOM     14  C   UNL     1     -13.455  15.642  73.227  0.00  0.00    -0.000 A 
ATOM     15  C   UNL     1     -12.218  16.208  72.955  0.00  0.00    -0.000 A 
ATOM     16  C   UNL     1     -11.631  16.092  71.706  0.00  0.00    -0.004 A 
ENDBRANCH  10  11
ENDBRANCH   9  10
ENDBRANCH   7   9
ENDBRANCH   2   7
BRANCH   1  17
ATOM     17  O   UNL     1     -10.485  16.070  66.149  0.00  0.00    -0.473 OA
BRANCH  17  18
ATOM     18  C   UNL     1     -11.206  15.955  64.941  0.00  0.00    +0.240 C 
BRANCH  18  19
ATOM     19  C   UNL     1     -11.231  14.294  64.680  0.00  0.00    +0.213 C 
ATOM     20  O   UNL     1     -12.519  14.413  63.832  0.00  0.00    -0.218 OA
BRANCH  19  21
ATOM     21  C   UNL     1     -12.135  14.051  66.077  0.00  0.00    +0.125 C 
BRANCH  21  22
ATOM     22  N   UNL     1     -12.337  12.607  66.011  0.00  0.00    -0.215 NA
BRANCH  22  23
ATOM     23  C   UNL     1     -11.270  11.972  66.771  0.00  0.00    +0.089 C 
BRANCH  23  25
ATOM     24  C   UNL     1     -11.851  11.580  68.754  0.00  0.00    +0.002 C 
ATOM     25  C   UNL     1     -11.592  12.055  68.249  0.00  0.00    +0.019 C 
ENDBRANCH  23  25
ENDBRANCH  22  23
ENDBRANCH  21  22
ENDBRANCH  19  21
ENDBRANCH  18  19
ENDBRANCH  17  18
ENDBRANCH   1  17
TORSDOF 11
ENDMDL
MODEL 2
REMARK VINA RESULT:      -6.2      2.754      5.696
REMARK  Name = 
REMARK  11 active torsions:
REMARK  status: ('A' for Active; 'I' for Inactive)
REMARK    1  A    between atoms: C_2  and  C_3
REMARK    2  A    between atoms: C_3  and  N_4
REMARK    3  A    between atoms: N_4  and  C_5
REMARK    4  A    between atoms: C_5  and  C_6
REMARK    5  A    between atoms: C_6  and  C_8
REMARK    6  A    between atoms: C_8  and  O_9
REMARK    7  A    between atoms: O_9  and  C_10
REMARK    8  A    between atoms: C_15  and  C_16
REMARK    9  A    between atoms: C_16  and  C_18
REMARK   10  A    between atoms: C_18  and  C_19
REMARK   11  A    between atoms: C_19  and  C_20
REMARK                            x       y       z     vdW  Elec       q    Type
REMARK                         _______ _______ _______ _____ _____    ______ ____
ROOT
ATOM      1  C   UNL     1     -11.864  13.083  66.164  0.00  0.00    +0.141 A 
ATOM      2  C   UNL     1     -10.907  12.092  66.263  0.00  0.00    +0.069 A 
ATOM      3  C   UNL     1     -10.393  11.602  65.089  0.00  0.00    +0.006 A 
ATOM      4  C   UNL     1     -10.937  11.964  63.862  0.00  0.00    +0.000 A 
ATOM      5  C   UNL     1     -12.174  12.587  63.873  0.00  0.00    +0.003 A 
ATOM      6  C   UNL     1     -12.549  13.330  64.980  0.00  0.00    +0.037 A 
ENDROOT
BRANCH   2   7
ATOM      7  C   UNL     1     -10.596  11.575  67.581  0.00  0.00    +0.176 C 
ATOM      8  O   UNL     1      -9.562  11.982  68.193  0.00  0.00    -0.291 OA
BRANCH   7   9
ATOM      9  C   UNL     1     -11.581  10.836  68.425  0.00  0.00    +0.074 C 
BRANCH   9  10
ATOM     10  C   UNL     1     -11.792  11.494  69.760  0.00  0.00    +0.034 C 
BRANCH  10  11
ATOM     11  C   UNL     1     -11.916  10.418  70.779  0.00  0.00    -0.022 A 
ATOM     12  C   UNL     1     -13.147   9.886  71.139  0.00  0.00    -0.004 A 
ATOM     13  C   UNL     1     -13.156   9.103  72.284  0.00  0.00    -0.000 A 
ATOM     14  C   UNL     1     -12.112   8.202  72.456  0.00  0.00    -0.000 A 
ATOM     15  C   UNL     1     -10.906   8.547  71.862  0.00  0.00    -0.000 A 
ATOM     16  C   UNL     1     -10.829   9.565  70.927  0.00  0.00    -0.004 A 
ENDBRANCH  10  11
ENDBRANCH   9  10
ENDBRANCH   7   9
ENDBRANCH   2   7
BRANCH   1  17
ATOM     17  O   UNL     1     -12.057  13.881  67.295  0.00  0.00    -0.473 OA
BRANCH  17  18
ATOM     18  C   UNL     1     -11.280  15.042  67.495  0.00  0.00    +0.240 C 
BRANCH  18  19
ATOM     19  C   UNL     1     -11.979  15.726  68.862  0.00  0.00    +0.213 C 
ATOM     20  O   UNL     1     -11.219  17.053  68.628  0.00  0.00    -0.218 OA
BRANCH  19  21
ATOM     21  C   UNL     1     -10.734  15.147  69.833  0.00  0.00    +0.125 C 
BRANCH  21  22
ATOM     22  N   UNL     1     -11.370  15.217  71.145  0.00  0.00    -0.215 NA
BRANCH  22  23
ATOM     23  C   UNL     1     -12.772  14.858  70.981  0.00  0.00    +0.089 C 
BRANCH  23  25
ATOM     24  C   UNL     1     -13.811  13.586  72.295  0.00  0.00    +0.002 C 
ATOM     25  C   UNL     1     -13.189  13.943  72.115  0.00  0.00    +0.019 C 
ENDBRANCH  23  25
ENDBRANCH  22  23
ENDBRANCH  21  22
ENDBRANCH  19  21
ENDBRANCH  18  19
ENDBRANCH  17  18
ENDBRANCH   1  17
TORSDOF 11
ENDMDL
MODEL 3
REMARK VINA RESULT:      -6.1      2.226      4.721
REMARK  Name = 
REMARK  11 active torsions:
REMARK  status: ('A' for Active; 'I' for Inactive)
REMARK    1  A    between atoms: C_2  and  C_3
REMARK    2  A    between atoms: C_3  and  N_4
REMARK    3  A    between atoms: N_4  and  C_5
REMARK    4  A    between atoms: C_5  and  C_6
REMARK    5  A    between atoms: C_6  and  C_8
REMARK    6  A    between atoms: C_8  and  O_9
REMARK    7  A    between atoms: O_9  and  C_10
REMARK    8  A    between atoms: C_15  and  C_16
REMARK    9  A    between atoms: C_16  and  C_18
REMARK   10  A    between atoms: C_18  and  C_19
REMARK   11  A    between atoms: C_19  and  C_20
REMARK                            x       y       z     vdW  Elec       q    Type
REMARK                         _______ _______ _______ _____ _____    ______ ____
ROOT
ATOM      1  C   UNL     1     -10.828  15.485  65.929  0.00  0.00    +0.141 A 
ATOM      2  C   UNL     1     -11.428  14.780  66.956  0.00  0.00    +0.069 A 
ATOM      3  C   UNL     1     -12.198  13.701  66.603  0.00  0.00    +0.006 A 
ATOM      4  C   UNL     1     -12.498  13.438  65.271  0.00  0.00    +0.000 A 
ATOM      5  C   UNL     1     -12.250  14.445  64.352  0.00  0.00    +0.003 A 
ATOM      6  C   UNL     1     -11.248  15.366  64.610  0.00  0.00    +0.037 A 
ENDROOT
BRANCH   2   7
ATOM      7  C   UNL     1     -11.286  15.290  68.304  0.00  0.00    +0.176 C 
ATOM      8  O   UNL     1     -11.846  16.380  68.631  0.00  0.00    -0.291 OA
BRANCH   7   9
ATOM      9  C   UNL     1     -10.800  14.462  69.447  0.00  0.00    +0.074 C 
BRANCH   9  10
ATOM     10  C   UNL     1     -11.896  13.633  70.056  0.00  0.00    +0.034 C 
BRANCH  10  11
ATOM     11  C   UNL     1     -12.417  14.369  71.238  0.00  0.00    -0.022 A 
ATOM     12  C   UNL     1     -11.599  15.174  72.021  0.00  0.00    -0.004 A 
ATOM     13  C   UNL     1     -12.132  15.573  73.238  0.00  0.00    -0.000 A 
ATOM     14  C   UNL     1     -13.460  15.980  73.257  0.00  0.00    -0.000 A 
ATOM     15  C   UNL     1     -14.284  15.416  72.294  0.00  0.00    -0.000 A 
ATOM     16  C   UNL     1     -13.760  14.724  71.214  0.00  0.00    -0.004 A 
ENDBRANCH  10  11
ENDBRANCH   9  10
ENDBRANCH   7   9
ENDBRANCH   2   7
BRANCH   1  17
ATOM     17  O   UNL     1      -9.722  16.268  66.273  0.00  0.00    -0.473 OA
BRANCH  17  18
ATOM     18  C   UNL     1      -8.421  15.724  66.246  0.00  0.00    +0.240 C 
BRANCH  18  19
ATOM     19  C   UNL     1      -7.449  17.070  66.508  0.00  0.00    +0.213 C 
ATOM     20  O   UNL     1      -6.248  16.171  66.887  0.00  0.00    -0.218 OA
BRANCH  19  21
ATOM     21  C   UNL     1      -7.935  17.153  68.116  0.00  0.00    +0.125 C 
BRANCH  21  22
ATOM     22  N   UNL     1      -8.022  18.600  68.290  0.00  0.00    -0.215 NA
BRANCH  22  23
ATOM     23  C   UNL     1      -9.411  18.933  68.575  0.00  0.00    +0.089 C 
BRANCH  23  25
ATOM     24  C   UNL     1     -10.741  19.603  67.090  0.00  0.00    +0.002 C 
ATOM     25  C   UNL     1     -10.047  19.527  67.335  0.00  0.00    +0.019 C 
ENDBRANCH  23  25
ENDBRANCH  22  23
ENDBRANCH  21  22
ENDBRANCH  19  21
ENDBRANCH  18  19
ENDBRANCH  17  18
ENDBRANCH   1  17
TORSDOF 11
ENDMDL
MODEL 4
REMARK VINA RESULT:      -6.0      1.857      5.548
REMARK  Name = 
REMARK  11 active torsions:
REMARK  status: ('A' for Active; 'I' for Inactive)
REMARK    1  A    between atoms: C_2  and  C_3
REMARK    2  A    between atoms: C_3  and  N_4
REMARK    3  A    between atoms: N_4  and  C_5
REMARK    4  A    between atoms: C_5  and  C_6
REMARK    5  A    between atoms: C_6  and  C_8
REMARK    6  A    between atoms: C_8  and  O_9
REMARK    7  A    between atoms: O_9  and  C_10
REMARK    8  A    between atoms: C_15  and  C_16
REMARK    9  A    between atoms: C_16  and  C_18
REMARK   10  A    between atoms: C_18  and  C_19
REMARK   11  A    between atoms: C_19  and  C_20
REMARK                            x       y       z     vdW  Elec       q    Type
REMARK                         _______ _______ _______ _____ _____    ______ ____
ROOT
ATOM      1  C   UNL     1     -12.213  13.647  70.761  0.00  0.00    +0.141 A 
ATOM      2  C   UNL     1     -11.605  14.865  70.992  0.00  0.00    +0.069 A 
ATOM      3  C   UNL     1     -11.812  15.442  72.220  0.00  0.00    +0.006 A 
ATOM      4  C   UNL     1     -12.730  14.908  73.118  0.00  0.00    +0.000 A 
ATOM      5  C   UNL     1     -13.625  13.969  72.630  0.00  0.00    +0.003 A 
ATOM      6  C   UNL     1     -13.263  13.186  71.547  0.00  0.00    +0.037 A 
ENDROOT
BRANCH   2   7
ATOM      7  C   UNL     1     -10.887  15.487  69.898  0.00  0.00    +0.176 C 
ATOM      8  O   UNL     1      -9.639  15.302  69.773  0.00  0.00    -0.291 OA
BRANCH   7   9
ATOM      9  C   UNL     1     -11.562  16.071  68.702  0.00  0.00    +0.074 C 
BRANCH   9  10
ATOM     10  C   UNL     1     -10.598  16.349  67.583  0.00  0.00    +0.034 C 
BRANCH  10  11
ATOM     11  C   UNL     1     -10.422  17.822  67.492  0.00  0.00    -0.022 A 
ATOM     12  C   UNL     1      -9.749  18.543  68.470  0.00  0.00    -0.004 A 
ATOM     13  C   UNL     1      -9.896  19.921  68.413  0.00  0.00    -0.000 A 
ATOM     14  C   UNL     1      -9.832  20.525  67.163  0.00  0.00    -0.000 A 
ATOM     15  C   UNL     1     -10.227  19.742  66.088  0.00  0.00    -0.000 A 
ATOM     16  C   UNL     1     -10.395  18.373  66.217  0.00  0.00    -0.004 A 
ENDBRANCH  10  11
ENDBRANCH   9  10
ENDBRANCH   7   9
ENDBRANCH   2   7
BRANCH   1  17
ATOM     17  O   UNL     1     -11.669  12.861  69.741  0.00  0.00    -0.473 OA
BRANCH  17  18
ATOM     18  C   UNL     1     -12.016  11.499  69.622  0.00  0.00    +0.240 C 
BRANCH  18  19
ATOM     19  C   UNL     1     -11.269  11.049  68.185  0.00  0.00    +0.213 C 
ATOM     20  O   UNL     1      -9.928  11.664  68.651  0.00  0.00    -0.218 OA
BRANCH  19  21
ATOM     21  C   UNL     1     -11.717  12.496  67.456  0.00  0.00    +0.125 C 
BRANCH  21  22
ATOM     22  N   UNL     1     -12.007  12.030  66.103  0.00  0.00    -0.215 NA
BRANCH  22  23
ATOM     23  C   UNL     1     -11.552  13.053  65.172  0.00  0.00    +0.089 C 
BRANCH  23  25
ATOM     24  C   UNL     1     -12.319  12.130  63.444  0.00  0.00    +0.002 C 
ATOM     25  C   UNL     1     -12.088  12.742  63.788  0.00  0.00    +0.019 C 
ENDBRANCH  23  25
ENDBRANCH  22  23
ENDBRANCH  21  22
ENDBRANCH  19  21
ENDBRANCH  18  19
ENDBRANCH  17  18
ENDBRANCH   1  17
TORSDOF 11
ENDMDL
MODEL 5
REMARK VINA RESULT:      -6.0      2.726      6.012
REMARK  Name = 
REMARK  11 active torsions:
REMARK  status: ('A' for Active; 'I' for Inactive)
REMARK    1  A    between atoms: C_2  and  C_3
REMARK    2  A    between atoms: C_3  and  N_4
REMARK    3  A    between atoms: N_4  and  C_5
REMARK    4  A    between atoms: C_5  and  C_6
REMARK    5  A    between atoms: C_6  and  C_8
REMARK    6  A    between atoms: C_8  and  O_9
REMARK    7  A    between atoms: O_9  and  C_10
REMARK    8  A    between atoms: C_15  and  C_16
REMARK    9  A    between atoms: C_16  and  C_18
REMARK   10  A    between atoms: C_18  and  C_19
REMARK   11  A    between atoms: C_19  and  C_20
REMARK                            x       y       z     vdW  Elec       q    Type
REMARK                         _______ _______ _______ _____ _____    ______ ____
ROOT
ATOM      1  C   UNL     1     -11.692  13.254  65.944  0.00  0.00    +0.141 A 
ATOM      2  C   UNL     1     -10.818  12.192  66.072  0.00  0.00    +0.069 A 
ATOM      3  C   UNL     1     -10.349  11.628  64.911  0.00  0.00    +0.006 A 
ATOM      4  C   UNL     1     -10.866  11.998  63.675  0.00  0.00    +0.000 A 
ATOM      5  C   UNL     1     -12.048  12.720  63.669  0.00  0.00    +0.003 A 
ATOM      6  C   UNL     1     -12.358  13.522  64.754  0.00  0.00    +0.037 A 
ENDROOT
BRANCH   2   7
ATOM      7  C   UNL     1     -10.547  11.690  67.403  0.00  0.00    +0.176 C 
ATOM      8  O   UNL     1      -9.522  12.090  68.034  0.00  0.00    -0.291 OA
BRANCH   7   9
ATOM      9  C   UNL     1     -11.563  10.978  68.234  0.00  0.00    +0.074 C 
BRANCH   9  10
ATOM     10  C   UNL     1     -11.778  11.643  69.564  0.00  0.00    +0.034 C 
BRANCH  10  11
ATOM     11  C   UNL     1     -11.885  10.575  70.593  0.00  0.00    -0.022 A 
ATOM     12  C   UNL     1     -13.111  10.058  70.990  0.00  0.00    -0.004 A 
ATOM     13  C   UNL     1     -13.096   9.282  72.140  0.00  0.00    -0.000 A 
ATOM     14  C   UNL     1     -12.058   8.370  72.287  0.00  0.00    -0.000 A 
ATOM     15  C   UNL     1     -10.865   8.698  71.658  0.00  0.00    -0.000 A 
ATOM     16  C   UNL     1     -10.803   9.711  70.714  0.00  0.00    -0.004 A 
ENDBRANCH  10  11
ENDBRANCH   9  10
ENDBRANCH   7   9
ENDBRANCH   2   7
BRANCH   1  17
ATOM     17  O   UNL     1     -11.816  14.098  67.052  0.00  0.00    -0.473 OA
BRANCH  17  18
ATOM     18  C   UNL     1     -11.042  15.273  67.149  0.00  0.00    +0.240 C 
BRANCH  18  19
ATOM     19  C   UNL     1     -10.720  15.372  68.796  0.00  0.00    +0.213 C 
ATOM     20  O   UNL     1     -11.964  16.264  69.019  0.00  0.00    -0.218 OA
BRANCH  19  21
ATOM     21  C   UNL     1      -9.751  16.726  68.563  0.00  0.00    +0.125 C 
BRANCH  21  22
ATOM     22  N   UNL     1     -10.765  17.721  68.227  0.00  0.00    -0.215 NA
BRANCH  22  23
ATOM     23  C   UNL     1     -10.092  18.998  68.038  0.00  0.00    +0.089 C 
BRANCH  23  25
ATOM     24  C   UNL     1     -10.455  19.548  66.040  0.00  0.00    +0.002 C 
ATOM     25  C   UNL     1     -10.593  19.643  66.761  0.00  0.00    +0.019 C 
ENDBRANCH  23  25
ENDBRANCH  22  23
ENDBRANCH  21  22
ENDBRANCH  19  21
ENDBRANCH  18  19
ENDBRANCH  17  18
ENDBRANCH   1  17
TORSDOF 11
ENDMDL
MODEL 6
REMARK VINA RESULT:      -6.0      2.196      5.208
REMARK  Name = 
REMARK  11 active torsions:
REMARK  status: ('A' for Active; 'I' for Inactive)
REMARK    1  A    between atoms: C_2  and  C_3
REMARK    2  A    between atoms: C_3  and  N_4
REMARK    3  A    between atoms: N_4  and  C_5
REMARK    4  A    between atoms: C_5  and  C_6
REMARK    5  A    between atoms: C_6  and  C_8
REMARK    6  A    between atoms: C_8  and  O_9
REMARK    7  A    between atoms: O_9  and  C_10
REMARK    8  A    between atoms: C_15  and  C_16
REMARK    9  A    between atoms: C_16  and  C_18
REMARK   10  A    between atoms: C_18  and  C_19
REMARK   11  A    between atoms: C_19  and  C_20
REMARK                            x       y       z     vdW  Elec       q    Type
REMARK                         _______ _______ _______ _____ _____    ______ ____
ROOT
ATOM      1  C   UNL     1     -10.980  12.101  65.707  0.00  0.00    +0.141 A 
ATOM      2  C   UNL     1     -10.701  11.529  66.934  0.00  0.00    +0.069 A 
ATOM      3  C   UNL     1      -9.801  10.492  66.946  0.00  0.00    +0.006 A 
ATOM      4  C   UNL     1      -9.331   9.936  65.763  0.00  0.00    +0.000 A 
ATOM      5  C   UNL     1     -10.007  10.255  64.596  0.00  0.00    +0.003 A 
ATOM      6  C   UNL     1     -10.677  11.464  64.510  0.00  0.00    +0.037 A 
ENDROOT
BRANCH   2   7
ATOM      7  C   UNL     1     -11.448  11.989  68.086  0.00  0.00    +0.176 C 
ATOM      8  O   UNL     1     -12.379  11.273  68.565  0.00  0.00    -0.291 OA
BRANCH   7   9
ATOM      9  C   UNL     1     -10.993  13.105  68.967  0.00  0.00    +0.074 C 
BRANCH   9  10
ATOM     10  C   UNL     1     -11.960  14.254  68.976  0.00  0.00    +0.034 C 
BRANCH  10  11
ATOM     11  C   UNL     1     -12.327  14.525  70.392  0.00  0.00    -0.022 A 
ATOM     12  C   UNL     1     -12.770  13.519  71.241  0.00  0.00    -0.004 A 
ATOM     13  C   UNL     1     -13.340  13.942  72.433  0.00  0.00    -0.000 A 
ATOM     14  C   UNL     1     -12.717  14.982  73.112  0.00  0.00    -0.000 A 
ATOM     15  C   UNL     1     -12.003  15.878  72.330  0.00  0.00    -0.000 A 
ATOM     16  C   UNL     1     -11.693  15.595  71.010  0.00  0.00    -0.004 A 
ENDBRANCH  10  11
ENDBRANCH   9  10
ENDBRANCH   7   9
ENDBRANCH   2   7
BRANCH   1  17
ATOM     17  O   UNL     1     -11.514  13.393  65.729  0.00  0.00    -0.473 OA
BRANCH  17  18
ATOM     18  C   UNL     1     -11.135  14.342  64.756  0.00  0.00    +0.240 C 
BRANCH  18  19
ATOM     19  C   UNL     1     -11.273  15.798  65.584  0.00  0.00    +0.213 C 
ATOM     20  O   UNL     1     -11.158  16.598  64.265  0.00  0.00    -0.218 OA
BRANCH  19  21
ATOM     21  C   UNL     1      -9.608  15.870  65.810  0.00  0.00    +0.125 C 
BRANCH  21  22
ATOM     22  N   UNL     1      -9.407  17.316  65.820  0.00  0.00    -0.215 NA
BRANCH  22  23
ATOM     23  C   UNL     1      -9.715  17.800  67.158  0.00  0.00    +0.089 C 
BRANCH  23  25
ATOM     24  C   UNL     1     -10.583  19.617  66.548  0.00  0.00    +0.002 C 
ATOM     25  C   UNL     1     -10.519  19.081  67.054  0.00  0.00    +0.019 C 
ENDBRANCH  23  25
ENDBRANCH  22  23
ENDBRANCH  21  22
ENDBRANCH  19  21
ENDBRANCH  18  19
ENDBRANCH  17  18
ENDBRANCH   1  17
TORSDOF 11
ENDMDL
MODEL 7
REMARK VINA RESULT:      -5.9      2.888      6.000
REMARK  Name = 
REMARK  11 active torsions:
REMARK  status: ('A' for Active; 'I' for Inactive)
REMARK    1  A    between atoms: C_2  and  C_3
REMARK    2  A    between atoms: C_3  and  N_4
REMARK    3  A    between atoms: N_4  and  C_5
REMARK    4  A    between atoms: C_5  and  C_6
REMARK    5  A    between atoms: C_6  and  C_8
REMARK    6  A    between atoms: C_8  and  O_9
REMARK    7  A    between atoms: O_9  and  C_10
REMARK    8  A    between atoms: C_15  and  C_16
REMARK    9  A    between atoms: C_16  and  C_18
REMARK   10  A    between atoms: C_18  and  C_19
REMARK   11  A    between atoms: C_19  and  C_20
REMARK                            x       y       z     vdW  Elec       q    Type
REMARK                         _______ _______ _______ _____ _____    ______ ____
ROOT
ATOM      1  C   UNL     1     -12.568  14.215  71.053  0.00  0.00    +0.141 A 
ATOM      2  C   UNL     1     -11.751  15.329  71.053  0.00  0.00    +0.069 A 
ATOM      3  C   UNL     1     -11.859  16.180  72.125  0.00  0.00    +0.006 A 
ATOM      4  C   UNL     1     -12.862  16.017  73.072  0.00  0.00    +0.000 A 
ATOM      5  C   UNL     1     -13.909  15.167  72.751  0.00  0.00    +0.003 A 
ATOM      6  C   UNL     1     -13.687  14.121  71.871  0.00  0.00    +0.037 A 
ENDROOT
BRANCH   2   7
ATOM      7  C   UNL     1     -10.927  15.569  69.886  0.00  0.00    +0.176 C 
ATOM      8  O   UNL     1      -9.709  15.216  69.887  0.00  0.00    -0.291 OA
BRANCH   7   9
ATOM      9  C   UNL     1     -11.486  15.908  68.544  0.00  0.00    +0.074 C 
BRANCH   9  10
ATOM     10  C   UNL     1     -10.411  16.247  67.550  0.00  0.00    +0.034 C 
BRANCH  10  11
ATOM     11  C   UNL     1     -10.321  17.729  67.468  0.00  0.00    -0.022 A 
ATOM     12  C   UNL     1      -9.574  18.470  68.374  0.00  0.00    -0.004 A 
ATOM     13  C   UNL     1      -9.796  19.840  68.363  0.00  0.00    -0.000 A 
ATOM     14  C   UNL     1      -9.910  20.463  67.126  0.00  0.00    -0.000 A 
ATOM     15  C   UNL     1     -10.389  19.676  66.089  0.00  0.00    -0.000 A 
ATOM     16  C   UNL     1     -10.472  18.298  66.209  0.00  0.00    -0.004 A 
ENDBRANCH  10  11
ENDBRANCH   9  10
ENDBRANCH   7   9
ENDBRANCH   2   7
BRANCH   1  17
ATOM     17  O   UNL     1     -12.168  13.148  70.243  0.00  0.00    -0.473 OA
BRANCH  17  18
ATOM     18  C   UNL     1     -12.354  11.815  70.668  0.00  0.00    +0.240 C 
BRANCH  18  19
ATOM     19  C   UNL     1     -11.212  10.975  69.765  0.00  0.00    +0.213 C 
ATOM     20  O   UNL     1     -12.276  10.598  68.707  0.00  0.00    -0.218 OA
BRANCH  19  21
ATOM     21  C   UNL     1     -11.519   9.562  70.624  0.00  0.00    +0.125 C 
BRANCH  21  22
ATOM     22  N   UNL     1     -12.844   9.862  71.157  0.00  0.00    -0.215 NA
BRANCH  22  23
ATOM     23  C   UNL     1     -13.183   8.824  72.121  0.00  0.00    +0.089 C 
BRANCH  23  25
ATOM     24  C   UNL     1     -14.727   7.469  71.669  0.00  0.00    +0.002 C 
ATOM     25  C   UNL     1     -14.485   8.166  71.711  0.00  0.00    +0.019 C 
ENDBRANCH  23  25
ENDBRANCH  22  23
ENDBRANCH  21  22
ENDBRANCH  19  21
ENDBRANCH  18  19
ENDBRANCH  17  18
ENDBRANCH   1  17
TORSDOF 11
ENDMDL
MODEL 8
REMARK VINA RESULT:      -5.9      2.900      4.993
REMARK  Name = 
REMARK  11 active torsions:
REMARK  status: ('A' for Active; 'I' for Inactive)
REMARK    1  A    between atoms: C_2  and  C_3
REMARK    2  A    between atoms: C_3  and  N_4
REMARK    3  A    between atoms: N_4  and  C_5
REMARK    4  A    between atoms: C_5  and  C_6
REMARK    5  A    between atoms: C_6  and  C_8
REMARK    6  A    between atoms: C_8  and  O_9
REMARK    7  A    between atoms: O_9  and  C_10
REMARK    8  A    between atoms: C_15  and  C_16
REMARK    9  A    between atoms: C_16  and  C_18
REMARK   10  A    between atoms: C_18  and  C_19
REMARK   11  A    between atoms: C_19  and  C_20
REMARK                            x       y       z     vdW  Elec       q    Type
REMARK                         _______ _______ _______ _____ _____    ______ ____
ROOT
ATOM      1  C   UNL     1     -10.756  11.747  65.988  0.00  0.00    +0.141 A 
ATOM      2  C   UNL     1     -11.430  12.938  66.182  0.00  0.00    +0.069 A 
ATOM      3  C   UNL     1     -12.305  13.325  65.199  0.00  0.00    +0.006 A 
ATOM      4  C   UNL     1     -12.378  12.640  63.991  0.00  0.00    +0.000 A 
ATOM      5  C   UNL     1     -11.353  11.754  63.700  0.00  0.00    +0.003 A 
ATOM      6  C   UNL     1     -10.667  11.146  64.738  0.00  0.00    +0.037 A 
ENDROOT
BRANCH   2   7
ATOM      7  C   UNL     1     -11.087  13.732  67.344  0.00  0.00    +0.176 C 
ATOM      8  O   UNL     1     -10.129  14.561  67.285  0.00  0.00    -0.291 OA
BRANCH   7   9
ATOM      9  C   UNL     1     -11.989  13.891  68.523  0.00  0.00    +0.074 C 
BRANCH   9  10
ATOM     10  C   UNL     1     -11.836  15.234  69.179  0.00  0.00    +0.034 C 
BRANCH  10  11
ATOM     11  C   UNL     1     -12.308  15.108  70.584  0.00  0.00    -0.022 A 
ATOM     12  C   UNL     1     -12.676  13.885  71.128  0.00  0.00    -0.004 A 
ATOM     13  C   UNL     1     -13.355  13.941  72.336  0.00  0.00    -0.000 A 
ATOM     14  C   UNL     1     -12.894  14.835  73.294  0.00  0.00    -0.000 A 
ATOM     15  C   UNL     1     -12.246  15.963  72.811  0.00  0.00    -0.000 A 
ATOM     16  C   UNL     1     -11.835  16.049  71.491  0.00  0.00    -0.004 A 
ENDBRANCH  10  11
ENDBRANCH   9  10
ENDBRANCH   7   9
ENDBRANCH   2   7
BRANCH   1  17
ATOM     17  O   UNL     1     -10.232  11.133  67.129  0.00  0.00    -0.473 OA
BRANCH  17  18
ATOM     18  C   UNL     1     -10.940  10.098  67.776  0.00  0.00    +0.240 C 
BRANCH  18  19
ATOM     19  C   UNL     1      -9.808   8.856  67.838  0.00  0.00    +0.213 C 
ATOM     20  O   UNL     1     -10.711   7.944  66.974  0.00  0.00    -0.218 OA
BRANCH  19  21
ATOM     21  C   UNL     1     -10.493   8.253  69.250  0.00  0.00    +0.125 C 
BRANCH  21  22
ATOM     22  N   UNL     1     -10.568   9.473  70.047  0.00  0.00    -0.215 NA
BRANCH  22  23
ATOM     23  C   UNL     1     -11.205   9.139  71.314  0.00  0.00    +0.089 C 
BRANCH  23  25
ATOM     24  C   UNL     1     -13.001  10.214  71.109  0.00  0.00    +0.002 C 
ATOM     25  C   UNL     1     -12.412  10.032  71.517  0.00  0.00    +0.019 C 
ENDBRANCH  23  25
ENDBRANCH  22  23
ENDBRANCH  21  22
ENDBRANCH  19  21
ENDBRANCH  18  19
ENDBRANCH  17  18
ENDBRANCH   1  17
TORSDOF 11
ENDMDL
MODEL 9
REMARK VINA RESULT:      -5.9      2.380      4.722
REMARK  Name = 
REMARK  11 active torsions:
REMARK  status: ('A' for Active; 'I' for Inactive)
REMARK    1  A    between atoms: C_2  and  C_3
REMARK    2  A    between atoms: C_3  and  N_4
REMARK    3  A    between atoms: N_4  and  C_5
REMARK    4  A    between atoms: C_5  and  C_6
REMARK    5  A    between atoms: C_6  and  C_8
REMARK    6  A    between atoms: C_8  and  O_9
REMARK    7  A    between atoms: O_9  and  C_10
REMARK    8  A    between atoms: C_15  and  C_16
REMARK    9  A    between atoms: C_16  and  C_18
REMARK   10  A    between atoms: C_18  and  C_19
REMARK   11  A    between atoms: C_19  and  C_20
REMARK                            x       y       z     vdW  Elec       q    Type
REMARK                         _______ _______ _______ _____ _____    ______ ____
ROOT
ATOM      1  C   UNL     1     -11.664  14.822  68.550  0.00  0.00    +0.141 A 
ATOM      2  C   UNL     1     -11.617  13.584  69.161  0.00  0.00    +0.069 A 
ATOM      3  C   UNL     1     -12.126  13.498  70.433  0.00  0.00    +0.006 A 
ATOM      4  C   UNL     1     -12.509  14.638  71.131  0.00  0.00    +0.000 A 
ATOM      5  C   UNL     1     -12.094  15.861  70.629  0.00  0.00    +0.003 A 
ATOM      6  C   UNL     1     -11.864  15.993  69.270  0.00  0.00    +0.037 A 
ENDROOT
BRANCH   2   7
ATOM      7  C   UNL     1     -10.946  12.506  68.465  0.00  0.00    +0.176 C 
ATOM      8  O   UNL     1      -9.691  12.549  68.290  0.00  0.00    -0.291 OA
BRANCH   7   9
ATOM      9  C   UNL     1     -11.573  11.174  68.217  0.00  0.00    +0.074 C 
BRANCH   9  10
ATOM     10  C   UNL     1     -10.799  10.053  68.851  0.00  0.00    +0.034 C 
BRANCH  10  11
ATOM     11  C   UNL     1     -11.423   9.761  70.169  0.00  0.00    -0.022 A 
ATOM     12  C   UNL     1     -12.751  10.068  70.437  0.00  0.00    -0.004 A 
ATOM     13  C   UNL     1     -13.128  10.007  71.770  0.00  0.00    -0.000 A 
ATOM     14  C   UNL     1     -12.664   8.935  72.523  0.00  0.00    -0.000 A 
ATOM     15  C   UNL     1     -11.454   8.387  72.120  0.00  0.00    -0.000 A 
ATOM     16  C   UNL     1     -10.898   8.696  70.889  0.00  0.00    -0.004 A 
ENDBRANCH  10  11
ENDBRANCH   9  10
ENDBRANCH   7   9
ENDBRANCH   2   7
BRANCH   1  17
ATOM     17  O   UNL     1     -11.578  14.832  67.154  0.00  0.00    -0.473 OA
BRANCH  17  18
ATOM     18  C   UNL     1     -10.719  15.736  66.495  0.00  0.00    +0.240 C 
BRANCH  18  19
ATOM     19  C   UNL     1     -10.651  15.114  64.935  0.00  0.00    +0.213 C 
ATOM     20  O   UNL     1     -11.198  16.437  64.347  0.00  0.00    -0.218 OA
BRANCH  19  21
ATOM     21  C   UNL     1     -12.208  14.495  65.074  0.00  0.00    +0.125 C 
BRANCH  21  22
ATOM     22  N   UNL     1     -12.193  13.503  64.004  0.00  0.00    -0.215 NA
BRANCH  22  23
ATOM     23  C   UNL     1     -10.868  12.899  63.974  0.00  0.00    +0.089 C 
BRANCH  23  25
ATOM     24  C   UNL     1     -10.457  10.970  64.707  0.00  0.00    +0.002 C 
ATOM     25  C   UNL     1     -10.952  11.484  64.512  0.00  0.00    +0.019 C 
ENDBRANCH  23  25
ENDBRANCH  22  23
ENDBRANCH  21  22
ENDBRANCH  19  21
ENDBRANCH  18  19
ENDBRANCH  17  18
ENDBRANCH   1  17
TORSDOF 11
ENDMDL
