MODEL 1
REMARK VINA RESULT:      -7.3      0.000      0.000
REMARK  Name = 
REMARK  10 active torsions:
REMARK  status: ('A' for Active; 'I' for Inactive)
REMARK    1  A    between atoms: C_2  and  C_3
REMARK    2  A    between atoms: C_7  and  N_8
REMARK    3  A    between atoms: C_15  and  O_16
REMARK    4  A    between atoms: O_16  and  C_17
REMARK    5  A    between atoms: C_17  and  C_18
REMARK    6  A    between atoms: C_18  and  O_19
REMARK    7  A    between atoms: C_21  and  O_22
REMARK    8  A    between atoms: O_22  and  C_23
REMARK    9  A    between atoms: C_23  and  C_24
REMARK   10  A    between atoms: C_24  and  O_25
REMARK                            x       y       z     vdW  Elec       q    Type
REMARK                         _______ _______ _______ _____ _____    ______ ____
ROOT
ATOM      1  N   UNL     1     -11.301  11.193  70.202  0.00  0.00    -0.194 NA
ATOM      2  C   UNL     1     -11.612  11.739  68.941  0.00  0.00    +0.155 A 
ATOM      3  C   UNL     1     -11.520  13.124  68.851  0.00  0.00    +0.054 A 
ATOM      4  C   UNL     1     -11.194  13.770  67.675  0.00  0.00    +0.089 A 
ATOM      5  C   UNL     1     -11.052  15.150  67.627  0.00  0.00    +0.059 A 
ATOM      6  C   UNL     1     -11.606  15.871  68.676  0.00  0.00    +0.174 A 
ATOM      7  C   UNL     1     -12.038  15.270  69.846  0.00  0.00    +0.173 A 
ATOM      8  N   UNL     1     -11.178  13.004  66.565  0.00  0.00    -0.224 NA
ATOM      9  C   UNL     1     -11.623  11.723  66.601  0.00  0.00    +0.200 A 
ATOM     10  C   UNL     1     -11.903  13.897  69.941  0.00  0.00    +0.044 A 
ATOM     11  N   UNL     1     -11.642  11.066  67.787  0.00  0.00    -0.207 NA
ENDROOT
BRANCH   1  14
ATOM     12  C   UNL     1     -10.438   8.333  72.210  0.00  0.00    +0.044 A 
ATOM     13  C   UNL     1     -10.367   9.118  71.094  0.00  0.00    +0.025 A 
ATOM     14  C   UNL     1     -11.437   9.836  70.573  0.00  0.00    +0.073 A 
ATOM     15  C   UNL     1     -12.682   9.439  71.048  0.00  0.00    +0.017 A 
ATOM     16  C   UNL     1     -12.820   8.478  72.041  0.00  0.00    +0.002 A 
ATOM     17  C   UNL     1     -11.691   7.946  72.650  0.00  0.00    +0.008 A 
BRANCH  12  19
ATOM     18  C   UNL     1      -8.473   7.872  73.889  0.00  0.00    -0.009 C 
ATOM     19  C   UNL     1      -9.300   7.940  73.001  0.00  0.00    -0.051 C 
ENDBRANCH  12  19
ENDBRANCH   1  14
BRANCH   7  20
ATOM     20  O   UNL     1     -13.037  15.959  70.544  0.00  0.00    -0.470 OA
BRANCH  20  21
ATOM     21  C   UNL     1     -13.983  15.292  71.355  0.00  0.00    +0.237 C 
BRANCH  21  22
ATOM     22  C   UNL     1     -13.805  15.674  72.820  0.00  0.00    +0.189 C 
BRANCH  22  23
ATOM     23  O   UNL     1     -12.540  15.310  73.292  0.00  0.00    -0.347 OA
ATOM     24  C   UNL     1     -12.428  15.740  74.604  0.00  0.00    +0.174 C 
ENDBRANCH  22  23
ENDBRANCH  21  22
ENDBRANCH  20  21
ENDBRANCH   7  20
BRANCH   6  25
ATOM     25  O   UNL     1     -11.312  17.236  68.707  0.00  0.00    -0.470 OA
BRANCH  25  26
ATOM     26  C   UNL     1      -9.928  17.565  68.635  0.00  0.00    +0.237 C 
BRANCH  26  27
ATOM     27  C   UNL     1      -9.798  19.009  68.190  0.00  0.00    +0.189 C 
BRANCH  27  28
ATOM     28  O   UNL     1     -10.903  19.345  67.408  0.00  0.00    -0.347 OA
ATOM     29  C   UNL     1     -10.515  19.686  66.121  0.00  0.00    +0.174 C 
ENDBRANCH  27  28
ENDBRANCH  26  27
ENDBRANCH  25  26
ENDBRANCH   6  25
TORSDOF 10
ENDMDL
MODEL 2
REMARK VINA RESULT:      -7.0      0.921      1.208
REMARK  Name = 
REMARK  10 active torsions:
REMARK  status: ('A' for Active; 'I' for Inactive)
REMARK    1  A    between atoms: C_2  and  C_3
REMARK    2  A    between atoms: C_7  and  N_8
REMARK    3  A    between atoms: C_15  and  O_16
REMARK    4  A    between atoms: O_16  and  C_17
REMARK    5  A    between atoms: C_17  and  C_18
REMARK    6  A    between atoms: C_18  and  O_19
REMARK    7  A    between atoms: C_21  and  O_22
REMARK    8  A    between atoms: O_22  and  C_23
REMARK    9  A    between atoms: C_23  and  C_24
REMARK   10  A    between atoms: C_24  and  O_25
REMARK                            x       y       z     vdW  Elec       q    Type
REMARK                         _______ _______ _______ _____ _____    ______ ____
ROOT
ATOM      1  N   UNL     1     -11.450  11.441  70.199  0.00  0.00    -0.194 NA
ATOM      2  C   UNL     1     -11.712  12.146  69.008  0.00  0.00    +0.155 A 
ATOM      3  C   UNL     1     -11.334  13.484  69.011  0.00  0.00    +0.054 A 
ATOM      4  C   UNL     1     -10.948  14.148  67.863  0.00  0.00    +0.089 A 
ATOM      5  C   UNL     1     -10.519  15.467  67.903  0.00  0.00    +0.059 A 
ATOM      6  C   UNL     1     -10.844  16.195  69.041  0.00  0.00    +0.174 A 
ATOM      7  C   UNL     1     -11.324  15.598  70.194  0.00  0.00    +0.173 A 
ATOM      8  N   UNL     1     -11.161  13.493  66.703  0.00  0.00    -0.224 NA
ATOM      9  C   UNL     1     -11.865  12.334  66.681  0.00  0.00    +0.200 A 
ATOM     10  C   UNL     1     -11.478  14.223  70.180  0.00  0.00    +0.044 A 
ATOM     11  N   UNL     1     -11.953  11.596  67.815  0.00  0.00    -0.207 NA
ENDROOT
BRANCH   1  14
ATOM     12  C   UNL     1     -11.271   8.392  72.104  0.00  0.00    +0.044 A 
ATOM     13  C   UNL     1     -10.969   9.198  71.044  0.00  0.00    +0.025 A 
ATOM     14  C   UNL     1     -11.850  10.115  70.481  0.00  0.00    +0.073 A 
ATOM     15  C   UNL     1     -13.181   9.924  70.834  0.00  0.00    +0.017 A 
ATOM     16  C   UNL     1     -13.568   8.962  71.758  0.00  0.00    +0.002 A 
ATOM     17  C   UNL     1     -12.605   8.214  72.422  0.00  0.00    +0.008 A 
BRANCH  12  19
ATOM     18  C   UNL     1      -9.766   7.087  73.815  0.00  0.00    -0.009 C 
ATOM     19  C   UNL     1     -10.290   7.772  72.958  0.00  0.00    -0.051 C 
ENDBRANCH  12  19
ENDBRANCH   1  14
BRANCH   7  20
ATOM     20  O   UNL     1     -12.110  16.416  71.013  0.00  0.00    -0.470 OA
BRANCH  20  21
ATOM     21  C   UNL     1     -12.070  16.327  72.423  0.00  0.00    +0.237 C 
BRANCH  21  22
ATOM     22  C   UNL     1     -13.338  15.674  72.961  0.00  0.00    +0.189 C 
BRANCH  22  23
ATOM     23  O   UNL     1     -14.430  15.913  72.120  0.00  0.00    -0.347 OA
ATOM     24  C   UNL     1     -14.908  14.691  71.674  0.00  0.00    +0.174 C 
ENDBRANCH  22  23
ENDBRANCH  21  22
ENDBRANCH  20  21
ENDBRANCH   7  20
BRANCH   6  25
ATOM     25  O   UNL     1     -10.265  17.461  69.147  0.00  0.00    -0.470 OA
BRANCH  25  26
ATOM     26  C   UNL     1      -9.196  17.723  68.242  0.00  0.00    +0.237 C 
BRANCH  26  27
ATOM     27  C   UNL     1      -9.252  19.184  67.840  0.00  0.00    +0.189 C 
BRANCH  27  28
ATOM     28  O   UNL     1     -10.527  19.475  67.358  0.00  0.00    -0.347 OA
ATOM     29  C   UNL     1     -10.496  19.724  65.993  0.00  0.00    +0.174 C 
ENDBRANCH  27  28
ENDBRANCH  26  27
ENDBRANCH  25  26
ENDBRANCH   6  25
TORSDOF 10
ENDMDL
MODEL 3
REMARK VINA RESULT:      -6.9      3.307      8.764
REMARK  Name = 
REMARK  10 active torsions:
REMARK  status: ('A' for Active; 'I' for Inactive)
REMARK    1  A    between atoms: C_2  and  C_3
REMARK    2  A    between atoms: C_7  and  N_8
REMARK    3  A    between atoms: C_15  and  O_16
REMARK    4  A    between atoms: O_16  and  C_17
REMARK    5  A    between atoms: C_17  and  C_18
REMARK    6  A    between atoms: C_18  and  O_19
REMARK    7  A    between atoms: C_21  and  O_22
REMARK    8  A    between atoms: O_22  and  C_23
REMARK    9  A    between atoms: C_23  and  C_24
REMARK   10  A    between atoms: C_24  and  O_25
REMARK                            x       y       z     vdW  Elec       q    Type
REMARK                         _______ _______ _______ _____ _____    ______ ____
ROOT
ATOM      1  N   UNL     1     -10.436  16.508  68.062  0.00  0.00    -0.194 NA
ATOM      2  C   UNL     1     -11.365  15.844  68.887  0.00  0.00    +0.155 A 
ATOM      3  C   UNL     1     -11.457  14.469  68.696  0.00  0.00    +0.054 A 
ATOM      4  C   UNL     1     -11.799  13.600  69.713  0.00  0.00    +0.089 A 
ATOM      5  C   UNL     1     -11.827  12.228  69.509  0.00  0.00    +0.059 A 
ATOM      6  C   UNL     1     -11.872  11.794  68.191  0.00  0.00    +0.174 A 
ATOM      7  C   UNL     1     -11.630  12.638  67.120  0.00  0.00    +0.173 A 
ATOM      8  N   UNL     1     -12.248  14.171  70.850  0.00  0.00    -0.224 NA
ATOM      9  C   UNL     1     -12.499  15.503  70.905  0.00  0.00    +0.200 A 
ATOM     10  C   UNL     1     -11.338  13.959  67.408  0.00  0.00    +0.044 A 
ATOM     11  N   UNL     1     -11.883  16.325  70.020  0.00  0.00    -0.207 NA
ENDROOT
BRANCH   1  14
ATOM     12  C   UNL     1      -8.373  19.458  68.091  0.00  0.00    +0.044 A 
ATOM     13  C   UNL     1      -9.207  18.536  68.656  0.00  0.00    +0.025 A 
ATOM     14  C   UNL     1     -10.249  17.907  67.984  0.00  0.00    +0.073 A 
ATOM     15  C   UNL     1     -10.621  18.523  66.795  0.00  0.00    +0.017 A 
ATOM     16  C   UNL     1      -9.929  19.611  66.280  0.00  0.00    +0.002 A 
ATOM     17  C   UNL     1      -8.778  20.060  66.913  0.00  0.00    +0.008 A 
BRANCH  12  19
ATOM     18  C   UNL     1      -6.085  20.415  68.952  0.00  0.00    -0.009 C 
ATOM     19  C   UNL     1      -7.068  19.792  68.600  0.00  0.00    -0.051 C 
ENDBRANCH  12  19
ENDBRANCH   1  14
BRANCH   7  20
ATOM     20  O   UNL     1     -12.229  12.265  65.911  0.00  0.00    -0.470 OA
BRANCH  20  21
ATOM     21  C   UNL     1     -12.501  13.200  64.888  0.00  0.00    +0.237 C 
BRANCH  21  22
ATOM     22  C   UNL     1     -12.008  12.686  63.540  0.00  0.00    +0.189 C 
BRANCH  22  23
ATOM     23  O   UNL     1     -11.367  11.450  63.669  0.00  0.00    -0.347 OA
ATOM     24  C   UNL     1     -10.052  11.599  63.260  0.00  0.00    +0.174 C 
ENDBRANCH  22  23
ENDBRANCH  21  22
ENDBRANCH  20  21
ENDBRANCH   7  20
BRANCH   6  25
ATOM     25  O   UNL     1     -11.728  10.419  67.991  0.00  0.00    -0.470 OA
BRANCH  25  26
ATOM     26  C   UNL     1     -10.386   9.950  67.910  0.00  0.00    +0.237 C 
BRANCH  26  27
ATOM     27  C   UNL     1     -10.271   8.673  68.721  0.00  0.00    +0.189 C 
BRANCH  27  28
ATOM     28  O   UNL     1     -11.012   8.812  69.894  0.00  0.00    -0.347 OA
ATOM     29  C   UNL     1     -10.194   9.165  70.958  0.00  0.00    +0.174 C 
ENDBRANCH  27  28
ENDBRANCH  26  27
ENDBRANCH  25  26
ENDBRANCH   6  25
TORSDOF 10
ENDMDL
MODEL 4
REMARK VINA RESULT:      -6.4      2.505      7.904
REMARK  Name = 
REMARK  10 active torsions:
REMARK  status: ('A' for Active; 'I' for Inactive)
REMARK    1  A    between atoms: C_2  and  C_3
REMARK    2  A    between atoms: C_7  and  N_8
REMARK    3  A    between atoms: C_15  and  O_16
REMARK    4  A    between atoms: O_16  and  C_17
REMARK    5  A    between atoms: C_17  and  C_18
REMARK    6  A    between atoms: C_18  and  O_19
REMARK    7  A    between atoms: C_21  and  O_22
REMARK    8  A    between atoms: O_22  and  C_23
REMARK    9  A    between atoms: C_23  and  C_24
REMARK   10  A    between atoms: C_24  and  O_25
REMARK                            x       y       z     vdW  Elec       q    Type
REMARK                         _______ _______ _______ _____ _____    ______ ____
ROOT
ATOM      1  N   UNL     1     -10.911  16.892  68.234  0.00  0.00    -0.194 NA
ATOM      2  C   UNL     1     -10.099  15.746  68.127  0.00  0.00    +0.155 A 
ATOM      3  C   UNL     1     -10.705  14.549  68.497  0.00  0.00    +0.054 A 
ATOM      4  C   UNL     1     -10.355  13.337  67.937  0.00  0.00    +0.089 A 
ATOM      5  C   UNL     1     -11.015  12.166  68.283  0.00  0.00    +0.059 A 
ATOM      6  C   UNL     1     -11.758  12.192  69.456  0.00  0.00    +0.174 A 
ATOM      7  C   UNL     1     -12.064  13.369  70.117  0.00  0.00    +0.173 A 
ATOM      8  N   UNL     1      -9.248  13.341  67.166  0.00  0.00    -0.224 NA
ATOM      9  C   UNL     1      -8.454  14.438  67.100  0.00  0.00    +0.200 A 
ATOM     10  C   UNL     1     -11.595  14.547  69.565  0.00  0.00    +0.044 A 
ATOM     11  N   UNL     1      -8.978  15.650  67.408  0.00  0.00    -0.207 NA
ENDROOT
BRANCH   1  14
ATOM     12  C   UNL     1      -8.412  19.482  68.239  0.00  0.00    +0.044 A 
ATOM     13  C   UNL     1      -9.450  18.775  68.775  0.00  0.00    +0.025 A 
ATOM     14  C   UNL     1     -10.489  18.226  68.033  0.00  0.00    +0.073 A 
ATOM     15  C   UNL     1     -10.604  18.731  66.743  0.00  0.00    +0.017 A 
ATOM     16  C   UNL     1      -9.684  19.630  66.219  0.00  0.00    +0.002 A 
ATOM     17  C   UNL     1      -8.563  19.981  66.957  0.00  0.00    +0.008 A 
BRANCH  12  19
ATOM     18  C   UNL     1      -6.248  19.678  69.713  0.00  0.00    -0.009 C 
ATOM     19  C   UNL     1      -7.142  19.682  68.890  0.00  0.00    -0.051 C 
ENDBRANCH  12  19
ENDBRANCH   1  14
BRANCH   7  20
ATOM     20  O   UNL     1     -12.297  13.244  71.492  0.00  0.00    -0.470 OA
BRANCH  20  21
ATOM     21  C   UNL     1     -13.535  13.592  72.078  0.00  0.00    +0.237 C 
BRANCH  21  22
ATOM     22  C   UNL     1     -13.439  14.938  72.787  0.00  0.00    +0.189 C 
BRANCH  22  23
ATOM     23  O   UNL     1     -14.441  15.813  72.358  0.00  0.00    -0.347 OA
ATOM     24  C   UNL     1     -15.177  15.178  71.370  0.00  0.00    +0.174 C 
ENDBRANCH  22  23
ENDBRANCH  21  22
ENDBRANCH  20  21
ENDBRANCH   7  20
BRANCH   6  25
ATOM     25  O   UNL     1     -12.552  11.070  69.705  0.00  0.00    -0.470 OA
BRANCH  25  26
ATOM     26  C   UNL     1     -11.895   9.990  70.361  0.00  0.00    +0.237 C 
BRANCH  26  27
ATOM     27  C   UNL     1     -12.592   9.734  71.684  0.00  0.00    +0.189 C 
BRANCH  27  28
ATOM     28  O   UNL     1     -12.058   8.584  72.264  0.00  0.00    -0.347 OA
ATOM     29  C   UNL     1     -12.202   7.491  71.422  0.00  0.00    +0.174 C 
ENDBRANCH  27  28
ENDBRANCH  26  27
ENDBRANCH  25  26
ENDBRANCH   6  25
TORSDOF 10
ENDMDL
MODEL 5
REMARK VINA RESULT:      -6.4      4.381      8.497
REMARK  Name = 
REMARK  10 active torsions:
REMARK  status: ('A' for Active; 'I' for Inactive)
REMARK    1  A    between atoms: C_2  and  C_3
REMARK    2  A    between atoms: C_7  and  N_8
REMARK    3  A    between atoms: C_15  and  O_16
REMARK    4  A    between atoms: O_16  and  C_17
REMARK    5  A    between atoms: C_17  and  C_18
REMARK    6  A    between atoms: C_18  and  O_19
REMARK    7  A    between atoms: C_21  and  O_22
REMARK    8  A    between atoms: O_22  and  C_23
REMARK    9  A    between atoms: C_23  and  C_24
REMARK   10  A    between atoms: C_24  and  O_25
REMARK                            x       y       z     vdW  Elec       q    Type
REMARK                         _______ _______ _______ _____ _____    ______ ____
ROOT
ATOM      1  N   UNL     1      -8.331  18.826  67.082  0.00  0.00    -0.194 NA
ATOM      2  C   UNL     1      -7.925  17.554  67.532  0.00  0.00    +0.155 A 
ATOM      3  C   UNL     1      -8.916  16.578  67.537  0.00  0.00    +0.054 A 
ATOM      4  C   UNL     1      -8.637  15.238  67.353  0.00  0.00    +0.089 A 
ATOM      5  C   UNL     1      -9.651  14.291  67.305  0.00  0.00    +0.059 A 
ATOM      6  C   UNL     1     -10.886  14.673  67.814  0.00  0.00    +0.174 A 
ATOM      7  C   UNL     1     -11.195  15.990  68.107  0.00  0.00    +0.173 A 
ATOM      8  N   UNL     1      -7.332  14.897  67.381  0.00  0.00    -0.224 NA
ATOM      9  C   UNL     1      -6.388  15.802  67.738  0.00  0.00    +0.200 A 
ATOM     10  C   UNL     1     -10.215  16.938  67.877  0.00  0.00    +0.044 A 
ATOM     11  N   UNL     1      -6.663  17.124  67.616  0.00  0.00    -0.207 NA
ENDROOT
BRANCH   1  14
ATOM     12  C   UNL     1      -5.653  20.852  68.376  0.00  0.00    +0.044 A 
ATOM     13  C   UNL     1      -6.957  20.459  68.272  0.00  0.00    +0.025 A 
ATOM     14  C   UNL     1      -7.545  20.000  67.099  0.00  0.00    +0.073 A 
ATOM     15  C   UNL     1      -6.827  20.288  65.945  0.00  0.00    +0.017 A 
ATOM     16  C   UNL     1      -5.576  20.891  65.986  0.00  0.00    +0.002 A 
ATOM     17  C   UNL     1      -4.970  21.143  67.209  0.00  0.00    +0.008 A 
BRANCH  12  19
ATOM     18  C   UNL     1      -4.353  21.330  70.607  0.00  0.00    -0.009 C 
ATOM     19  C   UNL     1      -4.920  20.915  69.615  0.00  0.00    -0.051 C 
ENDBRANCH  12  19
ENDBRANCH   1  14
BRANCH   7  20
ATOM     20  O   UNL     1     -12.178  16.174  69.086  0.00  0.00    -0.470 OA
BRANCH  20  21
ATOM     21  C   UNL     1     -11.969  15.821  70.438  0.00  0.00    +0.237 C 
BRANCH  21  22
ATOM     22  C   UNL     1     -13.184  15.094  71.002  0.00  0.00    +0.189 C 
BRANCH  22  23
ATOM     23  O   UNL     1     -13.795  15.835  72.018  0.00  0.00    -0.347 OA
ATOM     24  C   UNL     1     -12.916  15.911  73.087  0.00  0.00    +0.174 C 
ENDBRANCH  22  23
ENDBRANCH  21  22
ENDBRANCH  20  21
ENDBRANCH   7  20
BRANCH   6  25
ATOM     25  O   UNL     1     -11.939  13.779  67.607  0.00  0.00    -0.470 OA
BRANCH  25  26
ATOM     26  C   UNL     1     -11.798  12.919  66.480  0.00  0.00    +0.237 C 
BRANCH  26  27
ATOM     27  C   UNL     1     -12.591  13.502  65.326  0.00  0.00    +0.189 C 
BRANCH  27  28
ATOM     28  O   UNL     1     -13.145  12.461  64.582  0.00  0.00    -0.347 OA
ATOM     29  C   UNL     1     -12.342  12.147  63.495  0.00  0.00    +0.174 C 
ENDBRANCH  27  28
ENDBRANCH  26  27
ENDBRANCH  25  26
ENDBRANCH   6  25
TORSDOF 10
ENDMDL
MODEL 6
REMARK VINA RESULT:      -6.1      4.461      9.848
REMARK  Name = 
REMARK  10 active torsions:
REMARK  status: ('A' for Active; 'I' for Inactive)
REMARK    1  A    between atoms: C_2  and  C_3
REMARK    2  A    between atoms: C_7  and  N_8
REMARK    3  A    between atoms: C_15  and  O_16
REMARK    4  A    between atoms: O_16  and  C_17
REMARK    5  A    between atoms: C_17  and  C_18
REMARK    6  A    between atoms: C_18  and  O_19
REMARK    7  A    between atoms: C_21  and  O_22
REMARK    8  A    between atoms: O_22  and  C_23
REMARK    9  A    between atoms: C_23  and  C_24
REMARK   10  A    between atoms: C_24  and  O_25
REMARK                            x       y       z     vdW  Elec       q    Type
REMARK                         _______ _______ _______ _____ _____    ______ ____
ROOT
ATOM      1  N   UNL     1      -6.898  17.895  66.397  0.00  0.00    -0.194 NA
ATOM      2  C   UNL     1      -8.226  18.358  66.486  0.00  0.00    +0.155 A 
ATOM      3  C   UNL     1      -9.139  17.452  67.016  0.00  0.00    +0.054 A 
ATOM      4  C   UNL     1     -10.258  17.853  67.718  0.00  0.00    +0.089 A 
ATOM      5  C   UNL     1     -11.123  16.928  68.285  0.00  0.00    +0.059 A 
ATOM      6  C   UNL     1     -11.039  15.625  67.814  0.00  0.00    +0.174 A 
ATOM      7  C   UNL     1      -9.988  15.184  67.028  0.00  0.00    +0.173 A 
ATOM      8  N   UNL     1     -10.536  19.173  67.682  0.00  0.00    -0.224 NA
ATOM      9  C   UNL     1      -9.844  20.004  66.863  0.00  0.00    +0.200 A 
ATOM     10  C   UNL     1      -9.003  16.102  66.713  0.00  0.00    +0.044 A 
ATOM     11  N   UNL     1      -8.609  19.636  66.443  0.00  0.00    -0.207 NA
ENDROOT
BRANCH   1  14
ATOM     12  C   UNL     1      -5.495  19.988  63.827  0.00  0.00    +0.044 A 
ATOM     13  C   UNL     1      -5.784  18.789  64.414  0.00  0.00    +0.025 A 
ATOM     14  C   UNL     1      -5.822  18.579  65.788  0.00  0.00    +0.073 A 
ATOM     15  C   UNL     1      -5.208  19.574  66.539  0.00  0.00    +0.017 A 
ATOM     16  C   UNL     1      -4.699  20.728  65.958  0.00  0.00    +0.002 A 
ATOM     17  C   UNL     1      -4.874  20.953  64.599  0.00  0.00    +0.008 A 
BRANCH  12  19
ATOM     18  C   UNL     1      -5.825  20.780  61.346  0.00  0.00    -0.009 C 
ATOM     19  C   UNL     1      -5.859  20.341  62.479  0.00  0.00    -0.051 C 
ENDBRANCH  12  19
ENDBRANCH   1  14
BRANCH   7  20
ATOM     20  O   UNL     1     -10.276  14.101  66.189  0.00  0.00    -0.470 OA
BRANCH  20  21
ATOM     21  C   UNL     1     -10.669  14.277  64.843  0.00  0.00    +0.237 C 
BRANCH  21  22
ATOM     22  C   UNL     1     -12.185  14.189  64.706  0.00  0.00    +0.189 C 
BRANCH  22  23
ATOM     23  O   UNL     1     -12.553  13.472  63.564  0.00  0.00    -0.347 OA
ATOM     24  C   UNL     1     -11.657  12.427  63.401  0.00  0.00    +0.174 C 
ENDBRANCH  22  23
ENDBRANCH  21  22
ENDBRANCH  20  21
ENDBRANCH   7  20
BRANCH   6  25
ATOM     25  O   UNL     1     -11.788  14.671  68.507  0.00  0.00    -0.470 OA
BRANCH  25  26
ATOM     26  C   UNL     1     -11.411  14.465  69.865  0.00  0.00    +0.237 C 
BRANCH  26  27
ATOM     27  C   UNL     1     -12.659  14.159  70.670  0.00  0.00    +0.189 C 
BRANCH  27  28
ATOM     28  O   UNL     1     -13.326  15.352  70.948  0.00  0.00    -0.347 OA
ATOM     29  C   UNL     1     -14.491  15.114  71.662  0.00  0.00    +0.174 C 
ENDBRANCH  27  28
ENDBRANCH  26  27
ENDBRANCH  25  26
ENDBRANCH   6  25
TORSDOF 10
ENDMDL
MODEL 7
REMARK VINA RESULT:      -6.0      1.429      2.287
REMARK  Name = 
REMARK  10 active torsions:
REMARK  status: ('A' for Active; 'I' for Inactive)
REMARK    1  A    between atoms: C_2  and  C_3
REMARK    2  A    between atoms: C_7  and  N_8
REMARK    3  A    between atoms: C_15  and  O_16
REMARK    4  A    between atoms: O_16  and  C_17
REMARK    5  A    between atoms: C_17  and  C_18
REMARK    6  A    between atoms: C_18  and  O_19
REMARK    7  A    between atoms: C_21  and  O_22
REMARK    8  A    between atoms: O_22  and  C_23
REMARK    9  A    between atoms: C_23  and  C_24
REMARK   10  A    between atoms: C_24  and  O_25
REMARK                            x       y       z     vdW  Elec       q    Type
REMARK                         _______ _______ _______ _____ _____    ______ ____
ROOT
ATOM      1  N   UNL     1     -11.061  10.984  70.469  0.00  0.00    -0.194 NA
ATOM      2  C   UNL     1     -11.483  11.412  69.194  0.00  0.00    +0.155 A 
ATOM      3  C   UNL     1     -11.495  12.790  69.002  0.00  0.00    +0.054 A 
ATOM      4  C   UNL     1     -11.285  13.368  67.765  0.00  0.00    +0.089 A 
ATOM      5  C   UNL     1     -11.246  14.746  67.611  0.00  0.00    +0.059 A 
ATOM      6  C   UNL     1     -11.788  15.505  68.640  0.00  0.00    +0.174 A 
ATOM      7  C   UNL     1     -12.107  14.965  69.874  0.00  0.00    +0.173 A 
ATOM      8  N   UNL     1     -11.279  12.523  66.713  0.00  0.00    -0.224 NA
ATOM      9  C   UNL     1     -11.629  11.221  66.867  0.00  0.00    +0.200 A 
ATOM     10  C   UNL     1     -11.869  13.615  70.057  0.00  0.00    +0.044 A 
ATOM     11  N   UNL     1     -11.532  10.655  68.095  0.00  0.00    -0.207 NA
ENDROOT
BRANCH   1  14
ATOM     12  C   UNL     1     -12.747   7.911  71.287  0.00  0.00    +0.044 A 
ATOM     13  C   UNL     1     -12.195   9.126  71.580  0.00  0.00    +0.025 A 
ATOM     14  C   UNL     1     -11.078   9.653  70.942  0.00  0.00    +0.073 A 
ATOM     15  C   UNL     1     -10.335   8.724  70.222  0.00  0.00    +0.017 A 
ATOM     16  C   UNL     1     -10.748   7.406  70.074  0.00  0.00    +0.002 A 
ATOM     17  C   UNL     1     -11.977   7.005  70.580  0.00  0.00    +0.008 A 
BRANCH  12  19
ATOM     18  C   UNL     1     -15.092   6.884  71.868  0.00  0.00    -0.009 C 
ATOM     19  C   UNL     1     -14.101   7.537  71.603  0.00  0.00    -0.051 C 
ENDBRANCH  12  19
ENDBRANCH   1  14
BRANCH   7  20
ATOM     20  O   UNL     1     -13.110  15.635  70.584  0.00  0.00    -0.470 OA
BRANCH  20  21
ATOM     21  C   UNL     1     -13.920  14.981  71.539  0.00  0.00    +0.237 C 
BRANCH  21  22
ATOM     22  C   UNL     1     -13.202  14.882  72.880  0.00  0.00    +0.189 C 
BRANCH  22  23
ATOM     23  O   UNL     1     -13.351  16.055  73.626  0.00  0.00    -0.347 OA
ATOM     24  C   UNL     1     -12.389  16.060  74.623  0.00  0.00    +0.174 C 
ENDBRANCH  22  23
ENDBRANCH  21  22
ENDBRANCH  20  21
ENDBRANCH   7  20
BRANCH   6  25
ATOM     25  O   UNL     1     -11.591  16.885  68.556  0.00  0.00    -0.470 OA
BRANCH  25  26
ATOM     26  C   UNL     1     -10.510  17.299  67.726  0.00  0.00    +0.237 C 
BRANCH  26  27
ATOM     27  C   UNL     1      -9.438  17.916  68.603  0.00  0.00    +0.189 C 
BRANCH  27  28
ATOM     28  O   UNL     1      -8.205  17.350  68.282  0.00  0.00    -0.347 OA
ATOM     29  C   UNL     1      -8.066  16.100  68.868  0.00  0.00    +0.174 C 
ENDBRANCH  27  28
ENDBRANCH  26  27
ENDBRANCH  25  26
ENDBRANCH   6  25
TORSDOF 10
ENDMDL
MODEL 8
REMARK VINA RESULT:      -6.0      4.115      7.301
REMARK  Name = 
REMARK  10 active torsions:
REMARK  status: ('A' for Active; 'I' for Inactive)
REMARK    1  A    between atoms: C_2  and  C_3
REMARK    2  A    between atoms: C_7  and  N_8
REMARK    3  A    between atoms: C_15  and  O_16
REMARK    4  A    between atoms: O_16  and  C_17
REMARK    5  A    between atoms: C_17  and  C_18
REMARK    6  A    between atoms: C_18  and  O_19
REMARK    7  A    between atoms: C_21  and  O_22
REMARK    8  A    between atoms: O_22  and  C_23
REMARK    9  A    between atoms: C_23  and  C_24
REMARK   10  A    between atoms: C_24  and  O_25
REMARK                            x       y       z     vdW  Elec       q    Type
REMARK                         _______ _______ _______ _____ _____    ______ ____
ROOT
ATOM      1  N   UNL     1      -9.678  11.014  64.368  0.00  0.00    -0.194 NA
ATOM      2  C   UNL     1     -10.804  11.855  64.464  0.00  0.00    +0.155 A 
ATOM      3  C   UNL     1     -11.133  12.267  65.752  0.00  0.00    +0.054 A 
ATOM      4  C   UNL     1     -11.748  13.477  66.008  0.00  0.00    +0.089 A 
ATOM      5  C   UNL     1     -12.013  13.889  67.307  0.00  0.00    +0.059 A 
ATOM      6  C   UNL     1     -11.987  12.909  68.290  0.00  0.00    +0.174 A 
ATOM      7  C   UNL     1     -11.468  11.645  68.068  0.00  0.00    +0.173 A 
ATOM      8  N   UNL     1     -12.208  14.145  64.930  0.00  0.00    -0.224 NA
ATOM      9  C   UNL     1     -12.206  13.566  63.704  0.00  0.00    +0.200 A 
ATOM     10  C   UNL     1     -10.966  11.378  66.808  0.00  0.00    +0.044 A 
ATOM     11  N   UNL     1     -11.349  12.545  63.459  0.00  0.00    -0.207 NA
ENDROOT
BRANCH   1  14
ATOM     12  C   UNL     1      -7.449  10.712  61.558  0.00  0.00    +0.044 A 
ATOM     13  C   UNL     1      -8.611  11.087  62.170  0.00  0.00    +0.025 A 
ATOM     14  C   UNL     1      -9.222  10.372  63.194  0.00  0.00    +0.073 A 
ATOM     15  C   UNL     1      -8.771   9.065  63.332  0.00  0.00    +0.017 A 
ATOM     16  C   UNL     1      -7.722   8.563  62.572  0.00  0.00    +0.002 A 
ATOM     17  C   UNL     1      -7.034   9.401  61.705  0.00  0.00    +0.008 A 
BRANCH  12  19
ATOM     18  C   UNL     1      -5.628  12.268  60.482  0.00  0.00    -0.009 C 
ATOM     19  C   UNL     1      -6.589  11.609  60.830  0.00  0.00    -0.051 C 
ENDBRANCH  12  19
ENDBRANCH   1  14
BRANCH   7  20
ATOM     20  O   UNL     1     -11.984  10.630  68.883  0.00  0.00    -0.470 OA
BRANCH  20  21
ATOM     21  C   UNL     1     -11.200   9.983  69.863  0.00  0.00    +0.237 C 
BRANCH  21  22
ATOM     22  C   UNL     1     -11.961   9.872  71.179  0.00  0.00    +0.189 C 
BRANCH  22  23
ATOM     23  O   UNL     1     -12.276   8.543  71.476  0.00  0.00    -0.347 OA
ATOM     24  C   UNL     1     -11.393   7.725  70.789  0.00  0.00    +0.174 C 
ENDBRANCH  22  23
ENDBRANCH  21  22
ENDBRANCH  20  21
ENDBRANCH   7  20
BRANCH   6  25
ATOM     25  O   UNL     1     -12.085  13.359  69.609  0.00  0.00    -0.470 OA
BRANCH  25  26
ATOM     26  C   UNL     1     -12.102  14.774  69.773  0.00  0.00    +0.237 C 
BRANCH  26  27
ATOM     27  C   UNL     1     -12.350  15.086  71.236  0.00  0.00    +0.189 C 
BRANCH  27  28
ATOM     28  O   UNL     1     -13.558  15.772  71.356  0.00  0.00    -0.347 OA
ATOM     29  C   UNL     1     -14.588  14.908  71.697  0.00  0.00    +0.174 C 
ENDBRANCH  27  28
ENDBRANCH  26  27
ENDBRANCH  25  26
ENDBRANCH   6  25
TORSDOF 10
ENDMDL
MODEL 9
REMARK VINA RESULT:      -5.9      2.488      3.739
REMARK  Name = 
REMARK  10 active torsions:
REMARK  status: ('A' for Active; 'I' for Inactive)
REMARK    1  A    between atoms: C_2  and  C_3
REMARK    2  A    between atoms: C_7  and  N_8
REMARK    3  A    between atoms: C_15  and  O_16
REMARK    4  A    between atoms: O_16  and  C_17
REMARK    5  A    between atoms: C_17  and  C_18
REMARK    6  A    between atoms: C_18  and  O_19
REMARK    7  A    between atoms: C_21  and  O_22
REMARK    8  A    between atoms: O_22  and  C_23
REMARK    9  A    between atoms: C_23  and  C_24
REMARK   10  A    between atoms: C_24  and  O_25
REMARK                            x       y       z     vdW  Elec       q    Type
REMARK                         _______ _______ _______ _____ _____    ______ ____
ROOT
ATOM      1  N   UNL     1     -10.897  11.981  68.648  0.00  0.00    -0.194 NA
ATOM      2  C   UNL     1     -11.288  12.452  67.379  0.00  0.00    +0.155 A 
ATOM      3  C   UNL     1     -10.698  13.647  66.978  0.00  0.00    +0.054 A 
ATOM      4  C   UNL     1     -10.464  13.949  65.651  0.00  0.00    +0.089 A 
ATOM      5  C   UNL     1      -9.822  15.122  65.282  0.00  0.00    +0.059 A 
ATOM      6  C   UNL     1      -9.765  16.130  66.236  0.00  0.00    +0.174 A 
ATOM      7  C   UNL     1     -10.077  15.912  67.567  0.00  0.00    +0.173 A 
ATOM      8  N   UNL     1     -11.031  13.121  64.749  0.00  0.00    -0.224 NA
ATOM      9  C   UNL     1     -11.908  12.164  65.142  0.00  0.00    +0.200 A 
ATOM     10  C   UNL     1     -10.460  14.633  67.929  0.00  0.00    +0.044 A 
ATOM     11  N   UNL     1     -11.871  11.724  66.424  0.00  0.00    -0.207 NA
ENDROOT
BRANCH   1  14
ATOM     12  C   UNL     1     -10.762   9.366  71.118  0.00  0.00    +0.044 A 
ATOM     13  C   UNL     1     -10.628   9.874  69.857  0.00  0.00    +0.025 A 
ATOM     14  C   UNL     1     -11.443  10.864  69.321  0.00  0.00    +0.073 A 
ATOM     15  C   UNL     1     -12.629  11.071  70.015  0.00  0.00    +0.017 A 
ATOM     16  C   UNL     1     -12.912  10.411  71.204  0.00  0.00    +0.002 A 
ATOM     17  C   UNL     1     -11.960   9.579  71.777  0.00  0.00    +0.008 A 
BRANCH  12  19
ATOM     18  C   UNL     1      -9.066   8.163  72.721  0.00  0.00    -0.009 C 
ATOM     19  C   UNL     1      -9.715   8.685  71.835  0.00  0.00    -0.051 C 
ENDBRANCH  12  19
ENDBRANCH   1  14
BRANCH   7  20
ATOM     20  O   UNL     1     -10.518  17.037  68.274  0.00  0.00    -0.470 OA
BRANCH  20  21
ATOM     21  C   UNL     1      -9.619  17.953  68.864  0.00  0.00    +0.237 C 
BRANCH  21  22
ATOM     22  C   UNL     1     -10.005  19.388  68.520  0.00  0.00    +0.189 C 
BRANCH  22  23
ATOM     23  O   UNL     1     -10.967  19.428  67.507  0.00  0.00    -0.347 OA
ATOM     24  C   UNL     1     -10.386  19.990  66.381  0.00  0.00    +0.174 C 
ENDBRANCH  22  23
ENDBRANCH  21  22
ENDBRANCH  20  21
ENDBRANCH   7  20
BRANCH   6  25
ATOM     25  O   UNL     1      -8.972  17.234  65.918  0.00  0.00    -0.470 OA
BRANCH  25  26
ATOM     26  C   UNL     1      -7.574  17.064  66.125  0.00  0.00    +0.237 C 
BRANCH  26  27
ATOM     27  C   UNL     1      -6.886  18.394  65.889  0.00  0.00    +0.189 C 
BRANCH  27  28
ATOM     28  O   UNL     1      -5.958  18.614  66.908  0.00  0.00    -0.347 OA
ATOM     29  C   UNL     1      -6.015  17.604  67.856  0.00  0.00    +0.174 C 
ENDBRANCH  27  28
ENDBRANCH  26  27
ENDBRANCH  25  26
ENDBRANCH   6  25
TORSDOF 10
ENDMDL
