MODEL 1
REMARK VINA RESULT:      -4.2      0.000      0.000
REMARK  Name = 
REMARK  2 active torsions:
REMARK  status: ('A' for Active; 'I' for Inactive)
REMARK    1  A    between atoms: C_2  and  CA_5
REMARK    2  A    between atoms: CA_5  and  C_7
REMARK                            x       y       z     vdW  Elec       q    Type
REMARK                         _______ _______ _______ _____ _____    ______ ____
ROOT
ATOM      1  CA  UNL     1     -12.841  14.098  65.560  0.00  0.00    +0.204 C 
ATOM      2  N   UNL     1     -13.056  12.689  64.877  0.00  0.00    -0.120 NA
ENDROOT
BRANCH   1   4
ATOM      3  C   UNL     1     -11.321  12.385  66.093  0.00  0.00    +0.014 C 
ATOM      4  C   UNL     1     -11.437  13.641  66.283  0.00  0.00    +0.076 C 
ATOM      5  S   UNL     1     -10.088  14.575  65.677  0.00  0.00    -0.082 S 
ATOM      6  C   UNL     1     -11.689  13.722  67.778  0.00  0.00    +0.014 C 
ENDBRANCH   1   4
BRANCH   1   7
ATOM      7  C   UNL     1     -12.162  14.695  64.223  0.00  0.00    +0.383 C 
ATOM      8  OXT UNL     1     -12.263  15.992  63.915  0.00  0.00    -0.244 OA
ATOM      9  O   UNL     1     -12.507  13.871  63.317  0.00  0.00    -0.244 OA
ENDBRANCH   1   7
TORSDOF 2
ENDMDL
MODEL 2
REMARK VINA RESULT:      -4.2      1.147      1.491
REMARK  Name = 
REMARK  2 active torsions:
REMARK  status: ('A' for Active; 'I' for Inactive)
REMARK    1  A    between atoms: C_2  and  CA_5
REMARK    2  A    between atoms: CA_5  and  C_7
REMARK                            x       y       z     vdW  Elec       q    Type
REMARK                         _______ _______ _______ _____ _____    ______ ____
ROOT
ATOM      1  CA  UNL     1     -12.649  14.084  65.592  0.00  0.00    +0.204 C 
ATOM      2  N   UNL     1     -13.023  12.708  64.908  0.00  0.00    -0.120 NA
ENDROOT
BRANCH   1   4
ATOM      3  C   UNL     1     -11.104  13.793  67.341  0.00  0.00    +0.014 C 
ATOM      4  C   UNL     1     -11.179  13.545  66.092  0.00  0.00    +0.076 C 
ATOM      5  S   UNL     1     -10.963  11.855  65.694  0.00  0.00    -0.082 S 
ATOM      6  C   UNL     1     -10.158  14.506  65.508  0.00  0.00    +0.014 C 
ENDBRANCH   1   4
BRANCH   1   7
ATOM      7  C   UNL     1     -12.141  14.696  64.188  0.00  0.00    +0.383 C 
ATOM      8  OXT UNL     1     -12.314  15.989  63.892  0.00  0.00    -0.244 OA
ATOM      9  O   UNL     1     -12.560  13.859  63.325  0.00  0.00    -0.244 OA
ENDBRANCH   1   7
TORSDOF 2
ENDMDL
MODEL 3
REMARK VINA RESULT:      -4.0      2.166      2.648
REMARK  Name = 
REMARK  2 active torsions:
REMARK  status: ('A' for Active; 'I' for Inactive)
REMARK    1  A    between atoms: C_2  and  CA_5
REMARK    2  A    between atoms: CA_5  and  C_7
REMARK                            x       y       z     vdW  Elec       q    Type
REMARK                         _______ _______ _______ _____ _____    ______ ____
ROOT
ATOM      1  CA  UNL     1     -10.377  14.483  65.029  0.00  0.00    +0.204 C 
ATOM      2  N   UNL     1      -9.323  14.823  66.156  0.00  0.00    -0.120 NA
ENDROOT
BRANCH   1   4
ATOM      3  C   UNL     1     -11.242  12.672  66.254  0.00  0.00    +0.014 C 
ATOM      4  C   UNL     1     -11.485  13.914  66.102  0.00  0.00    +0.076 C 
ATOM      5  S   UNL     1     -11.439  14.830  67.592  0.00  0.00    -0.082 S 
ATOM      6  C   UNL     1     -12.813  13.899  65.366  0.00  0.00    +0.014 C 
ENDBRANCH   1   4
BRANCH   1   7
ATOM      7  C   UNL     1     -10.917  16.003  65.010  0.00  0.00    +0.383 C 
ATOM      8  OXT UNL     1     -11.579  16.490  63.955  0.00  0.00    -0.244 OA
ATOM      9  O   UNL     1      -9.919  16.683  65.412  0.00  0.00    -0.244 OA
ENDBRANCH   1   7
TORSDOF 2
ENDMDL
MODEL 4
REMARK VINA RESULT:      -3.9      1.625      2.019
REMARK  Name = 
REMARK  2 active torsions:
REMARK  status: ('A' for Active; 'I' for Inactive)
REMARK    1  A    between atoms: C_2  and  CA_5
REMARK    2  A    between atoms: CA_5  and  C_7
REMARK                            x       y       z     vdW  Elec       q    Type
REMARK                         _______ _______ _______ _____ _____    ______ ____
ROOT
ATOM      1  CA  UNL     1     -11.974  14.818  65.485  0.00  0.00    +0.204 C 
ATOM      2  N   UNL     1     -12.555  14.400  64.076  0.00  0.00    -0.120 NA
ENDROOT
BRANCH   1   4
ATOM      3  C   UNL     1     -10.507  13.372  64.351  0.00  0.00    +0.014 C 
ATOM      4  C   UNL     1     -10.933  13.548  65.540  0.00  0.00    +0.076 C 
ATOM      5  S   UNL     1      -9.663  13.828  66.710  0.00  0.00    -0.082 S 
ATOM      6  C   UNL     1     -11.789  12.314  65.764  0.00  0.00    +0.014 C 
ENDBRANCH   1   4
BRANCH   1   7
ATOM      7  C   UNL     1     -10.944  15.858  64.803  0.00  0.00    +0.383 C 
ATOM      8  OXT UNL     1     -10.173  16.658  65.547  0.00  0.00    -0.244 OA
ATOM      9  O   UNL     1     -11.641  16.425  63.902  0.00  0.00    -0.244 OA
ENDBRANCH   1   7
TORSDOF 2
ENDMDL
MODEL 5
REMARK VINA RESULT:      -3.9      2.270      2.606
REMARK  Name = 
REMARK  2 active torsions:
REMARK  status: ('A' for Active; 'I' for Inactive)
REMARK    1  A    between atoms: C_2  and  CA_5
REMARK    2  A    between atoms: CA_5  and  C_7
REMARK                            x       y       z     vdW  Elec       q    Type
REMARK                         _______ _______ _______ _____ _____    ______ ____
ROOT
ATOM      1  CA  UNL     1     -10.290  14.946  65.198  0.00  0.00    +0.204 C 
ATOM      2  N   UNL     1      -9.680  16.381  65.456  0.00  0.00    -0.120 NA
ENDROOT
BRANCH   1   4
ATOM      3  C   UNL     1     -10.025  13.823  67.247  0.00  0.00    +0.014 C 
ATOM      4  C   UNL     1     -10.750  14.754  66.764  0.00  0.00    +0.076 C 
ATOM      5  S   UNL     1     -10.635  16.265  67.639  0.00  0.00    -0.082 S 
ATOM      6  C   UNL     1     -12.124  14.108  66.722  0.00  0.00    +0.014 C 
ENDBRANCH   1   4
BRANCH   1   7
ATOM      7  C   UNL     1     -11.682  15.579  64.683  0.00  0.00    +0.383 C 
ATOM      8  OXT UNL     1     -12.522  14.876  63.916  0.00  0.00    -0.244 OA
ATOM      9  O   UNL     1     -11.348  16.728  64.247  0.00  0.00    -0.244 OA
ENDBRANCH   1   7
TORSDOF 2
ENDMDL
MODEL 6
REMARK VINA RESULT:      -3.8      1.886      2.357
REMARK  Name = 
REMARK  2 active torsions:
REMARK  status: ('A' for Active; 'I' for Inactive)
REMARK    1  A    between atoms: C_2  and  CA_5
REMARK    2  A    between atoms: CA_5  and  C_7
REMARK                            x       y       z     vdW  Elec       q    Type
REMARK                         _______ _______ _______ _____ _____    ______ ____
ROOT
ATOM      1  CA  UNL     1     -10.768  13.522  64.826  0.00  0.00    +0.204 C 
ATOM      2  N   UNL     1     -10.616  15.092  64.926  0.00  0.00    -0.120 NA
ENDROOT
BRANCH   1   4
ATOM      3  C   UNL     1      -9.384  13.507  66.727  0.00  0.00    +0.014 C 
ATOM      4  C   UNL     1     -10.612  13.307  66.448  0.00  0.00    +0.076 C 
ATOM      5  S   UNL     1     -11.713  14.346  67.326  0.00  0.00    -0.082 S 
ATOM      6  C   UNL     1     -10.762  11.816  66.690  0.00  0.00    +0.014 C 
ENDBRANCH   1   4
BRANCH   1   7
ATOM      7  C   UNL     1     -12.378  13.632  64.819  0.00  0.00    +0.383 C 
ATOM      8  OXT UNL     1     -13.147  12.546  64.682  0.00  0.00    -0.244 OA
ATOM      9  O   UNL     1     -12.611  14.592  64.016  0.00  0.00    -0.244 OA
ENDBRANCH   1   7
TORSDOF 2
ENDMDL
MODEL 7
REMARK VINA RESULT:      -3.8      1.981      2.669
REMARK  Name = 
REMARK  2 active torsions:
REMARK  status: ('A' for Active; 'I' for Inactive)
REMARK    1  A    between atoms: C_2  and  CA_5
REMARK    2  A    between atoms: CA_5  and  C_7
REMARK                            x       y       z     vdW  Elec       q    Type
REMARK                         _______ _______ _______ _____ _____    ______ ____
ROOT
ATOM      1  CA  UNL     1     -11.240  13.607  64.607  0.00  0.00    +0.204 C 
ATOM      2  N   UNL     1     -12.420  14.549  64.137  0.00  0.00    -0.120 NA
ENDROOT
BRANCH   1   4
ATOM      3  C   UNL     1     -11.816  14.718  66.599  0.00  0.00    +0.014 C 
ATOM      4  C   UNL     1     -10.801  14.608  65.834  0.00  0.00    +0.076 C 
ATOM      5  S   UNL     1      -9.368  14.015  66.644  0.00  0.00    -0.082 S 
ATOM      6  C   UNL     1     -10.700  15.997  65.227  0.00  0.00    +0.014 C 
ENDBRANCH   1   4
BRANCH   1   7
ATOM      7  C   UNL     1     -12.251  12.698  65.477  0.00  0.00    +0.383 C 
ATOM      8  OXT UNL     1     -11.815  11.629  66.153  0.00  0.00    -0.244 OA
ATOM      9  O   UNL     1     -13.235  12.507  64.693  0.00  0.00    -0.244 OA
ENDBRANCH   1   7
TORSDOF 2
ENDMDL
MODEL 8
REMARK VINA RESULT:      -3.7      1.547      1.862
REMARK  Name = 
REMARK  2 active torsions:
REMARK  status: ('A' for Active; 'I' for Inactive)
REMARK    1  A    between atoms: C_2  and  CA_5
REMARK    2  A    between atoms: CA_5  and  C_7
REMARK                            x       y       z     vdW  Elec       q    Type
REMARK                         _______ _______ _______ _____ _____    ______ ____
ROOT
ATOM      1  CA  UNL     1     -11.523  14.057  64.877  0.00  0.00    +0.204 C 
ATOM      2  N   UNL     1     -13.084  14.002  65.120  0.00  0.00    -0.120 NA
ENDROOT
BRANCH   1   4
ATOM      3  C   UNL     1     -11.775  12.272  66.387  0.00  0.00    +0.014 C 
ATOM      4  C   UNL     1     -11.176  13.397  66.342  0.00  0.00    +0.076 C 
ATOM      5  S   UNL     1      -9.447  13.285  66.584  0.00  0.00    -0.082 S 
ATOM      6  C   UNL     1     -11.943  14.216  67.364  0.00  0.00    +0.014 C 
ENDBRANCH   1   4
BRANCH   1   7
ATOM      7  C   UNL     1     -11.554  12.666  64.061  0.00  0.00    +0.383 C 
ATOM      8  OXT UNL     1     -10.487  12.240  63.376  0.00  0.00    -0.244 OA
ATOM      9  O   UNL     1     -12.652  12.717  63.420  0.00  0.00    -0.244 OA
ENDBRANCH   1   7
TORSDOF 2
ENDMDL
MODEL 9
REMARK VINA RESULT:      -3.7      2.001      2.441
REMARK  Name = 
REMARK  2 active torsions:
REMARK  status: ('A' for Active; 'I' for Inactive)
REMARK    1  A    between atoms: C_2  and  CA_5
REMARK    2  A    between atoms: CA_5  and  C_7
REMARK                            x       y       z     vdW  Elec       q    Type
REMARK                         _______ _______ _______ _____ _____    ______ ____
ROOT
ATOM      1  CA  UNL     1     -10.852  13.510  65.042  0.00  0.00    +0.204 C 
ATOM      2  N   UNL     1     -10.700  15.080  64.946  0.00  0.00    -0.120 NA
ENDROOT
BRANCH   1   4
ATOM      3  C   UNL     1     -11.733  14.408  67.029  0.00  0.00    +0.014 C 
ATOM      4  C   UNL     1     -10.887  13.517  66.685  0.00  0.00    +0.076 C 
ATOM      5  S   UNL     1     -11.247  11.924  67.310  0.00  0.00    -0.082 S 
ATOM      6  C   UNL     1      -9.571  14.129  67.130  0.00  0.00    +0.014 C 
ENDBRANCH   1   4
BRANCH   1   7
ATOM      7  C   UNL     1     -12.449  13.606  64.832  0.00  0.00    +0.383 C 
ATOM      8  OXT UNL     1     -13.189  12.510  64.633  0.00  0.00    -0.244 OA
ATOM      9  O   UNL     1     -12.586  14.541  63.980  0.00  0.00    -0.244 OA
ENDBRANCH   1   7
TORSDOF 2
ENDMDL
