MODEL 1
REMARK VINA RESULT:      -6.8      0.000      0.000
REMARK  Name = 
REMARK  7 active torsions:
REMARK  status: ('A' for Active; 'I' for Inactive)
REMARK    1  A    between atoms: C_5  and  C_6
REMARK    2  A    between atoms: C_6  and  C_7
REMARK    3  A    between atoms: C_7  and  C_8
REMARK    4  A    between atoms: C_8  and  C_9
REMARK    5  A    between atoms: C_8  and  S_15
REMARK    6  A    between atoms: C_9  and  N_10
REMARK    7  A    between atoms: S_15  and  C_16
REMARK                            x       y       z     vdW  Elec       q    Type
REMARK                         _______ _______ _______ _____ _____    ______ ____
ROOT
ATOM      1  C   UNL     1     -11.184  11.851  67.853  0.00  0.00    +0.075 C 
ENDROOT
BRANCH   1   2
ATOM      2  C   UNL     1     -10.891  13.116  68.774  0.00  0.00    +0.018 C 
BRANCH   2   3
ATOM      3  C   UNL     1     -12.149  13.875  69.022  0.00  0.00    +0.027 C 
BRANCH   3   8
ATOM      4 CL   UNL     1     -12.472  15.708  74.683  0.00  0.00    -0.082 Cl
ATOM      5  C   UNL     1     -12.617  15.329  73.038  0.00  0.00    +0.058 A 
ATOM      6  C   UNL     1     -13.246  14.179  72.619  0.00  0.00    +0.011 A 
ATOM      7  C   UNL     1     -12.848  13.602  71.424  0.00  0.00    -0.003 A 
ATOM      8  C   UNL     1     -12.132  14.290  70.461  0.00  0.00    -0.022 A 
ATOM      9  C   UNL     1     -11.637  15.525  70.834  0.00  0.00    -0.003 A 
ATOM     10  C   UNL     1     -11.851  16.014  72.115  0.00  0.00    +0.011 A 
ENDBRANCH   3   8
ENDBRANCH   2   3
ENDBRANCH   1   2
BRANCH   1  11
ATOM     11  C   UNL     1     -10.309  12.332  66.609  0.00  0.00    +0.119 C 
BRANCH  11  12
ATOM     12  N   UNL     1     -11.265  12.232  65.508  0.00  0.00    -0.307 N 
ATOM     13  C   UNL     1     -12.373  12.985  65.354  0.00  0.00    +0.179 A 
ATOM     14  N   UNL     1     -12.822  12.933  64.095  0.00  0.00    -0.222 NA
ATOM     15  C   UNL     1     -12.139  11.954  63.458  0.00  0.00    +0.119 A 
ATOM     16  C   UNL     1     -11.082  11.656  64.298  0.00  0.00    +0.098 A 
ENDBRANCH  11  12
ENDBRANCH   1  11
BRANCH   1  17
ATOM     17  S   UNL     1      -9.774  10.803  68.617  0.00  0.00    -0.111 S 
BRANCH  17  18
ATOM     18  C   UNL     1     -10.534   9.221  68.907  0.00  0.00    +0.046 A 
ATOM     19  C   UNL     1     -10.388   8.255  67.932  0.00  0.00    +0.064 A 
ATOM     20 CL   UNL     1     -10.115   8.731  66.259  0.00  0.00    -0.082 Cl
ATOM     21  C   UNL     1     -10.511   6.918  68.293  0.00  0.00    +0.012 A 
ATOM     22  C   UNL     1     -10.790   6.576  69.606  0.00  0.00    +0.002 A 
ATOM     23  C   UNL     1     -11.245   7.585  70.445  0.00  0.00    +0.012 A 
ATOM     24  C   UNL     1     -11.262   8.912  70.033  0.00  0.00    +0.064 A 
ATOM     25 CL   UNL     1     -11.725  10.218  71.101  0.00  0.00    -0.082 Cl
ENDBRANCH  17  18
ENDBRANCH   1  17
TORSDOF 7
ENDMDL
MODEL 2
REMARK VINA RESULT:      -6.7      3.556      5.116
REMARK  Name = 
REMARK  7 active torsions:
REMARK  status: ('A' for Active; 'I' for Inactive)
REMARK    1  A    between atoms: C_5  and  C_6
REMARK    2  A    between atoms: C_6  and  C_7
REMARK    3  A    between atoms: C_7  and  C_8
REMARK    4  A    between atoms: C_8  and  C_9
REMARK    5  A    between atoms: C_8  and  S_15
REMARK    6  A    between atoms: C_9  and  N_10
REMARK    7  A    between atoms: S_15  and  C_16
REMARK                            x       y       z     vdW  Elec       q    Type
REMARK                         _______ _______ _______ _____ _____    ______ ____
ROOT
ATOM      1  C   UNL     1     -10.653  15.624  67.335  0.00  0.00    +0.075 C 
ENDROOT
BRANCH   1   2
ATOM      2  C   UNL     1     -10.694  14.528  68.488  0.00  0.00    +0.018 C 
BRANCH   2   3
ATOM      3  C   UNL     1     -12.092  14.336  68.969  0.00  0.00    +0.027 C 
BRANCH   3   8
ATOM      4 CL   UNL     1     -12.491  15.591  74.781  0.00  0.00    -0.082 Cl
ATOM      5  C   UNL     1     -12.628  15.355  73.108  0.00  0.00    +0.058 A 
ATOM      6  C   UNL     1     -13.154  14.195  72.586  0.00  0.00    +0.011 A 
ATOM      7  C   UNL     1     -12.723  13.773  71.339  0.00  0.00    -0.003 A 
ATOM      8  C   UNL     1     -12.090  14.614  70.440  0.00  0.00    -0.022 A 
ATOM      9  C   UNL     1     -11.706  15.849  70.925  0.00  0.00    -0.003 A 
ATOM     10  C   UNL     1     -11.944  16.193  72.248  0.00  0.00    +0.011 A 
ENDBRANCH   3   8
ENDBRANCH   2   3
ENDBRANCH   1   2
BRANCH   1  11
ATOM     11  C   UNL     1      -9.597  16.586  68.045  0.00  0.00    +0.119 C 
BRANCH  11  12
ATOM     12  N   UNL     1     -10.034  17.905  67.591  0.00  0.00    -0.307 N 
ATOM     13  C   UNL     1      -9.830  19.070  68.240  0.00  0.00    +0.179 A 
ATOM     14  N   UNL     1      -9.994  20.114  67.421  0.00  0.00    -0.222 NA
ATOM     15  C   UNL     1     -10.536  19.650  66.271  0.00  0.00    +0.119 A 
ATOM     16  C   UNL     1     -10.396  18.277  66.343  0.00  0.00    +0.098 A 
ENDBRANCH  11  12
ENDBRANCH   1  11
BRANCH   1  17
ATOM     17  S   UNL     1      -9.328  14.691  66.314  0.00  0.00    -0.111 S 
BRANCH  17  18
ATOM     18  C   UNL     1     -10.224  13.328  65.605  0.00  0.00    +0.046 A 
ATOM     19  C   UNL     1     -11.113  13.608  64.587  0.00  0.00    +0.064 A 
ATOM     20 CL   UNL     1     -11.844  15.206  64.476  0.00  0.00    -0.082 Cl
ATOM     21  C   UNL     1     -11.448  12.596  63.695  0.00  0.00    +0.012 A 
ATOM     22  C   UNL     1     -10.906  11.331  63.846  0.00  0.00    +0.002 A 
ATOM     23  C   UNL     1     -10.296  11.038  65.059  0.00  0.00    +0.012 A 
ATOM     24  C   UNL     1     -10.090  12.022  66.018  0.00  0.00    +0.064 A 
ATOM     25 CL   UNL     1      -9.229  11.712  67.509  0.00  0.00    -0.082 Cl
ENDBRANCH  17  18
ENDBRANCH   1  17
TORSDOF 7
ENDMDL
MODEL 3
REMARK VINA RESULT:      -6.6      3.809      5.836
REMARK  Name = 
REMARK  7 active torsions:
REMARK  status: ('A' for Active; 'I' for Inactive)
REMARK    1  A    between atoms: C_5  and  C_6
REMARK    2  A    between atoms: C_6  and  C_7
REMARK    3  A    between atoms: C_7  and  C_8
REMARK    4  A    between atoms: C_8  and  C_9
REMARK    5  A    between atoms: C_8  and  S_15
REMARK    6  A    between atoms: C_9  and  N_10
REMARK    7  A    between atoms: S_15  and  C_16
REMARK                            x       y       z     vdW  Elec       q    Type
REMARK                         _______ _______ _______ _____ _____    ______ ____
ROOT
ATOM      1  C   UNL     1     -10.601  16.294  68.083  0.00  0.00    +0.075 C 
ENDROOT
BRANCH   1   2
ATOM      2  C   UNL     1     -10.593  15.291  69.318  0.00  0.00    +0.018 C 
BRANCH   2   3
ATOM      3  C   UNL     1     -11.890  15.361  70.049  0.00  0.00    +0.027 C 
BRANCH   3   8
ATOM      4 CL   UNL     1     -13.310   9.718  71.335  0.00  0.00    -0.082 Cl
ATOM      5  C   UNL     1     -12.688  11.282  71.138  0.00  0.00    +0.058 A 
ATOM      6  C   UNL     1     -13.104  12.326  71.932  0.00  0.00    +0.011 A 
ATOM      7  C   UNL     1     -13.077  13.609  71.412  0.00  0.00    -0.003 A 
ATOM      8  C   UNL     1     -12.328  13.951  70.299  0.00  0.00    -0.022 A 
ATOM      9  C   UNL     1     -11.772  12.903  69.591  0.00  0.00    -0.003 A 
ATOM     10  C   UNL     1     -11.982  11.591  69.991  0.00  0.00    +0.011 A 
ENDBRANCH   3   8
ENDBRANCH   2   3
ENDBRANCH   1   2
BRANCH   1  11
ATOM     11  C   UNL     1      -9.521  17.308  68.672  0.00  0.00    +0.119 C 
BRANCH  11  12
ATOM     12  N   UNL     1      -9.576  18.406  67.708  0.00  0.00    -0.307 N 
ATOM     13  C   UNL     1      -8.541  18.861  66.972  0.00  0.00    +0.179 A 
ATOM     14  N   UNL     1      -8.971  19.587  65.933  0.00  0.00    -0.222 NA
ATOM     15  C   UNL     1     -10.294  19.807  66.109  0.00  0.00    +0.119 A 
ATOM     16  C   UNL     1     -10.668  18.936  67.114  0.00  0.00    +0.098 A 
ENDBRANCH  11  12
ENDBRANCH   1  11
BRANCH   1  17
ATOM     17  S   UNL     1      -9.315  15.284  67.085  0.00  0.00    -0.111 S 
BRANCH  17  18
ATOM     18  C   UNL     1     -10.312  14.225  66.062  0.00  0.00    +0.046 A 
ATOM     19  C   UNL     1     -10.211  12.863  66.262  0.00  0.00    +0.064 A 
ATOM     20 CL   UNL     1      -8.733  12.183  66.938  0.00  0.00    -0.082 Cl
ATOM     21  C   UNL     1     -11.270  12.050  65.876  0.00  0.00    +0.012 A 
ATOM     22  C   UNL     1     -12.394  12.606  65.288  0.00  0.00    +0.002 A 
ATOM     23  C   UNL     1     -12.290  13.911  64.821  0.00  0.00    +0.012 A 
ATOM     24  C   UNL     1     -11.163  14.682  65.081  0.00  0.00    +0.064 A 
ATOM     25 CL   UNL     1     -11.046  16.360  64.603  0.00  0.00    -0.082 Cl
ENDBRANCH  17  18
ENDBRANCH   1  17
TORSDOF 7
ENDMDL
MODEL 4
REMARK VINA RESULT:      -6.6      0.864      1.938
REMARK  Name = 
REMARK  7 active torsions:
REMARK  status: ('A' for Active; 'I' for Inactive)
REMARK    1  A    between atoms: C_5  and  C_6
REMARK    2  A    between atoms: C_6  and  C_7
REMARK    3  A    between atoms: C_7  and  C_8
REMARK    4  A    between atoms: C_8  and  C_9
REMARK    5  A    between atoms: C_8  and  S_15
REMARK    6  A    between atoms: C_9  and  N_10
REMARK    7  A    between atoms: S_15  and  C_16
REMARK                            x       y       z     vdW  Elec       q    Type
REMARK                         _______ _______ _______ _____ _____    ______ ____
ROOT
ATOM      1  C   UNL     1     -11.589  11.329  67.741  0.00  0.00    +0.075 C 
ENDROOT
BRANCH   1   2
ATOM      2  C   UNL     1     -11.952  11.959  69.156  0.00  0.00    +0.018 C 
BRANCH   2   3
ATOM      3  C   UNL     1     -11.937  13.447  69.078  0.00  0.00    +0.027 C 
BRANCH   3   8
ATOM      4 CL   UNL     1     -12.536  15.677  74.572  0.00  0.00    -0.082 Cl
ATOM      5  C   UNL     1     -12.593  15.192  72.949  0.00  0.00    +0.058 A 
ATOM      6  C   UNL     1     -13.247  14.043  72.566  0.00  0.00    +0.011 A 
ATOM      7  C   UNL     1     -12.801  13.369  71.441  0.00  0.00    -0.003 A 
ATOM      8  C   UNL     1     -11.993  13.959  70.485  0.00  0.00    -0.022 A 
ATOM      9  C   UNL     1     -11.466  15.195  70.808  0.00  0.00    -0.003 A 
ATOM     10  C   UNL     1     -11.739  15.779  72.036  0.00  0.00    +0.011 A 
ENDBRANCH   3   8
ENDBRANCH   2   3
ENDBRANCH   1   2
BRANCH   1  11
ATOM     11  C   UNL     1     -11.033  12.673  67.087  0.00  0.00    +0.119 C 
BRANCH  11  12
ATOM     12  N   UNL     1     -11.658  12.651  65.766  0.00  0.00    -0.307 N 
ATOM     13  C   UNL     1     -12.557  13.544  65.303  0.00  0.00    +0.179 A 
ATOM     14  N   UNL     1     -12.651  13.489  63.970  0.00  0.00    -0.222 NA
ATOM     15  C   UNL     1     -11.976  12.390  63.559  0.00  0.00    +0.119 A 
ATOM     16  C   UNL     1     -11.243  11.991  64.661  0.00  0.00    +0.098 A 
ENDBRANCH  11  12
ENDBRANCH   1  11
BRANCH   1  17
ATOM     17  S   UNL     1      -9.861  10.724  68.306  0.00  0.00    -0.111 S 
BRANCH  17  18
ATOM     18  C   UNL     1     -10.001   8.951  68.265  0.00  0.00    +0.046 A 
ATOM     19  C   UNL     1     -10.112   8.291  69.472  0.00  0.00    +0.064 A 
ATOM     20 CL   UNL     1      -9.456   9.021  70.935  0.00  0.00    -0.082 Cl
ATOM     21  C   UNL     1     -10.701   7.033  69.494  0.00  0.00    +0.012 A 
ATOM     22  C   UNL     1     -11.150   6.456  68.317  0.00  0.00    +0.002 A 
ATOM     23  C   UNL     1     -10.712   7.017  67.124  0.00  0.00    +0.012 A 
ATOM     24  C   UNL     1      -9.992   8.205  67.108  0.00  0.00    +0.064 A 
ATOM     25 CL   UNL     1      -9.521   8.996  65.620  0.00  0.00    -0.082 Cl
ENDBRANCH  17  18
ENDBRANCH   1  17
TORSDOF 7
ENDMDL
MODEL 5
REMARK VINA RESULT:      -6.6      4.364      8.551
REMARK  Name = 
REMARK  7 active torsions:
REMARK  status: ('A' for Active; 'I' for Inactive)
REMARK    1  A    between atoms: C_5  and  C_6
REMARK    2  A    between atoms: C_6  and  C_7
REMARK    3  A    between atoms: C_7  and  C_8
REMARK    4  A    between atoms: C_8  and  C_9
REMARK    5  A    between atoms: C_8  and  S_15
REMARK    6  A    between atoms: C_9  and  N_10
REMARK    7  A    between atoms: S_15  and  C_16
REMARK                            x       y       z     vdW  Elec       q    Type
REMARK                         _______ _______ _______ _____ _____    ______ ____
ROOT
ATOM      1  C   UNL     1     -11.018  15.663  68.873  0.00  0.00    +0.075 C 
ENDROOT
BRANCH   1   2
ATOM      2  C   UNL     1     -11.085  14.156  68.368  0.00  0.00    +0.018 C 
BRANCH   2   3
ATOM      3  C   UNL     1     -12.207  13.984  67.402  0.00  0.00    +0.027 C 
BRANCH   3   8
ATOM      4 CL   UNL     1     -10.068  10.555  63.023  0.00  0.00    -0.082 Cl
ATOM      5  C   UNL     1     -10.539  11.737  64.142  0.00  0.00    +0.058 A 
ATOM      6  C   UNL     1      -9.819  11.965  65.292  0.00  0.00    +0.011 A 
ATOM      7  C   UNL     1     -10.485  12.440  66.410  0.00  0.00    -0.003 A 
ATOM      8  C   UNL     1     -11.730  13.040  66.342  0.00  0.00    -0.022 A 
ATOM      9  C   UNL     1     -12.386  12.951  65.129  0.00  0.00    -0.003 A 
ATOM     10  C   UNL     1     -11.808  12.279  64.061  0.00  0.00    +0.011 A 
ENDBRANCH   3   8
ENDBRANCH   2   3
ENDBRANCH   1   2
BRANCH   1  11
ATOM     11  C   UNL     1     -10.580  15.328  70.370  0.00  0.00    +0.119 C 
BRANCH  11  12
ATOM     12  N   UNL     1     -11.787  15.663  71.123  0.00  0.00    -0.307 N 
ATOM     13  C   UNL     1     -13.054  15.554  70.672  0.00  0.00    +0.179 A 
ATOM     14  N   UNL     1     -13.929  15.563  71.683  0.00  0.00    -0.222 NA
ATOM     15  C   UNL     1     -13.255  15.910  72.804  0.00  0.00    +0.119 A 
ATOM     16  C   UNL     1     -11.920  15.804  72.461  0.00  0.00    +0.098 A 
ENDBRANCH  11  12
ENDBRANCH   1  11
BRANCH   1  17
ATOM     17  S   UNL     1      -9.223  15.928  68.258  0.00  0.00    -0.111 S 
BRANCH  17  18
ATOM     18  C   UNL     1      -9.270  17.534  67.496  0.00  0.00    +0.046 A 
ATOM     19  C   UNL     1     -10.086  17.694  66.394  0.00  0.00    +0.064 A 
ATOM     20 CL   UNL     1     -10.483  16.304  65.387  0.00  0.00    -0.082 Cl
ATOM     21  C   UNL     1     -10.537  18.969  66.076  0.00  0.00    +0.012 A 
ATOM     22  C   UNL     1     -10.156  20.053  66.849  0.00  0.00    +0.002 A 
ATOM     23  C   UNL     1      -9.089  19.871  67.721  0.00  0.00    +0.012 A 
ATOM     24  C   UNL     1      -8.537  18.614  67.931  0.00  0.00    +0.064 A 
ATOM     25 CL   UNL     1      -7.268  18.332  69.102  0.00  0.00    -0.082 Cl
ENDBRANCH  17  18
ENDBRANCH   1  17
TORSDOF 7
ENDMDL
MODEL 6
REMARK VINA RESULT:      -6.6      4.111      5.265
REMARK  Name = 
REMARK  7 active torsions:
REMARK  status: ('A' for Active; 'I' for Inactive)
REMARK    1  A    between atoms: C_5  and  C_6
REMARK    2  A    between atoms: C_6  and  C_7
REMARK    3  A    between atoms: C_7  and  C_8
REMARK    4  A    between atoms: C_8  and  C_9
REMARK    5  A    between atoms: C_8  and  S_15
REMARK    6  A    between atoms: C_9  and  N_10
REMARK    7  A    between atoms: S_15  and  C_16
REMARK                            x       y       z     vdW  Elec       q    Type
REMARK                         _______ _______ _______ _____ _____    ______ ____
ROOT
ATOM      1  C   UNL     1     -11.402  14.575  67.209  0.00  0.00    +0.075 C 
ENDROOT
BRANCH   1   2
ATOM      2  C   UNL     1     -10.767  16.023  67.386  0.00  0.00    +0.018 C 
BRANCH   2   3
ATOM      3  C   UNL     1     -10.451  16.615  66.055  0.00  0.00    +0.027 C 
BRANCH   3   8
ATOM      4 CL   UNL     1      -6.769  21.090  67.442  0.00  0.00    -0.082 Cl
ATOM      5  C   UNL     1      -7.839  19.781  67.323  0.00  0.00    +0.058 A 
ATOM      6  C   UNL     1      -7.382  18.489  67.195  0.00  0.00    +0.011 A 
ATOM      7  C   UNL     1      -8.170  17.570  66.522  0.00  0.00    -0.003 A 
ATOM      8  C   UNL     1      -9.522  17.764  66.297  0.00  0.00    -0.022 A 
ATOM      9  C   UNL     1     -10.015  19.023  66.582  0.00  0.00    -0.003 A 
ATOM     10  C   UNL     1      -9.173  20.020  67.055  0.00  0.00    +0.011 A 
ENDBRANCH   3   8
ENDBRANCH   2   3
ENDBRANCH   1   2
BRANCH   1  11
ATOM     11  C   UNL     1     -10.345  14.049  66.136  0.00  0.00    +0.119 C 
BRANCH  11  12
ATOM     12  N   UNL     1     -11.172  13.191  65.289  0.00  0.00    -0.307 N 
ATOM     13  C   UNL     1     -12.519  13.115  65.320  0.00  0.00    +0.179 A 
ATOM     14  N   UNL     1     -12.996  12.555  64.203  0.00  0.00    -0.222 NA
ATOM     15  C   UNL     1     -11.945  12.045  63.520  0.00  0.00    +0.119 A 
ATOM     16  C   UNL     1     -10.830  12.593  64.126  0.00  0.00    +0.098 A 
ENDBRANCH  11  12
ENDBRANCH   1  11
BRANCH   1  17
ATOM     17  S   UNL     1     -10.461  13.835  68.705  0.00  0.00    -0.111 S 
BRANCH  17  18
ATOM     18  C   UNL     1     -11.738  13.043  69.657  0.00  0.00    +0.046 A 
ATOM     19  C   UNL     1     -11.900  11.682  69.499  0.00  0.00    +0.064 A 
ATOM     20 CL   UNL     1     -11.409  10.908  67.995  0.00  0.00    -0.082 Cl
ATOM     21  C   UNL     1     -12.498  10.957  70.524  0.00  0.00    +0.012 A 
ATOM     22  C   UNL     1     -12.932  11.604  71.669  0.00  0.00    +0.002 A 
ATOM     23  C   UNL     1     -13.039  12.988  71.619  0.00  0.00    +0.012 A 
ATOM     24  C   UNL     1     -12.574  13.708  70.526  0.00  0.00    +0.064 A 
ATOM     25 CL   UNL     1     -12.593  15.456  70.478  0.00  0.00    -0.082 Cl
ENDBRANCH  17  18
ENDBRANCH   1  17
TORSDOF 7
ENDMDL
MODEL 7
REMARK VINA RESULT:      -6.5      3.104      4.607
REMARK  Name = 
REMARK  7 active torsions:
REMARK  status: ('A' for Active; 'I' for Inactive)
REMARK    1  A    between atoms: C_5  and  C_6
REMARK    2  A    between atoms: C_6  and  C_7
REMARK    3  A    between atoms: C_7  and  C_8
REMARK    4  A    between atoms: C_8  and  C_9
REMARK    5  A    between atoms: C_8  and  S_15
REMARK    6  A    between atoms: C_9  and  N_10
REMARK    7  A    between atoms: S_15  and  C_16
REMARK                            x       y       z     vdW  Elec       q    Type
REMARK                         _______ _______ _______ _____ _____    ______ ____
ROOT
ATOM      1  C   UNL     1     -10.574  14.549  67.079  0.00  0.00    +0.075 C 
ENDROOT
BRANCH   1   2
ATOM      2  C   UNL     1     -11.517  15.074  68.249  0.00  0.00    +0.018 C 
BRANCH   2   3
ATOM      3  C   UNL     1     -12.058  13.926  69.031  0.00  0.00    +0.027 C 
BRANCH   3   8
ATOM      4 CL   UNL     1     -12.501  15.768  74.681  0.00  0.00    -0.082 Cl
ATOM      5  C   UNL     1     -12.613  15.383  73.034  0.00  0.00    +0.058 A 
ATOM      6  C   UNL     1     -13.221  14.225  72.607  0.00  0.00    +0.011 A 
ATOM      7  C   UNL     1     -12.796  13.649  71.421  0.00  0.00    -0.003 A 
ATOM      8  C   UNL     1     -12.071  14.345  70.469  0.00  0.00    -0.022 A 
ATOM      9  C   UNL     1     -11.597  15.586  70.847  0.00  0.00    -0.003 A 
ATOM     10  C   UNL     1     -11.839  16.075  72.123  0.00  0.00    +0.011 A 
ENDBRANCH   3   8
ENDBRANCH   2   3
ENDBRANCH   1   2
BRANCH   1  11
ATOM     11  C   UNL     1      -9.214  14.608  67.910  0.00  0.00    +0.119 C 
BRANCH  11  12
ATOM     12  N   UNL     1      -8.602  15.835  67.405  0.00  0.00    -0.307 N 
ATOM     13  C   UNL     1      -8.585  16.236  66.117  0.00  0.00    +0.179 A 
ATOM     14  N   UNL     1      -8.305  17.541  66.021  0.00  0.00    -0.222 NA
ATOM     15  C   UNL     1      -7.907  17.964  67.243  0.00  0.00    +0.119 A 
ATOM     16  C   UNL     1      -8.256  16.940  68.104  0.00  0.00    +0.098 A 
ENDBRANCH  11  12
ENDBRANCH   1  11
BRANCH   1  17
ATOM     17  S   UNL     1     -10.896  12.701  67.470  0.00  0.00    -0.111 S 
BRANCH  17  18
ATOM     18  C   UNL     1     -10.910  11.927  65.870  0.00  0.00    +0.046 A 
ATOM     19  C   UNL     1     -11.623  12.548  64.865  0.00  0.00    +0.064 A 
ATOM     20 CL   UNL     1     -12.979  13.598  65.272  0.00  0.00    -0.082 Cl
ATOM     21  C   UNL     1     -11.281  12.290  63.544  0.00  0.00    +0.012 A 
ATOM     22  C   UNL     1     -10.251  11.410  63.253  0.00  0.00    +0.002 A 
ATOM     23  C   UNL     1      -9.810  10.583  64.279  0.00  0.00    +0.012 A 
ATOM     24  C   UNL     1     -10.265  10.746  65.581  0.00  0.00    +0.064 A 
ATOM     25 CL   UNL     1      -9.648   9.795  66.914  0.00  0.00    -0.082 Cl
ENDBRANCH  17  18
ENDBRANCH   1  17
TORSDOF 7
ENDMDL
MODEL 8
REMARK VINA RESULT:      -6.3      4.406      6.531
REMARK  Name = 
REMARK  7 active torsions:
REMARK  status: ('A' for Active; 'I' for Inactive)
REMARK    1  A    between atoms: C_5  and  C_6
REMARK    2  A    between atoms: C_6  and  C_7
REMARK    3  A    between atoms: C_7  and  C_8
REMARK    4  A    between atoms: C_8  and  C_9
REMARK    5  A    between atoms: C_8  and  S_15
REMARK    6  A    between atoms: C_9  and  N_10
REMARK    7  A    between atoms: S_15  and  C_16
REMARK                            x       y       z     vdW  Elec       q    Type
REMARK                         _______ _______ _______ _____ _____    ______ ____
ROOT
ATOM      1  C   UNL     1     -11.192  14.728  69.924  0.00  0.00    +0.075 C 
ENDROOT
BRANCH   1   2
ATOM      2  C   UNL     1     -10.170  15.780  69.307  0.00  0.00    +0.018 C 
BRANCH   2   3
ATOM      3  C   UNL     1     -10.900  16.791  68.490  0.00  0.00    +0.027 C 
BRANCH   3   8
ATOM      4 CL   UNL     1      -6.901  20.989  67.113  0.00  0.00    -0.082 Cl
ATOM      5  C   UNL     1      -8.062  19.930  67.748  0.00  0.00    +0.058 A 
ATOM      6  C   UNL     1      -7.698  18.784  68.418  0.00  0.00    +0.011 A 
ATOM      7  C   UNL     1      -8.554  17.695  68.386  0.00  0.00    -0.003 A 
ATOM      8  C   UNL     1      -9.890  17.803  68.043  0.00  0.00    -0.022 A 
ATOM      9  C   UNL     1     -10.291  19.017  67.519  0.00  0.00    -0.003 A 
ATOM     10  C   UNL     1      -9.378  20.047  67.345  0.00  0.00    +0.011 A 
ENDBRANCH   3   8
ENDBRANCH   2   3
ENDBRANCH   1   2
BRANCH   1  11
ATOM     11  C   UNL     1     -12.360  15.772  70.224  0.00  0.00    +0.119 C 
BRANCH  11  12
ATOM     12  N   UNL     1     -12.640  15.518  71.636  0.00  0.00    -0.307 N 
ATOM     13  C   UNL     1     -13.246  14.421  72.135  0.00  0.00    +0.179 A 
ATOM     14  N   UNL     1     -13.020  14.299  73.448  0.00  0.00    -0.222 NA
ATOM     15  C   UNL     1     -12.447  15.449  73.872  0.00  0.00    +0.119 A 
ATOM     16  C   UNL     1     -12.078  16.109  72.714  0.00  0.00    +0.098 A 
ENDBRANCH  11  12
ENDBRANCH   1  11
BRANCH   1  17
ATOM     17  S   UNL     1     -11.899  14.215  68.219  0.00  0.00    -0.111 S 
BRANCH  17  18
ATOM     18  C   UNL     1     -10.971  12.757  67.799  0.00  0.00    +0.046 A 
ATOM     19  C   UNL     1     -11.319  11.577  68.424  0.00  0.00    +0.064 A 
ATOM     20 CL   UNL     1     -12.099  11.617  70.003  0.00  0.00    -0.082 Cl
ATOM     21  C   UNL     1     -10.998  10.373  67.808  0.00  0.00    +0.012 A 
ATOM     22  C   UNL     1     -10.326  10.372  66.596  0.00  0.00    +0.002 A 
ATOM     23  C   UNL     1      -9.725  11.560  66.199  0.00  0.00    +0.012 A 
ATOM     24  C   UNL     1      -9.927  12.741  66.902  0.00  0.00    +0.064 A 
ATOM     25 CL   UNL     1      -9.275  14.273  66.367  0.00  0.00    -0.082 Cl
ENDBRANCH  17  18
ENDBRANCH   1  17
TORSDOF 7
ENDMDL
MODEL 9
REMARK VINA RESULT:      -6.3      3.178      6.183
REMARK  Name = 
REMARK  7 active torsions:
REMARK  status: ('A' for Active; 'I' for Inactive)
REMARK    1  A    between atoms: C_5  and  C_6
REMARK    2  A    between atoms: C_6  and  C_7
REMARK    3  A    between atoms: C_7  and  C_8
REMARK    4  A    between atoms: C_8  and  C_9
REMARK    5  A    between atoms: C_8  and  S_15
REMARK    6  A    between atoms: C_9  and  N_10
REMARK    7  A    between atoms: S_15  and  C_16
REMARK                            x       y       z     vdW  Elec       q    Type
REMARK                         _______ _______ _______ _____ _____    ______ ____
ROOT
ATOM      1  C   UNL     1     -11.283  14.338  68.684  0.00  0.00    +0.075 C 
ENDROOT
BRANCH   1   2
ATOM      2  C   UNL     1     -10.938  12.896  69.264  0.00  0.00    +0.018 C 
BRANCH   2   3
ATOM      3  C   UNL     1     -12.020  11.930  68.923  0.00  0.00    +0.027 C 
BRANCH   3   8
ATOM      4 CL   UNL     1     -11.216   7.470  72.792  0.00  0.00    -0.082 Cl
ATOM      5  C   UNL     1     -11.363   8.904  71.900  0.00  0.00    +0.058 A 
ATOM      6  C   UNL     1     -12.555   9.588  71.831  0.00  0.00    +0.011 A 
ATOM      7  C   UNL     1     -12.824  10.340  70.699  0.00  0.00    -0.003 A 
ATOM      8  C   UNL     1     -11.839  10.740  69.813  0.00  0.00    -0.022 A 
ATOM      9  C   UNL     1     -10.592  10.171  69.988  0.00  0.00    -0.003 A 
ATOM     10  C   UNL     1     -10.375   9.243  70.996  0.00  0.00    +0.011 A 
ENDBRANCH   3   8
ENDBRANCH   2   3
ENDBRANCH   1   2
BRANCH   1  11
ATOM     11  C   UNL     1     -10.549  15.169  69.830  0.00  0.00    +0.119 C 
BRANCH  11  12
ATOM     12  N   UNL     1     -11.659  15.507  70.720  0.00  0.00    -0.307 N 
ATOM     13  C   UNL     1     -12.960  15.564  70.370  0.00  0.00    +0.179 A 
ATOM     14  N   UNL     1     -13.752  15.518  71.448  0.00  0.00    -0.222 NA
ATOM     15  C   UNL     1     -12.965  15.661  72.539  0.00  0.00    +0.119 A 
ATOM     16  C   UNL     1     -11.676  15.487  72.072  0.00  0.00    +0.098 A 
ENDBRANCH  11  12
ENDBRANCH   1  11
BRANCH   1  17
ATOM     17  S   UNL     1      -9.775  14.368  67.503  0.00  0.00    -0.111 S 
BRANCH  17  18
ATOM     18  C   UNL     1     -10.414  13.696  65.985  0.00  0.00    +0.046 A 
ATOM     19  C   UNL     1     -10.283  12.337  65.784  0.00  0.00    +0.064 A 
ATOM     20 CL   UNL     1      -8.987  11.452  66.582  0.00  0.00    -0.082 Cl
ATOM     21  C   UNL     1     -11.159  11.704  64.909  0.00  0.00    +0.012 A 
ATOM     22  C   UNL     1     -12.129  12.437  64.246  0.00  0.00    +0.002 A 
ATOM     23  C   UNL     1     -11.989  13.820  64.239  0.00  0.00    +0.012 A 
ATOM     24  C   UNL     1     -11.015  14.450  65.003  0.00  0.00    +0.064 A 
ATOM     25 CL   UNL     1     -10.884  16.191  65.102  0.00  0.00    -0.082 Cl
ENDBRANCH  17  18
ENDBRANCH   1  17
TORSDOF 7
ENDMDL
