MODEL 1
REMARK VINA RESULT:      -7.7      0.000      0.000
REMARK  Name = 
REMARK  4 active torsions:
REMARK  status: ('A' for Active; 'I' for Inactive)
REMARK    1  A    between atoms: O_2  and  C_3
REMARK    2  A    between atoms: C_6  and  C_7
REMARK    3  A    between atoms: C_12  and  C_13
REMARK    4  A    between atoms: C_21  and  C_22
REMARK                            x       y       z     vdW  Elec       q    Type
REMARK                         _______ _______ _______ _____ _____    ______ ____
ROOT
ATOM      1  C   UNL     1     -10.345   7.025  67.744  0.00  0.00    +0.135 A 
ATOM      2  C   UNL     1      -9.935   7.401  69.017  0.00  0.00    +0.011 A 
ATOM      3  C   UNL     1     -10.261   8.669  69.483  0.00  0.00    -0.001 A 
ATOM      4  C   UNL     1     -10.708   9.637  68.594  0.00  0.00    -0.000 A 
ATOM      5  C   UNL     1     -10.551   9.340  67.246  0.00  0.00    +0.003 A 
ATOM      6  C   UNL     1     -10.409   8.035  66.791  0.00  0.00    +0.037 A 
ENDROOT
BRANCH   2   7
ATOM      7  C   UNL     1      -9.442   6.315  69.888  0.00  0.00    +0.022 C 
ATOM      8  C   UNL     1     -10.481   5.286  70.214  0.00  0.00    +0.004 C 
ATOM      9  C   UNL     1      -9.815   4.251  71.113  0.00  0.00    +0.000 C 
ATOM     10  C   UNL     1      -8.586   3.657  70.448  0.00  0.00    +0.000 C 
ATOM     11  C   UNL     1      -7.551   4.716  70.150  0.00  0.00    +0.000 C 
ATOM     12  C   UNL     1      -7.134   5.418  71.414  0.00  0.00    +0.000 C 
ATOM     13  C   UNL     1      -8.352   5.974  72.119  0.00  0.00    +0.000 C 
ATOM     14  C   UNL     1      -9.343   4.880  72.411  0.00  0.00    +0.000 C 
ATOM     15  C   UNL     1      -8.204   5.744  69.254  0.00  0.00    +0.004 C 
ATOM     16  C   UNL     1      -9.023   6.964  71.202  0.00  0.00    +0.004 C 
ENDBRANCH   2   7
BRANCH   4  17
ATOM     17  C   UNL     1     -11.553  10.759  69.018  0.00  0.00    -0.000 A 
ATOM     18  C   UNL     1     -12.095  10.829  70.294  0.00  0.00    -0.000 A 
ATOM     19  C   UNL     1     -12.517  12.051  70.803  0.00  0.00    +0.000 A 
ATOM     20  C   UNL     1     -12.079  13.201  70.161  0.00  0.00    +0.000 A 
ATOM     21  C   UNL     1     -12.037  14.357  70.911  0.00  0.00    +0.007 A 
ATOM     22  C   UNL     1     -12.771  14.485  72.082  0.00  0.00    +0.080 A 
ATOM     23  C   UNL     1     -13.569  13.413  72.464  0.00  0.00    +0.007 A 
ATOM     24  C   UNL     1     -11.847  13.161  68.803  0.00  0.00    +0.000 A 
ATOM     25  C   UNL     1     -13.283  12.155  71.949  0.00  0.00    +0.000 A 
ATOM     26  C   UNL     1     -11.693  11.900  68.238  0.00  0.00    -0.000 A 
BRANCH  22  27
ATOM     27  C   UNL     1     -12.971  15.832  72.632  0.00  0.00    +0.388 C 
ATOM     28  O   UNL     1     -14.230  16.290  73.010  0.00  0.00    -0.241 OA
ATOM     29  O   UNL     1     -11.986  16.564  72.941  0.00  0.00    -0.241 OA
ENDBRANCH  22  27
ENDBRANCH   4  17
BRANCH   1  31
ATOM     30  C   UNL     1     -10.524   5.020  66.317  0.00  0.00    +0.252 C 
ATOM     31  O   UNL     1     -10.841   5.744  67.484  0.00  0.00    -0.472 OA
ENDBRANCH   1  31
TORSDOF 4
ENDMDL
MODEL 2
REMARK VINA RESULT:      -7.5      3.408      4.212
REMARK  Name = 
REMARK  4 active torsions:
REMARK  status: ('A' for Active; 'I' for Inactive)
REMARK    1  A    between atoms: O_2  and  C_3
REMARK    2  A    between atoms: C_6  and  C_7
REMARK    3  A    between atoms: C_12  and  C_13
REMARK    4  A    between atoms: C_21  and  C_22
REMARK                            x       y       z     vdW  Elec       q    Type
REMARK                         _______ _______ _______ _____ _____    ______ ____
ROOT
ATOM      1  C   UNL     1      -9.649   6.311  67.908  0.00  0.00    +0.135 A 
ATOM      2  C   UNL     1      -9.698   7.361  68.817  0.00  0.00    +0.011 A 
ATOM      3  C   UNL     1      -9.856   8.657  68.342  0.00  0.00    -0.001 A 
ATOM      4  C   UNL     1      -9.656   8.927  66.994  0.00  0.00    -0.000 A 
ATOM      5  C   UNL     1      -9.057   7.915  66.256  0.00  0.00    +0.003 A 
ATOM      6  C   UNL     1      -9.076   6.589  66.672  0.00  0.00    +0.037 A 
ENDROOT
BRANCH   2   7
ATOM      7  C   UNL     1      -9.878   6.985  70.234  0.00  0.00    +0.022 C 
ATOM      8  C   UNL     1     -11.206   6.354  70.525  0.00  0.00    +0.004 C 
ATOM      9  C   UNL     1     -11.228   6.034  72.015  0.00  0.00    +0.000 C 
ATOM     10  C   UNL     1     -10.057   5.148  72.403  0.00  0.00    +0.000 C 
ATOM     11  C   UNL     1      -8.735   5.820  72.115  0.00  0.00    +0.000 C 
ATOM     12  C   UNL     1      -8.631   7.124  72.858  0.00  0.00    +0.000 C 
ATOM     13  C   UNL     1      -9.818   8.002  72.523  0.00  0.00    +0.000 C 
ATOM     14  C   UNL     1     -11.108   7.298  72.846  0.00  0.00    +0.000 C 
ATOM     15  C   UNL     1      -8.705   6.136  70.636  0.00  0.00    +0.004 C 
ATOM     16  C   UNL     1      -9.806   8.275  71.042  0.00  0.00    +0.004 C 
ENDBRANCH   2   7
BRANCH   4  17
ATOM     17  C   UNL     1     -10.292  10.066  66.323  0.00  0.00    -0.000 A 
ATOM     18  C   UNL     1     -10.909  11.087  67.033  0.00  0.00    -0.000 A 
ATOM     19  C   UNL     1     -11.118  12.322  66.432  0.00  0.00    +0.000 A 
ATOM     20  C   UNL     1     -10.411  12.600  65.270  0.00  0.00    +0.000 A 
ATOM     21  C   UNL     1     -10.199  13.929  64.971  0.00  0.00    +0.007 A 
ATOM     22  C   UNL     1     -10.983  14.930  65.531  0.00  0.00    +0.080 A 
ATOM     23  C   UNL     1     -12.006  14.542  66.389  0.00  0.00    +0.007 A 
ATOM     24  C   UNL     1     -10.085  11.565  64.421  0.00  0.00    +0.000 A 
ATOM     25  C   UNL     1     -11.936  13.289  66.985  0.00  0.00    +0.000 A 
ATOM     26  C   UNL     1     -10.140  10.284  64.959  0.00  0.00    -0.000 A 
BRANCH  22  27
ATOM     27  C   UNL     1     -10.953  16.261  64.914  0.00  0.00    +0.388 C 
ATOM     28  O   UNL     1     -11.729  16.570  63.800  0.00  0.00    -0.241 OA
ATOM     29  O   UNL     1     -10.354  17.226  65.470  0.00  0.00    -0.241 OA
ENDBRANCH  22  27
ENDBRANCH   4  17
BRANCH   1  31
ATOM     30  C   UNL     1      -9.709   3.844  67.914  0.00  0.00    +0.252 C 
ATOM     31  O   UNL     1     -10.303   5.099  68.153  0.00  0.00    -0.472 OA
ENDBRANCH   1  31
TORSDOF 4
ENDMDL
MODEL 3
REMARK VINA RESULT:      -7.5      5.978      9.130
REMARK  Name = 
REMARK  4 active torsions:
REMARK  status: ('A' for Active; 'I' for Inactive)
REMARK    1  A    between atoms: O_2  and  C_3
REMARK    2  A    between atoms: C_6  and  C_7
REMARK    3  A    between atoms: C_12  and  C_13
REMARK    4  A    between atoms: C_21  and  C_22
REMARK                            x       y       z     vdW  Elec       q    Type
REMARK                         _______ _______ _______ _____ _____    ______ ____
ROOT
ATOM      1  C   UNL     1     -11.163  15.026  68.053  0.00  0.00    +0.135 A 
ATOM      2  C   UNL     1     -10.268  14.886  66.999  0.00  0.00    +0.011 A 
ATOM      3  C   UNL     1      -9.133  15.687  66.968  0.00  0.00    -0.001 A 
ATOM      4  C   UNL     1      -9.053  16.803  67.791  0.00  0.00    -0.000 A 
ATOM      5  C   UNL     1     -10.236  17.186  68.409  0.00  0.00    +0.003 A 
ATOM      6  C   UNL     1     -11.293  16.302  68.589  0.00  0.00    +0.037 A 
ENDROOT
BRANCH   2   7
ATOM      7  C   UNL     1     -10.444  13.690  66.152  0.00  0.00    +0.022 C 
ATOM      8  C   UNL     1     -10.300  13.963  64.685  0.00  0.00    +0.004 C 
ATOM      9  C   UNL     1     -10.511  12.638  63.963  0.00  0.00    +0.000 C 
ATOM     10  C   UNL     1      -9.543  11.580  64.463  0.00  0.00    +0.000 C 
ATOM     11  C   UNL     1      -9.727  11.314  65.938  0.00  0.00    +0.000 C 
ATOM     12  C   UNL     1     -11.134  10.865  66.224  0.00  0.00    +0.000 C 
ATOM     13  C   UNL     1     -12.117  11.883  65.687  0.00  0.00    +0.000 C 
ATOM     14  C   UNL     1     -11.907  12.098  64.213  0.00  0.00    +0.000 C 
ATOM     15  C   UNL     1      -9.513  12.625  66.662  0.00  0.00    +0.004 C 
ATOM     16  C   UNL     1     -11.868  13.197  66.380  0.00  0.00    +0.004 C 
ENDBRANCH   2   7
BRANCH   4  17
ATOM     17  C   UNL     1      -7.769  17.366  68.222  0.00  0.00    -0.000 A 
ATOM     18  C   UNL     1      -7.515  18.730  68.185  0.00  0.00    -0.000 A 
ATOM     19  C   UNL     1      -6.501  19.269  68.967  0.00  0.00    +0.000 A 
ATOM     20  C   UNL     1      -6.002  18.489  70.001  0.00  0.00    +0.000 A 
ATOM     21  C   UNL     1      -5.419  19.153  71.059  0.00  0.00    +0.007 A 
ATOM     22  C   UNL     1      -4.966  20.460  70.931  0.00  0.00    +0.080 A 
ATOM     23  C   UNL     1      -5.102  21.070  69.689  0.00  0.00    +0.007 A 
ATOM     24  C   UNL     1      -5.989  17.118  69.858  0.00  0.00    +0.000 A 
ATOM     25  C   UNL     1      -6.035  20.559  68.795  0.00  0.00    +0.000 A 
ATOM     26  C   UNL     1      -6.816  16.591  68.873  0.00  0.00    -0.000 A 
BRANCH  22  27
ATOM     27  C   UNL     1      -4.048  20.979  71.951  0.00  0.00    +0.388 C 
ATOM     28  O   UNL     1      -4.186  22.261  72.478  0.00  0.00    -0.241 OA
ATOM     29  O   UNL     1      -3.203  20.225  72.514  0.00  0.00    -0.241 OA
ENDBRANCH  22  27
ENDBRANCH   4  17
BRANCH   1  31
ATOM     30  C   UNL     1     -12.158  13.900  70.010  0.00  0.00    +0.252 C 
ATOM     31  O   UNL     1     -11.758  13.915  68.659  0.00  0.00    -0.472 OA
ENDBRANCH   1  31
TORSDOF 4
ENDMDL
MODEL 4
REMARK VINA RESULT:      -7.4      3.166      4.856
REMARK  Name = 
REMARK  4 active torsions:
REMARK  status: ('A' for Active; 'I' for Inactive)
REMARK    1  A    between atoms: O_2  and  C_3
REMARK    2  A    between atoms: C_6  and  C_7
REMARK    3  A    between atoms: C_12  and  C_13
REMARK    4  A    between atoms: C_21  and  C_22
REMARK                            x       y       z     vdW  Elec       q    Type
REMARK                         _______ _______ _______ _____ _____    ______ ____
ROOT
ATOM      1  C   UNL     1     -10.739   9.412  70.450  0.00  0.00    +0.135 A 
ATOM      2  C   UNL     1     -10.766   9.194  69.078  0.00  0.00    +0.011 A 
ATOM      3  C   UNL     1     -11.157  10.229  68.238  0.00  0.00    -0.001 A 
ATOM      4  C   UNL     1     -11.800  11.341  68.766  0.00  0.00    -0.000 A 
ATOM      5  C   UNL     1     -12.237  11.220  70.079  0.00  0.00    +0.003 A 
ATOM      6  C   UNL     1     -11.693  10.289  70.955  0.00  0.00    +0.037 A 
ENDROOT
BRANCH   2   7
ATOM      7  C   UNL     1     -10.088   7.971  68.602  0.00  0.00    +0.022 C 
ATOM      8  C   UNL     1      -8.609   7.969  68.843  0.00  0.00    +0.004 C 
ATOM      9  C   UNL     1      -8.071   6.652  68.296  0.00  0.00    +0.000 C 
ATOM     10  C   UNL     1      -8.774   5.466  68.934  0.00  0.00    +0.000 C 
ATOM     11  C   UNL     1     -10.258   5.486  68.656  0.00  0.00    +0.000 C 
ATOM     12  C   UNL     1     -10.520   5.474  67.174  0.00  0.00    +0.000 C 
ATOM     13  C   UNL     1      -9.786   6.620  66.513  0.00  0.00    +0.000 C 
ATOM     14  C   UNL     1      -8.311   6.544  66.802  0.00  0.00    +0.000 C 
ATOM     15  C   UNL     1     -10.800   6.790  69.201  0.00  0.00    +0.004 C 
ATOM     16  C   UNL     1     -10.298   7.912  67.094  0.00  0.00    +0.004 C 
ENDBRANCH   2   7
BRANCH   4  17
ATOM     17  C   UNL     1     -11.763  12.651  68.108  0.00  0.00    -0.000 A 
ATOM     18  C   UNL     1     -11.592  13.829  68.824  0.00  0.00    -0.000 A 
ATOM     19  C   UNL     1     -11.144  14.974  68.178  0.00  0.00    +0.000 A 
ATOM     20  C   UNL     1     -10.567  14.823  66.924  0.00  0.00    +0.000 A 
ATOM     21  C   UNL     1      -9.683  15.801  66.522  0.00  0.00    +0.007 A 
ATOM     22  C   UNL     1      -9.680  17.059  67.110  0.00  0.00    +0.080 A 
ATOM     23  C   UNL     1     -10.616  17.306  68.108  0.00  0.00    +0.007 A 
ATOM     24  C   UNL     1     -11.002  13.802  66.108  0.00  0.00    +0.000 A 
ATOM     25  C   UNL     1     -11.188  16.224  68.766  0.00  0.00    +0.000 A 
ATOM     26  C   UNL     1     -11.700  12.770  66.725  0.00  0.00    -0.000 A 
BRANCH  22  27
ATOM     27  C   UNL     1      -8.986  18.148  66.414  0.00  0.00    +0.388 C 
ATOM     28  O   UNL     1      -7.832  17.924  65.668  0.00  0.00    -0.241 OA
ATOM     29  O   UNL     1      -9.502  19.300  66.324  0.00  0.00    -0.241 OA
ENDBRANCH  22  27
ENDBRANCH   4  17
BRANCH   1  31
ATOM     30  C   UNL     1      -9.921   8.261  72.473  0.00  0.00    +0.252 C 
ATOM     31  O   UNL     1      -9.702   8.924  71.249  0.00  0.00    -0.472 OA
ENDBRANCH   1  31
TORSDOF 4
ENDMDL
MODEL 5
REMARK VINA RESULT:      -7.4      3.243      4.831
REMARK  Name = 
REMARK  4 active torsions:
REMARK  status: ('A' for Active; 'I' for Inactive)
REMARK    1  A    between atoms: O_2  and  C_3
REMARK    2  A    between atoms: C_6  and  C_7
REMARK    3  A    between atoms: C_12  and  C_13
REMARK    4  A    between atoms: C_21  and  C_22
REMARK                            x       y       z     vdW  Elec       q    Type
REMARK                         _______ _______ _______ _____ _____    ______ ____
ROOT
ATOM      1  C   UNL     1     -10.423  12.325  65.074  0.00  0.00    +0.135 A 
ATOM      2  C   UNL     1      -9.859  11.896  66.270  0.00  0.00    +0.011 A 
ATOM      3  C   UNL     1     -10.101  12.624  67.428  0.00  0.00    -0.001 A 
ATOM      4  C   UNL     1     -10.628  13.906  67.340  0.00  0.00    -0.000 A 
ATOM      5  C   UNL     1     -10.636  14.471  66.072  0.00  0.00    +0.003 A 
ATOM      6  C   UNL     1     -10.576  13.698  64.919  0.00  0.00    +0.037 A 
ENDROOT
BRANCH   2   7
ATOM      7  C   UNL     1      -9.291  10.533  66.268  0.00  0.00    +0.022 C 
ATOM      8  C   UNL     1     -10.324   9.450  66.330  0.00  0.00    +0.004 C 
ATOM      9  C   UNL     1      -9.577   8.121  66.323  0.00  0.00    +0.000 C 
ATOM     10  C   UNL     1      -8.675   8.006  65.106  0.00  0.00    +0.000 C 
ATOM     11  C   UNL     1      -7.634   9.100  65.083  0.00  0.00    +0.000 C 
ATOM     12  C   UNL     1      -6.788   9.052  66.327  0.00  0.00    +0.000 C 
ATOM     13  C   UNL     1      -7.674   9.114  67.552  0.00  0.00    +0.000 C 
ATOM     14  C   UNL     1      -8.679   7.995  67.539  0.00  0.00    +0.000 C 
ATOM     15  C   UNL     1      -8.369  10.421  65.086  0.00  0.00    +0.004 C 
ATOM     16  C   UNL     1      -8.437  10.413  67.524  0.00  0.00    +0.004 C 
ENDBRANCH   2   7
BRANCH   4  17
ATOM     17  C   UNL     1     -11.394  14.513  68.434  0.00  0.00    -0.000 A 
ATOM     18  C   UNL     1     -11.915  13.756  69.475  0.00  0.00    -0.000 A 
ATOM     19  C   UNL     1     -12.251  14.367  70.677  0.00  0.00    +0.000 A 
ATOM     20  C   UNL     1     -11.747  15.639  70.915  0.00  0.00    +0.000 A 
ATOM     21  C   UNL     1     -11.621  16.023  72.233  0.00  0.00    +0.007 A 
ATOM     22  C   UNL     1     -12.332  15.387  73.242  0.00  0.00    +0.080 A 
ATOM     23  C   UNL     1     -13.193  14.359  72.875  0.00  0.00    +0.007 A 
ATOM     24  C   UNL     1     -11.535  16.484  69.848  0.00  0.00    +0.000 A 
ATOM     25  C   UNL     1     -12.995  13.730  71.652  0.00  0.00    +0.000 A 
ATOM     26  C   UNL     1     -11.469  15.891  68.593  0.00  0.00    -0.000 A 
BRANCH  22  27
ATOM     27  C   UNL     1     -12.437  16.056  74.544  0.00  0.00    +0.388 C 
ATOM     28  O   UNL     1     -12.315  17.437  74.671  0.00  0.00    -0.241 OA
ATOM     29  O   UNL     1     -12.812  15.425  75.575  0.00  0.00    -0.241 OA
ENDBRANCH  22  27
ENDBRANCH   4  17
BRANCH   1  31
ATOM     30  C   UNL     1     -12.144  11.691  63.423  0.00  0.00    +0.252 C 
ATOM     31  O   UNL     1     -10.973  11.422  64.159  0.00  0.00    -0.472 OA
ENDBRANCH   1  31
TORSDOF 4
ENDMDL
MODEL 6
REMARK VINA RESULT:      -7.3      2.785      3.568
REMARK  Name = 
REMARK  4 active torsions:
REMARK  status: ('A' for Active; 'I' for Inactive)
REMARK    1  A    between atoms: O_2  and  C_3
REMARK    2  A    between atoms: C_6  and  C_7
REMARK    3  A    between atoms: C_12  and  C_13
REMARK    4  A    between atoms: C_21  and  C_22
REMARK                            x       y       z     vdW  Elec       q    Type
REMARK                         _______ _______ _______ _____ _____    ______ ____
ROOT
ATOM      1  C   UNL     1     -10.303   7.786  67.671  0.00  0.00    +0.135 A 
ATOM      2  C   UNL     1     -10.193   8.503  68.857  0.00  0.00    +0.011 A 
ATOM      3  C   UNL     1     -10.277   9.889  68.818  0.00  0.00    -0.001 A 
ATOM      4  C   UNL     1     -10.159  10.553  67.603  0.00  0.00    -0.000 A 
ATOM      5  C   UNL     1      -9.707   9.788  66.536  0.00  0.00    +0.003 A 
ATOM      6  C   UNL     1      -9.805   8.402  66.528  0.00  0.00    +0.037 A 
ENDROOT
BRANCH   2   7
ATOM      7  C   UNL     1     -10.295   7.716  70.103  0.00  0.00    +0.022 C 
ATOM      8  C   UNL     1     -11.635   7.076  70.303  0.00  0.00    +0.004 C 
ATOM      9  C   UNL     1     -11.571   6.314  71.622  0.00  0.00    +0.000 C 
ATOM     10  C   UNL     1     -10.433   5.308  71.618  0.00  0.00    +0.000 C 
ATOM     11  C   UNL     1      -9.096   5.986  71.434  0.00  0.00    +0.000 C 
ATOM     12  C   UNL     1      -8.857   6.993  72.526  0.00  0.00    +0.000 C 
ATOM     13  C   UNL     1     -10.008   7.975  72.578  0.00  0.00    +0.000 C 
ATOM     14  C   UNL     1     -11.313   7.255  72.783  0.00  0.00    +0.000 C 
ATOM     15  C   UNL     1      -9.151   6.741  70.125  0.00  0.00    +0.004 C 
ATOM     16  C   UNL     1     -10.084   8.691  71.255  0.00  0.00    +0.004 C 
ENDBRANCH   2   7
BRANCH   4  17
ATOM     17  C   UNL     1     -10.746  11.878  67.377  0.00  0.00    -0.000 A 
ATOM     18  C   UNL     1     -10.737  12.863  68.355  0.00  0.00    -0.000 A 
ATOM     19  C   UNL     1     -10.900  14.196  67.999  0.00  0.00    +0.000 A 
ATOM     20  C   UNL     1     -10.732  14.531  66.662  0.00  0.00    +0.000 A 
ATOM     21  C   UNL     1     -10.375  15.833  66.384  0.00  0.00    +0.007 A 
ATOM     22  C   UNL     1     -10.582  16.851  67.306  0.00  0.00    +0.080 A 
ATOM     23  C   UNL     1     -11.182  16.514  68.514  0.00  0.00    +0.007 A 
ATOM     24  C   UNL     1     -11.059  13.604  65.695  0.00  0.00    +0.000 A 
ATOM     25  C   UNL     1     -11.147  15.189  68.928  0.00  0.00    +0.000 A 
ATOM     26  C   UNL     1     -11.164  12.283  66.115  0.00  0.00    -0.000 A 
BRANCH  22  27
ATOM     27  C   UNL     1     -10.523  18.238  66.831  0.00  0.00    +0.388 C 
ATOM     28  O   UNL     1     -10.938  19.304  67.627  0.00  0.00    -0.241 OA
ATOM     29  O   UNL     1      -9.937  18.535  65.750  0.00  0.00    -0.241 OA
ENDBRANCH  22  27
ENDBRANCH   4  17
BRANCH   1  31
ATOM     30  C   UNL     1     -10.590   5.462  66.896  0.00  0.00    +0.252 C 
ATOM     31  O   UNL     1     -11.036   6.598  67.599  0.00  0.00    -0.472 OA
ENDBRANCH   1  31
TORSDOF 4
ENDMDL
MODEL 7
REMARK VINA RESULT:      -7.3      7.583     11.699
REMARK  Name = 
REMARK  4 active torsions:
REMARK  status: ('A' for Active; 'I' for Inactive)
REMARK    1  A    between atoms: O_2  and  C_3
REMARK    2  A    between atoms: C_6  and  C_7
REMARK    3  A    between atoms: C_12  and  C_13
REMARK    4  A    between atoms: C_21  and  C_22
REMARK                            x       y       z     vdW  Elec       q    Type
REMARK                         _______ _______ _______ _____ _____    ______ ____
ROOT
ATOM      1  C   UNL     1      -7.590  19.972  67.460  0.00  0.00    +0.135 A 
ATOM      2  C   UNL     1      -7.074  19.072  68.385  0.00  0.00    +0.011 A 
ATOM      3  C   UNL     1      -7.691  17.836  68.539  0.00  0.00    -0.001 A 
ATOM      4  C   UNL     1      -8.960  17.628  68.015  0.00  0.00    -0.000 A 
ATOM      5  C   UNL     1      -9.634  18.766  67.592  0.00  0.00    +0.003 A 
ATOM      6  C   UNL     1      -8.966  19.941  67.267  0.00  0.00    +0.037 A 
ENDROOT
BRANCH   2   7
ATOM      7  C   UNL     1      -5.733  19.385  68.918  0.00  0.00    +0.022 C 
ATOM      8  C   UNL     1      -4.616  19.031  67.984  0.00  0.00    +0.004 C 
ATOM      9  C   UNL     1      -3.316  19.412  68.681  0.00  0.00    +0.000 C 
ATOM     10  C   UNL     1      -3.314  20.879  69.073  0.00  0.00    +0.000 C 
ATOM     11  C   UNL     1      -4.438  21.199  70.030  0.00  0.00    +0.000 C 
ATOM     12  C   UNL     1      -4.331  20.358  71.273  0.00  0.00    +0.000 C 
ATOM     13  C   UNL     1      -4.280  18.893  70.899  0.00  0.00    +0.000 C 
ATOM     14  C   UNL     1      -3.134  18.622  69.964  0.00  0.00    +0.000 C 
ATOM     15  C   UNL     1      -5.733  20.827  69.341  0.00  0.00    +0.004 C 
ATOM     16  C   UNL     1      -5.553  18.541  70.174  0.00  0.00    +0.004 C 
ENDBRANCH   2   7
BRANCH   4  17
ATOM     17  C   UNL     1      -9.448  16.293  67.653  0.00  0.00    -0.000 A 
ATOM     18  C   UNL     1     -10.755  16.075  67.237  0.00  0.00    -0.000 A 
ATOM     19  C   UNL     1     -11.071  14.932  66.514  0.00  0.00    +0.000 A 
ATOM     20  C   UNL     1     -10.024  14.219  65.947  0.00  0.00    +0.000 A 
ATOM     21  C   UNL     1     -10.321  13.443  64.846  0.00  0.00    +0.007 A 
ATOM     22  C   UNL     1     -11.624  13.049  64.571  0.00  0.00    +0.080 A 
ATOM     23  C   UNL     1     -12.619  13.447  65.457  0.00  0.00    +0.007 A 
ATOM     24  C   UNL     1      -8.800  14.211  66.579  0.00  0.00    +0.000 A 
ATOM     25  C   UNL     1     -12.375  14.534  66.287  0.00  0.00    +0.000 A 
ATOM     26  C   UNL     1      -8.583  15.214  67.517  0.00  0.00    -0.000 A 
BRANCH  22  27
ATOM     27  C   UNL     1     -11.830  11.950  63.620  0.00  0.00    +0.388 C 
ATOM     28  O   UNL     1     -10.847  10.994  63.380  0.00  0.00    -0.241 OA
ATOM     29  O   UNL     1     -12.967  11.732  63.110  0.00  0.00    -0.241 OA
ENDBRANCH  22  27
ENDBRANCH   4  17
BRANCH   1  31
ATOM     30  C   UNL     1      -6.519  20.425  65.284  0.00  0.00    +0.252 C 
ATOM     31  O   UNL     1      -6.755  20.735  66.638  0.00  0.00    -0.472 OA
ENDBRANCH   1  31
TORSDOF 4
ENDMDL
MODEL 8
REMARK VINA RESULT:      -7.1      6.859     11.521
REMARK  Name = 
REMARK  4 active torsions:
REMARK  status: ('A' for Active; 'I' for Inactive)
REMARK    1  A    between atoms: O_2  and  C_3
REMARK    2  A    between atoms: C_6  and  C_7
REMARK    3  A    between atoms: C_12  and  C_13
REMARK    4  A    between atoms: C_21  and  C_22
REMARK                            x       y       z     vdW  Elec       q    Type
REMARK                         _______ _______ _______ _____ _____    ______ ____
ROOT
ATOM      1  C   UNL     1      -7.818  20.230  67.254  0.00  0.00    +0.135 A 
ATOM      2  C   UNL     1      -7.472  19.291  68.219  0.00  0.00    +0.011 A 
ATOM      3  C   UNL     1      -8.294  18.187  68.410  0.00  0.00    -0.001 A 
ATOM      4  C   UNL     1      -9.577  18.182  67.878  0.00  0.00    -0.000 A 
ATOM      5  C   UNL     1     -10.041  19.402  67.404  0.00  0.00    +0.003 A 
ATOM      6  C   UNL     1      -9.178  20.430  67.045  0.00  0.00    +0.037 A 
ENDROOT
BRANCH   2   7
ATOM      7  C   UNL     1      -6.101  19.388  68.757  0.00  0.00    +0.022 C 
ATOM      8  C   UNL     1      -5.050  18.859  67.828  0.00  0.00    +0.004 C 
ATOM      9  C   UNL     1      -3.709  19.030  68.531  0.00  0.00    +0.000 C 
ATOM     10  C   UNL     1      -3.475  20.479  68.921  0.00  0.00    +0.000 C 
ATOM     11  C   UNL     1      -4.538  20.974  69.873  0.00  0.00    +0.000 C 
ATOM     12  C   UNL     1      -4.571  20.129  71.117  0.00  0.00    +0.000 C 
ATOM     13  C   UNL     1      -4.752  18.674  70.745  0.00  0.00    +0.000 C 
ATOM     14  C   UNL     1      -3.660  18.223  69.814  0.00  0.00    +0.000 C 
ATOM     15  C   UNL     1      -5.873  20.812  69.179  0.00  0.00    +0.004 C 
ATOM     16  C   UNL     1      -6.062  18.528  70.015  0.00  0.00    +0.004 C 
ENDBRANCH   2   7
BRANCH   4  17
ATOM     17  C   UNL     1     -10.287  16.938  67.559  0.00  0.00    -0.000 A 
ATOM     18  C   UNL     1     -10.125  16.291  66.341  0.00  0.00    -0.000 A 
ATOM     19  C   UNL     1     -10.451  14.946  66.222  0.00  0.00    +0.000 A 
ATOM     20  C   UNL     1     -10.608  14.215  67.391  0.00  0.00    +0.000 A 
ATOM     21  C   UNL     1     -10.408  12.853  67.308  0.00  0.00    +0.007 A 
ATOM     22  C   UNL     1     -10.472  12.187  66.091  0.00  0.00    +0.080 A 
ATOM     23  C   UNL     1     -10.765  12.940  64.959  0.00  0.00    +0.007 A 
ATOM     24  C   UNL     1     -11.079  14.851  68.519  0.00  0.00    +0.000 A 
ATOM     25  C   UNL     1     -10.551  14.311  64.998  0.00  0.00    +0.000 A 
ATOM     26  C   UNL     1     -11.000  16.239  68.525  0.00  0.00    -0.000 A 
BRANCH  22  27
ATOM     27  C   UNL     1     -10.613  10.726  66.106  0.00  0.00    +0.388 C 
ATOM     28  O   UNL     1     -10.187   9.937  65.041  0.00  0.00    -0.241 OA
ATOM     29  O   UNL     1     -10.968  10.115  67.156  0.00  0.00    -0.241 OA
ENDBRANCH  22  27
ENDBRANCH   4  17
BRANCH   1  31
ATOM     30  C   UNL     1      -6.697  20.433  65.066  0.00  0.00    +0.252 C 
ATOM     31  O   UNL     1      -6.858  20.805  66.415  0.00  0.00    -0.472 OA
ENDBRANCH   1  31
TORSDOF 4
ENDMDL
MODEL 9
REMARK VINA RESULT:      -7.1      5.607      8.024
REMARK  Name = 
REMARK  4 active torsions:
REMARK  status: ('A' for Active; 'I' for Inactive)
REMARK    1  A    between atoms: O_2  and  C_3
REMARK    2  A    between atoms: C_6  and  C_7
REMARK    3  A    between atoms: C_12  and  C_13
REMARK    4  A    between atoms: C_21  and  C_22
REMARK                            x       y       z     vdW  Elec       q    Type
REMARK                         _______ _______ _______ _____ _____    ______ ____
ROOT
ATOM      1  C   UNL     1     -10.668  14.082  68.121  0.00  0.00    +0.135 A 
ATOM      2  C   UNL     1      -9.528  13.561  67.522  0.00  0.00    +0.011 A 
ATOM      3  C   UNL     1      -8.407  14.371  67.388  0.00  0.00    -0.001 A 
ATOM      4  C   UNL     1      -8.523  15.744  67.561  0.00  0.00    -0.000 A 
ATOM      5  C   UNL     1      -9.819  16.241  67.606  0.00  0.00    +0.003 A 
ATOM      6  C   UNL     1     -10.907  15.437  67.925  0.00  0.00    +0.037 A 
ENDROOT
BRANCH   2   7
ATOM      7  C   UNL     1      -9.499  12.096  67.343  0.00  0.00    +0.022 C 
ATOM      8  C   UNL     1      -9.521  11.332  68.633  0.00  0.00    +0.004 C 
ATOM      9  C   UNL     1      -9.484   9.851  68.273  0.00  0.00    +0.000 C 
ATOM     10  C   UNL     1     -10.633   9.483  67.350  0.00  0.00    +0.000 C 
ATOM     11  C   UNL     1     -10.572  10.254  66.054  0.00  0.00    +0.000 C 
ATOM     12  C   UNL     1      -9.270   9.996  65.344  0.00  0.00    +0.000 C 
ATOM     13  C   UNL     1      -8.112  10.308  66.266  0.00  0.00    +0.000 C 
ATOM     14  C   UNL     1      -8.207   9.502  67.532  0.00  0.00    +0.000 C 
ATOM     15  C   UNL     1     -10.612  11.725  66.403  0.00  0.00    +0.004 C 
ATOM     16  C   UNL     1      -8.185  11.764  66.646  0.00  0.00    +0.004 C 
ENDBRANCH   2   7
BRANCH   4  17
ATOM     17  C   UNL     1      -7.388  16.580  67.967  0.00  0.00    -0.000 A 
ATOM     18  C   UNL     1      -7.484  17.963  68.044  0.00  0.00    -0.000 A 
ATOM     19  C   UNL     1      -6.576  18.680  68.812  0.00  0.00    +0.000 A 
ATOM     20  C   UNL     1      -5.817  17.976  69.737  0.00  0.00    +0.000 A 
ATOM     21  C   UNL     1      -5.334  18.683  70.817  0.00  0.00    +0.007 A 
ATOM     22  C   UNL     1      -5.231  20.068  70.786  0.00  0.00    +0.080 A 
ATOM     23  C   UNL     1      -5.613  20.716  69.617  0.00  0.00    +0.007 A 
ATOM     24  C   UNL     1      -5.476  16.669  69.465  0.00  0.00    +0.000 A 
ATOM     25  C   UNL     1      -6.460  20.055  68.736  0.00  0.00    +0.000 A 
ATOM     26  C   UNL     1      -6.224  16.026  68.485  0.00  0.00    -0.000 A 
BRANCH  22  27
ATOM     27  C   UNL     1      -4.390  20.724  71.794  0.00  0.00    +0.388 C 
ATOM     28  O   UNL     1      -4.525  22.077  72.094  0.00  0.00    -0.241 OA
ATOM     29  O   UNL     1      -3.631  20.050  72.550  0.00  0.00    -0.241 OA
ENDBRANCH  22  27
ENDBRANCH   4  17
BRANCH   1  31
ATOM     30  C   UNL     1     -12.116  13.901  70.111  0.00  0.00    +0.252 C 
ATOM     31  O   UNL     1     -11.430  13.330  69.021  0.00  0.00    -0.472 OA
ENDBRANCH   1  31
TORSDOF 4
ENDMDL
