MODEL 1
REMARK VINA RESULT:      -5.9      0.000      0.000
REMARK  Name = 
REMARK  6 active torsions:
REMARK  status: ('A' for Active; 'I' for Inactive)
REMARK    1  A    between atoms: C_7  and  C_8
REMARK    2  A    between atoms: C_8  and  O_9
REMARK    3  A    between atoms: C_8  and  C_15
REMARK    4  A    between atoms: O_9  and  C_10
REMARK    5  A    between atoms: C_10  and  C_11
REMARK    6  A    between atoms: C_11  and  N_12
REMARK                            x       y       z     vdW  Elec       q    Type
REMARK                         _______ _______ _______ _____ _____    ______ ____
ROOT
ATOM      1  C   UNL     1     -10.838  15.044  69.554  0.00  0.00    +0.159 C 
ENDROOT
BRANCH   1   4
ATOM      2  C   UNL     1      -8.689  13.817  68.311  0.00  0.00    +0.031 C 
ATOM      3  C   UNL     1      -9.882  13.819  67.672  0.00  0.00    -0.023 A 
ATOM      4  C   UNL     1     -11.107  13.958  68.323  0.00  0.00    +0.005 A 
ATOM      5  C   UNL     1     -12.105  14.383  67.451  0.00  0.00    -0.002 A 
ATOM      6  C   UNL     1     -12.137  13.864  66.164  0.00  0.00    -0.000 A 
ATOM      7  C   UNL     1     -10.929  13.749  65.533  0.00  0.00    -0.000 A 
ATOM      8  C   UNL     1      -9.765  13.826  66.289  0.00  0.00    -0.004 A 
ENDBRANCH   1   4
BRANCH   1   9
ATOM      9  C   UNL     1     -12.188  14.572  70.387  0.00  0.00    +0.009 A 
ATOM     10  C   UNL     1     -12.908  15.600  70.922  0.00  0.00    -0.002 A 
ATOM     11  C   UNL     1     -13.766  15.287  71.973  0.00  0.00    -0.000 A 
ATOM     12  C   UNL     1     -14.006  13.949  72.265  0.00  0.00    -0.000 A 
ATOM     13  C   UNL     1     -13.296  12.953  71.605  0.00  0.00    -0.000 A 
ATOM     14  C   UNL     1     -12.181  13.305  70.851  0.00  0.00    -0.002 A 
ENDBRANCH   1   9
BRANCH   1  15
ATOM     15  O   UNL     1     -11.611  16.202  68.849  0.00  0.00    -0.346 OA
BRANCH  15  16
ATOM     16  C   UNL     1     -10.583  17.145  68.784  0.00  0.00    +0.160 C 
BRANCH  16  17
ATOM     17  C   UNL     1     -10.428  17.669  67.360  0.00  0.00    +0.105 C 
BRANCH  17  18
ATOM     18  N   UNL     1     -10.763  19.076  67.370  0.00  0.00    -0.268 NA
ATOM     19  C   UNL     1     -10.513  19.658  66.074  0.00  0.00    +0.090 C 
ATOM     20  C   UNL     1      -9.979  19.740  68.403  0.00  0.00    +0.090 C 
ENDBRANCH  17  18
ENDBRANCH  16  17
ENDBRANCH  15  16
ENDBRANCH   1  15
TORSDOF 6
ENDMDL
MODEL 2
REMARK VINA RESULT:      -5.9      1.836      5.333
REMARK  Name = 
REMARK  6 active torsions:
REMARK  status: ('A' for Active; 'I' for Inactive)
REMARK    1  A    between atoms: C_7  and  C_8
REMARK    2  A    between atoms: C_8  and  O_9
REMARK    3  A    between atoms: C_8  and  C_15
REMARK    4  A    between atoms: O_9  and  C_10
REMARK    5  A    between atoms: C_10  and  C_11
REMARK    6  A    between atoms: C_11  and  N_12
REMARK                            x       y       z     vdW  Elec       q    Type
REMARK                         _______ _______ _______ _____ _____    ______ ____
ROOT
ATOM      1  C   UNL     1     -10.097  15.863  68.330  0.00  0.00    +0.159 C 
ENDROOT
BRANCH   1   4
ATOM      2  C   UNL     1      -7.652  17.079  68.791  0.00  0.00    +0.031 C 
ATOM      3  C   UNL     1      -8.627  17.807  68.199  0.00  0.00    -0.023 A 
ATOM      4  C   UNL     1      -9.692  17.246  67.497  0.00  0.00    +0.005 A 
ATOM      5  C   UNL     1     -10.761  18.132  67.393  0.00  0.00    -0.002 A 
ATOM      6  C   UNL     1     -10.498  19.475  67.160  0.00  0.00    -0.000 A 
ATOM      7  C   UNL     1      -9.459  20.015  67.868  0.00  0.00    -0.000 A 
ATOM      8  C   UNL     1      -8.553  19.162  68.487  0.00  0.00    -0.004 A 
ENDBRANCH   1   4
BRANCH   1   9
ATOM      9  C   UNL     1     -10.725  15.130  66.986  0.00  0.00    +0.009 A 
ATOM     10  C   UNL     1     -11.850  14.393  67.220  0.00  0.00    -0.002 A 
ATOM     11  C   UNL     1     -12.170  13.419  66.280  0.00  0.00    -0.000 A 
ATOM     12  C   UNL     1     -11.477  13.397  65.075  0.00  0.00    -0.000 A 
ATOM     13  C   UNL     1     -10.397  14.248  64.877  0.00  0.00    -0.000 A 
ATOM     14  C   UNL     1      -9.863  14.927  65.969  0.00  0.00    -0.002 A 
ENDBRANCH   1   9
BRANCH   1  15
ATOM     15  O   UNL     1     -11.498  16.400  68.759  0.00  0.00    -0.346 OA
BRANCH  15  16
ATOM     16  C   UNL     1     -11.395  16.204  70.138  0.00  0.00    +0.160 C 
BRANCH  16  17
ATOM     17  C   UNL     1     -12.437  15.197  70.613  0.00  0.00    +0.105 C 
BRANCH  17  18
ATOM     18  N   UNL     1     -13.267  15.853  71.600  0.00  0.00    -0.268 NA
ATOM     19  C   UNL     1     -12.565  15.951  72.856  0.00  0.00    +0.090 C 
ATOM     20  C   UNL     1     -14.505  15.101  71.749  0.00  0.00    +0.090 C 
ENDBRANCH  17  18
ENDBRANCH  16  17
ENDBRANCH  15  16
ENDBRANCH   1  15
TORSDOF 6
ENDMDL
MODEL 3
REMARK VINA RESULT:      -5.5      2.126      2.868
REMARK  Name = 
REMARK  6 active torsions:
REMARK  status: ('A' for Active; 'I' for Inactive)
REMARK    1  A    between atoms: C_7  and  C_8
REMARK    2  A    between atoms: C_8  and  O_9
REMARK    3  A    between atoms: C_8  and  C_15
REMARK    4  A    between atoms: O_9  and  C_10
REMARK    5  A    between atoms: C_10  and  C_11
REMARK    6  A    between atoms: C_11  and  N_12
REMARK                            x       y       z     vdW  Elec       q    Type
REMARK                         _______ _______ _______ _____ _____    ______ ____
ROOT
ATOM      1  C   UNL     1     -10.593  13.150  67.379  0.00  0.00    +0.159 C 
ENDROOT
BRANCH   1   4
ATOM      2  C   UNL     1      -9.089  11.351  65.905  0.00  0.00    +0.031 C 
ATOM      3  C   UNL     1     -10.319  11.684  65.447  0.00  0.00    -0.023 A 
ATOM      4  C   UNL     1     -11.340  12.170  66.260  0.00  0.00    +0.005 A 
ATOM      5  C   UNL     1     -12.304  12.850  65.521  0.00  0.00    -0.002 A 
ATOM      6  C   UNL     1     -12.678  12.347  64.283  0.00  0.00    -0.000 A 
ATOM      7  C   UNL     1     -11.662  11.887  63.490  0.00  0.00    -0.000 A 
ATOM      8  C   UNL     1     -10.421  11.641  64.064  0.00  0.00    -0.004 A 
ENDBRANCH   1   4
BRANCH   1   9
ATOM      9  C   UNL     1     -11.554  12.623  68.617  0.00  0.00    +0.009 A 
ATOM     10  C   UNL     1     -11.956  13.604  69.477  0.00  0.00    -0.002 A 
ATOM     11  C   UNL     1     -12.370  13.201  70.742  0.00  0.00    -0.000 A 
ATOM     12  C   UNL     1     -12.563  11.846  70.984  0.00  0.00    -0.000 A 
ATOM     13  C   UNL     1     -12.216  10.910  70.018  0.00  0.00    -0.000 A 
ATOM     14  C   UNL     1     -11.449  11.314  68.929  0.00  0.00    -0.002 A 
ENDBRANCH   1   9
BRANCH   1  15
ATOM     15  O   UNL     1     -11.528  14.368  67.098  0.00  0.00    -0.346 OA
BRANCH  15  16
ATOM     16  C   UNL     1     -10.565  15.380  67.061  0.00  0.00    +0.160 C 
BRANCH  16  17
ATOM     17  C   UNL     1     -10.296  15.807  65.622  0.00  0.00    +0.105 C 
BRANCH  17  18
ATOM     18  N   UNL     1      -9.423  16.961  65.662  0.00  0.00    -0.268 NA
ATOM     19  C   UNL     1      -8.161  16.611  66.264  0.00  0.00    +0.090 C 
ATOM     20  C   UNL     1     -10.083  18.024  66.406  0.00  0.00    +0.090 C 
ENDBRANCH  17  18
ENDBRANCH  16  17
ENDBRANCH  15  16
ENDBRANCH   1  15
TORSDOF 6
ENDMDL
MODEL 4
REMARK VINA RESULT:      -5.4      1.960      3.934
REMARK  Name = 
REMARK  6 active torsions:
REMARK  status: ('A' for Active; 'I' for Inactive)
REMARK    1  A    between atoms: C_7  and  C_8
REMARK    2  A    between atoms: C_8  and  O_9
REMARK    3  A    between atoms: C_8  and  C_15
REMARK    4  A    between atoms: O_9  and  C_10
REMARK    5  A    between atoms: C_10  and  C_11
REMARK    6  A    between atoms: C_11  and  N_12
REMARK                            x       y       z     vdW  Elec       q    Type
REMARK                         _______ _______ _______ _____ _____    ______ ____
ROOT
ATOM      1  C   UNL     1     -11.648  15.791  68.966  0.00  0.00    +0.159 C 
ENDROOT
BRANCH   1   4
ATOM      2  C   UNL     1     -10.587  18.037  67.742  0.00  0.00    +0.031 C 
ATOM      3  C   UNL     1      -9.731  17.134  68.274  0.00  0.00    -0.023 A 
ATOM      4  C   UNL     1     -10.079  16.244  69.288  0.00  0.00    +0.005 A 
ATOM      5  C   UNL     1      -9.213  15.156  69.335  0.00  0.00    -0.002 A 
ATOM      6  C   UNL     1      -7.857  15.369  69.129  0.00  0.00    -0.000 A 
ATOM      7  C   UNL     1      -7.531  16.233  68.120  0.00  0.00    -0.000 A 
ATOM      8  C   UNL     1      -8.515  17.071  67.609  0.00  0.00    -0.004 A 
ENDBRANCH   1   4
BRANCH   1   9
ATOM      9  C   UNL     1     -11.905  15.255  70.510  0.00  0.00    +0.009 A 
ATOM     10  C   UNL     1     -12.614  14.092  70.592  0.00  0.00    -0.002 A 
ATOM     11  C   UNL     1     -13.240  13.821  71.806  0.00  0.00    -0.000 A 
ATOM     12  C   UNL     1     -12.935  14.611  72.907  0.00  0.00    -0.000 A 
ATOM     13  C   UNL     1     -12.124  15.730  72.759  0.00  0.00    -0.000 A 
ATOM     14  C   UNL     1     -11.838  16.192  71.478  0.00  0.00    -0.002 A 
ENDBRANCH   1   9
BRANCH   1  15
ATOM     15  O   UNL     1     -11.250  14.363  68.478  0.00  0.00    -0.346 OA
BRANCH  15  16
ATOM     16  C   UNL     1     -11.853  14.386  67.218  0.00  0.00    +0.160 C 
BRANCH  16  17
ATOM     17  C   UNL     1     -11.555  13.097  66.461  0.00  0.00    +0.105 C 
BRANCH  17  18
ATOM     18  N   UNL     1     -10.989  13.459  65.179  0.00  0.00    -0.268 NA
ATOM     19  C   UNL     1     -10.322  14.734  65.271  0.00  0.00    +0.090 C 
ATOM     20  C   UNL     1     -12.055  13.494  64.187  0.00  0.00    +0.090 C 
ENDBRANCH  17  18
ENDBRANCH  16  17
ENDBRANCH  15  16
ENDBRANCH   1  15
TORSDOF 6
ENDMDL
MODEL 5
REMARK VINA RESULT:      -5.4      2.507      4.085
REMARK  Name = 
REMARK  6 active torsions:
REMARK  status: ('A' for Active; 'I' for Inactive)
REMARK    1  A    between atoms: C_7  and  C_8
REMARK    2  A    between atoms: C_8  and  O_9
REMARK    3  A    between atoms: C_8  and  C_15
REMARK    4  A    between atoms: O_9  and  C_10
REMARK    5  A    between atoms: C_10  and  C_11
REMARK    6  A    between atoms: C_11  and  N_12
REMARK                            x       y       z     vdW  Elec       q    Type
REMARK                         _______ _______ _______ _____ _____    ______ ____
ROOT
ATOM      1  C   UNL     1     -10.527  13.570  68.508  0.00  0.00    +0.159 C 
ENDROOT
BRANCH   1   4
ATOM      2  C   UNL     1      -8.989  14.934  66.652  0.00  0.00    +0.031 C 
ATOM      3  C   UNL     1     -10.161  14.397  66.241  0.00  0.00    -0.023 A 
ATOM      4  C   UNL     1     -10.789  13.331  66.882  0.00  0.00    +0.005 A 
ATOM      5  C   UNL     1     -12.144  13.271  66.568  0.00  0.00    -0.002 A 
ATOM      6  C   UNL     1     -12.543  13.539  65.266  0.00  0.00    -0.000 A 
ATOM      7  C   UNL     1     -11.929  14.598  64.656  0.00  0.00    -0.000 A 
ATOM      8  C   UNL     1     -10.759  15.106  65.209  0.00  0.00    -0.004 A 
ENDBRANCH   1   4
BRANCH   1   9
ATOM      9  C   UNL     1     -10.890  12.002  68.889  0.00  0.00    +0.009 A 
ATOM     10  C   UNL     1     -11.880  11.863  69.819  0.00  0.00    -0.002 A 
ATOM     11  C   UNL     1     -11.934  10.652  70.504  0.00  0.00    -0.000 A 
ATOM     12  C   UNL     1     -11.145   9.597  70.061  0.00  0.00    -0.000 A 
ATOM     13  C   UNL     1     -10.224   9.796  69.040  0.00  0.00    -0.000 A 
ATOM     14  C   UNL     1      -9.920  11.097  68.648  0.00  0.00    -0.002 A 
ENDBRANCH   1   9
BRANCH   1  15
ATOM     15  O   UNL     1     -11.990  14.036  68.787  0.00  0.00    -0.346 OA
BRANCH  15  16
ATOM     16  C   UNL     1     -11.717  15.192  69.520  0.00  0.00    +0.160 C 
BRANCH  16  17
ATOM     17  C   UNL     1     -12.814  15.443  70.549  0.00  0.00    +0.105 C 
BRANCH  17  18
ATOM     18  N   UNL     1     -12.331  14.977  71.831  0.00  0.00    -0.268 NA
ATOM     19  C   UNL     1     -13.298  14.097  72.439  0.00  0.00    +0.090 C 
ATOM     20  C   UNL     1     -12.063  16.130  72.680  0.00  0.00    +0.090 C 
ENDBRANCH  17  18
ENDBRANCH  16  17
ENDBRANCH  15  16
ENDBRANCH   1  15
TORSDOF 6
ENDMDL
MODEL 6
REMARK VINA RESULT:      -5.3      2.530      5.382
REMARK  Name = 
REMARK  6 active torsions:
REMARK  status: ('A' for Active; 'I' for Inactive)
REMARK    1  A    between atoms: C_7  and  C_8
REMARK    2  A    between atoms: C_8  and  O_9
REMARK    3  A    between atoms: C_8  and  C_15
REMARK    4  A    between atoms: O_9  and  C_10
REMARK    5  A    between atoms: C_10  and  C_11
REMARK    6  A    between atoms: C_11  and  N_12
REMARK                            x       y       z     vdW  Elec       q    Type
REMARK                         _______ _______ _______ _____ _____    ______ ____
ROOT
ATOM      1  C   UNL     1      -9.690  15.988  66.481  0.00  0.00    +0.159 C 
ENDROOT
BRANCH   1   4
ATOM      2  C   UNL     1      -8.204  13.836  67.390  0.00  0.00    +0.031 C 
ATOM      3  C   UNL     1      -9.442  14.021  67.905  0.00  0.00    -0.023 A 
ATOM      4  C   UNL     1     -10.097  15.251  67.916  0.00  0.00    +0.005 A 
ATOM      5  C   UNL     1     -11.473  15.098  68.061  0.00  0.00    -0.002 A 
ATOM      6  C   UNL     1     -11.951  14.127  68.931  0.00  0.00    -0.000 A 
ATOM      7  C   UNL     1     -11.308  12.920  68.896  0.00  0.00    -0.000 A 
ATOM      8  C   UNL     1     -10.064  12.839  68.282  0.00  0.00    -0.004 A 
ENDBRANCH   1   4
BRANCH   1   9
ATOM      9  C   UNL     1      -9.980  17.505  67.073  0.00  0.00    +0.009 A 
ATOM     10  C   UNL     1     -10.472  18.385  66.152  0.00  0.00    -0.002 A 
ATOM     11  C   UNL     1     -10.322  19.740  66.435  0.00  0.00    -0.000 A 
ATOM     12  C   UNL     1      -9.898  20.116  67.703  0.00  0.00    -0.000 A 
ATOM     13  C   UNL     1      -9.503  19.150  68.621  0.00  0.00    -0.000 A 
ATOM     14  C   UNL     1      -9.293  17.847  68.182  0.00  0.00    -0.002 A 
ENDBRANCH   1   9
BRANCH   1  15
ATOM     15  O   UNL     1     -11.132  15.881  65.892  0.00  0.00    -0.346 OA
BRANCH  15  16
ATOM     16  C   UNL     1     -10.865  15.042  64.808  0.00  0.00    +0.160 C 
BRANCH  16  17
ATOM     17  C   UNL     1     -12.105  14.235  64.441  0.00  0.00    +0.105 C 
BRANCH  17  18
ATOM     18  N   UNL     1     -11.768  12.832  64.558  0.00  0.00    -0.268 NA
ATOM     19  C   UNL     1     -10.337  12.658  64.519  0.00  0.00    +0.090 C 
ATOM     20  C   UNL     1     -12.414  12.101  63.476  0.00  0.00    +0.090 C 
ENDBRANCH  17  18
ENDBRANCH  16  17
ENDBRANCH  15  16
ENDBRANCH   1  15
TORSDOF 6
ENDMDL
MODEL 7
REMARK VINA RESULT:      -5.2      3.323      6.620
REMARK  Name = 
REMARK  6 active torsions:
REMARK  status: ('A' for Active; 'I' for Inactive)
REMARK    1  A    between atoms: C_7  and  C_8
REMARK    2  A    between atoms: C_8  and  O_9
REMARK    3  A    between atoms: C_8  and  C_15
REMARK    4  A    between atoms: O_9  and  C_10
REMARK    5  A    between atoms: C_10  and  C_11
REMARK    6  A    between atoms: C_11  and  N_12
REMARK                            x       y       z     vdW  Elec       q    Type
REMARK                         _______ _______ _______ _____ _____    ______ ____
ROOT
ATOM      1  C   UNL     1     -10.714  12.107  67.743  0.00  0.00    +0.159 C 
ENDROOT
BRANCH   1   4
ATOM      2  C   UNL     1      -8.515  13.726  67.282  0.00  0.00    +0.031 C 
ATOM      3  C   UNL     1      -9.640  14.299  67.769  0.00  0.00    -0.023 A 
ATOM      4  C   UNL     1     -10.914  13.754  67.614  0.00  0.00    +0.005 A 
ATOM      5  C   UNL     1     -11.804  14.254  68.560  0.00  0.00    -0.002 A 
ATOM      6  C   UNL     1     -11.737  15.599  68.898  0.00  0.00    -0.000 A 
ATOM      7  C   UNL     1     -10.481  16.115  69.062  0.00  0.00    -0.000 A 
ATOM      8  C   UNL     1      -9.392  15.403  68.572  0.00  0.00    -0.004 A 
ENDBRANCH   1   4
BRANCH   1   9
ATOM      9  C   UNL     1     -11.234  11.832  66.198  0.00  0.00    +0.009 A 
ATOM     10  C   UNL     1     -10.394  11.059  65.449  0.00  0.00    -0.002 A 
ATOM     11  C   UNL     1     -10.521  11.149  64.066  0.00  0.00    -0.000 A 
ATOM     12  C   UNL     1     -11.612  11.828  63.537  0.00  0.00    -0.000 A 
ATOM     13  C   UNL     1     -12.480  12.515  64.377  0.00  0.00    -0.000 A 
ATOM     14  C   UNL     1     -12.110  12.730  65.701  0.00  0.00    -0.002 A 
ENDBRANCH   1   9
BRANCH   1  15
ATOM     15  O   UNL     1     -12.142  11.869  68.326  0.00  0.00    -0.346 OA
BRANCH  15  16
ATOM     16  C   UNL     1     -11.862  10.783  69.158  0.00  0.00    +0.160 C 
BRANCH  16  17
ATOM     17  C   UNL     1     -12.205  11.118  70.606  0.00  0.00    +0.105 C 
BRANCH  17  18
ATOM     18  N   UNL     1     -11.989   9.925  71.397  0.00  0.00    -0.268 NA
ATOM     19  C   UNL     1     -11.339   8.912  70.604  0.00  0.00    +0.090 C 
ATOM     20  C   UNL     1     -13.273   9.456  71.899  0.00  0.00    +0.090 C 
ENDBRANCH  17  18
ENDBRANCH  16  17
ENDBRANCH  15  16
ENDBRANCH   1  15
TORSDOF 6
ENDMDL
MODEL 8
REMARK VINA RESULT:      -5.2      1.894      5.257
REMARK  Name = 
REMARK  6 active torsions:
REMARK  status: ('A' for Active; 'I' for Inactive)
REMARK    1  A    between atoms: C_7  and  C_8
REMARK    2  A    between atoms: C_8  and  O_9
REMARK    3  A    between atoms: C_8  and  C_15
REMARK    4  A    between atoms: O_9  and  C_10
REMARK    5  A    between atoms: C_10  and  C_11
REMARK    6  A    between atoms: C_11  and  N_12
REMARK                            x       y       z     vdW  Elec       q    Type
REMARK                         _______ _______ _______ _____ _____    ______ ____
ROOT
ATOM      1  C   UNL     1     -11.017  16.202  67.718  0.00  0.00    +0.159 C 
ENDROOT
BRANCH   1   4
ATOM      2  C   UNL     1     -11.143  14.677  65.410  0.00  0.00    +0.031 C 
ATOM      3  C   UNL     1     -10.150  14.420  66.293  0.00  0.00    -0.023 A 
ATOM      4  C   UNL     1      -9.678  15.350  67.217  0.00  0.00    +0.005 A 
ATOM      5  C   UNL     1      -9.017  14.732  68.275  0.00  0.00    -0.002 A 
ATOM      6  C   UNL     1      -8.197  13.644  68.009  0.00  0.00    -0.000 A 
ATOM      7  C   UNL     1      -8.682  12.732  67.112  0.00  0.00    -0.000 A 
ATOM      8  C   UNL     1      -9.750  13.091  66.299  0.00  0.00    -0.004 A 
ENDBRANCH   1   4
BRANCH   1   9
ATOM      9  C   UNL     1     -10.274  17.666  67.515  0.00  0.00    +0.009 A 
ATOM     10  C   UNL     1      -9.963  18.306  68.680  0.00  0.00    -0.002 A 
ATOM     11  C   UNL     1      -9.758  19.681  68.607  0.00  0.00    -0.000 A 
ATOM     12  C   UNL     1      -9.662  20.277  67.355  0.00  0.00    -0.000 A 
ATOM     13  C   UNL     1      -9.901  19.532  66.207  0.00  0.00    -0.000 A 
ATOM     14  C   UNL     1     -10.480  18.272  66.328  0.00  0.00    -0.002 A 
ENDBRANCH   1   9
BRANCH   1  15
ATOM     15  O   UNL     1     -10.621  16.147  69.227  0.00  0.00    -0.346 OA
BRANCH  15  16
ATOM     16  C   UNL     1     -11.869  15.835  69.771  0.00  0.00    +0.160 C 
BRANCH  16  17
ATOM     17  C   UNL     1     -11.780  15.737  71.290  0.00  0.00    +0.105 C 
BRANCH  17  18
ATOM     18  N   UNL     1     -13.115  15.905  71.822  0.00  0.00    -0.268 NA
ATOM     19  C   UNL     1     -13.082  15.903  73.263  0.00  0.00    +0.090 C 
ATOM     20  C   UNL     1     -13.962  14.835  71.314  0.00  0.00    +0.090 C 
ENDBRANCH  17  18
ENDBRANCH  16  17
ENDBRANCH  15  16
ENDBRANCH   1  15
TORSDOF 6
ENDMDL
MODEL 9
REMARK VINA RESULT:      -5.1      2.082      5.227
REMARK  Name = 
REMARK  6 active torsions:
REMARK  status: ('A' for Active; 'I' for Inactive)
REMARK    1  A    between atoms: C_7  and  C_8
REMARK    2  A    between atoms: C_8  and  O_9
REMARK    3  A    between atoms: C_8  and  C_15
REMARK    4  A    between atoms: O_9  and  C_10
REMARK    5  A    between atoms: C_10  and  C_11
REMARK    6  A    between atoms: C_11  and  N_12
REMARK                            x       y       z     vdW  Elec       q    Type
REMARK                         _______ _______ _______ _____ _____    ______ ____
ROOT
ATOM      1  C   UNL     1     -10.407  13.682  67.307  0.00  0.00    +0.159 C 
ENDROOT
BRANCH   1   4
ATOM      2  C   UNL     1      -7.673  14.118  67.372  0.00  0.00    +0.031 C 
ATOM      3  C   UNL     1      -8.465  15.096  66.875  0.00  0.00    -0.023 A 
ATOM      4  C   UNL     1      -9.737  14.869  66.352  0.00  0.00    +0.005 A 
ATOM      5  C   UNL     1     -10.501  16.033  66.341  0.00  0.00    -0.002 A 
ATOM      6  C   UNL     1      -9.892  17.232  66.000  0.00  0.00    -0.000 A 
ATOM      7  C   UNL     1      -8.650  17.447  66.534  0.00  0.00    -0.000 A 
ATOM      8  C   UNL     1      -7.956  16.371  67.074  0.00  0.00    -0.004 A 
ENDBRANCH   1   4
BRANCH   1   9
ATOM      9  C   UNL     1     -11.056  12.882  66.012  0.00  0.00    +0.009 A 
ATOM     10  C   UNL     1     -10.134  12.332  65.170  0.00  0.00    -0.002 A 
ATOM     11  C   UNL     1     -10.557  12.045  63.875  0.00  0.00    -0.000 A 
ATOM     12  C   UNL     1     -11.913  12.122  63.581  0.00  0.00    -0.000 A 
ATOM     13  C   UNL     1     -12.805  12.606  64.530  0.00  0.00    -0.000 A 
ATOM     14  C   UNL     1     -12.308  13.244  65.662  0.00  0.00    -0.002 A 
ENDBRANCH   1   9
BRANCH   1  15
ATOM     15  O   UNL     1     -11.730  14.473  67.552  0.00  0.00    -0.346 OA
BRANCH  15  16
ATOM     16  C   UNL     1     -11.833  14.307  68.935  0.00  0.00    +0.160 C 
BRANCH  16  17
ATOM     17  C   UNL     1     -11.935  15.660  69.629  0.00  0.00    +0.105 C 
BRANCH  17  18
ATOM     18  N   UNL     1     -12.662  15.468  70.865  0.00  0.00    -0.268 NA
ATOM     19  C   UNL     1     -11.970  16.109  71.956  0.00  0.00    +0.090 C 
ATOM     20  C   UNL     1     -12.810  14.039  71.106  0.00  0.00    +0.090 C 
ENDBRANCH  17  18
ENDBRANCH  16  17
ENDBRANCH  15  16
ENDBRANCH   1  15
TORSDOF 6
ENDMDL
