MODEL 1
REMARK VINA RESULT:      -6.7      0.000      0.000
REMARK  Name = 
REMARK  11 active torsions:
REMARK  status: ('A' for Active; 'I' for Inactive)
REMARK    1  A    between atoms: C_2  and  O_3
REMARK    2  A    between atoms: O_3  and  C_4
REMARK    3  A    between atoms: C_9  and  O_10
REMARK    4  A    between atoms: O_10  and  C_11
REMARK    5  A    between atoms: C_11  and  C_12
REMARK    6  A    between atoms: C_12  and  N_13
REMARK    7  A    between atoms: N_13  and  C_14
REMARK    8  A    between atoms: C_14  and  C_16
REMARK    9  A    between atoms: C_16  and  C_17
REMARK   10  A    between atoms: C_20  and  O_21
REMARK   11  A    between atoms: C_23  and  S_24
REMARK                            x       y       z     vdW  Elec       q    Type
REMARK                         _______ _______ _______ _____ _____    ______ ____
ROOT
ATOM      1  C   UNL     1      -8.475  16.412  68.574  0.00  0.00    +0.077 C 
ATOM      2  C   UNL     1      -7.057  17.289  68.669  0.00  0.00    +0.019 C 
ENDROOT
BRANCH   1   3
ATOM      3  C   UNL     1      -8.244  16.105  66.952  0.00  0.00    +0.044 C 
BRANCH   3   4
ATOM      4  C   UNL     1      -8.973  14.913  66.591  0.00  0.00    -0.019 A 
ATOM      5  C   UNL     1      -9.930  15.034  65.588  0.00  0.00    +0.019 A 
ATOM      6  C   UNL     1     -10.858  14.046  65.351  0.00  0.00    +0.158 A 
ATOM      7  C   UNL     1     -10.608  12.762  65.793  0.00  0.00    +0.157 A 
ATOM      8  C   UNL     1      -9.629  12.604  66.741  0.00  0.00    +0.038 A 
ATOM      9  C   UNL     1      -8.972  13.703  67.241  0.00  0.00    -0.001 A 
BRANCH   6  10
ATOM     10  S   UNL     1     -12.372  14.337  64.510  0.00  0.00    +0.096 S 
ATOM     11  O   UNL     1     -12.337  15.782  64.081  0.00  0.00    -0.150 OA
ATOM     12  O   UNL     1     -13.534  14.046  65.412  0.00  0.00    -0.150 OA
ATOM     13  N   UNL     1     -12.387  13.339  63.093  0.00  0.00    +0.039 NA
ENDBRANCH   6  10
BRANCH   7  14
ATOM     14  O   UNL     1     -11.130  11.704  65.044  0.00  0.00    -0.470 OA
ATOM     15  C   UNL     1     -10.291  10.916  64.230  0.00  0.00    +0.253 C 
ENDBRANCH   7  14
ENDBRANCH   3   4
ENDBRANCH   1   3
BRANCH   1  16
ATOM     16  N   UNL     1      -9.336  17.738  68.324  0.00  0.00    -0.215 NA
BRANCH  16  17
ATOM     17  C   UNL     1     -10.714  17.301  68.411  0.00  0.00    +0.136 C 
BRANCH  17  18
ATOM     18  C   UNL     1     -10.804  16.385  69.617  0.00  0.00    +0.224 C 
BRANCH  18  19
ATOM     19  O   UNL     1     -12.179  16.024  69.743  0.00  0.00    -0.471 OA
BRANCH  19  21
ATOM     20  C   UNL     1     -13.185  14.590  71.405  0.00  0.00    +0.172 A 
ATOM     21  C   UNL     1     -12.458  14.745  70.233  0.00  0.00    +0.172 A 
ATOM     22  C   UNL     1     -11.931  13.631  69.593  0.00  0.00    +0.040 A 
ATOM     23  C   UNL     1     -12.023  12.429  70.265  0.00  0.00    +0.003 A 
ATOM     24  C   UNL     1     -12.977  12.239  71.241  0.00  0.00    +0.003 A 
ATOM     25  C   UNL     1     -13.343  13.346  71.998  0.00  0.00    +0.040 A 
BRANCH  20  26
ATOM     26  O   UNL     1     -13.523  15.767  72.080  0.00  0.00    -0.472 OA
BRANCH  26  28
ATOM     27  C   UNL     1     -12.671  16.123  73.634  0.00  0.00    +0.051 C 
ATOM     28  C   UNL     1     -12.874  16.006  73.328  0.00  0.00    +0.206 C 
ENDBRANCH  26  28
ENDBRANCH  20  26
ENDBRANCH  19  21
ENDBRANCH  18  19
ENDBRANCH  17  18
ENDBRANCH  16  17
ENDBRANCH   1  16
TORSDOF 11
ENDMDL
MODEL 2
REMARK VINA RESULT:      -6.6      3.350      5.254
REMARK  Name = 
REMARK  11 active torsions:
REMARK  status: ('A' for Active; 'I' for Inactive)
REMARK    1  A    between atoms: C_2  and  O_3
REMARK    2  A    between atoms: O_3  and  C_4
REMARK    3  A    between atoms: C_9  and  O_10
REMARK    4  A    between atoms: O_10  and  C_11
REMARK    5  A    between atoms: C_11  and  C_12
REMARK    6  A    between atoms: C_12  and  N_13
REMARK    7  A    between atoms: N_13  and  C_14
REMARK    8  A    between atoms: C_14  and  C_16
REMARK    9  A    between atoms: C_16  and  C_17
REMARK   10  A    between atoms: C_20  and  O_21
REMARK   11  A    between atoms: C_23  and  S_24
REMARK                            x       y       z     vdW  Elec       q    Type
REMARK                         _______ _______ _______ _____ _____    ______ ____
ROOT
ATOM      1  C   UNL     1     -12.078  14.457  71.657  0.00  0.00    +0.077 C 
ATOM      2  C   UNL     1     -12.103  15.431  73.013  0.00  0.00    +0.019 C 
ENDROOT
BRANCH   1   3
ATOM      3  C   UNL     1     -12.642  15.691  70.689  0.00  0.00    +0.044 C 
BRANCH   3   4
ATOM      4  C   UNL     1     -11.898  15.696  69.453  0.00  0.00    -0.019 A 
ATOM      5  C   UNL     1     -12.261  14.759  68.490  0.00  0.00    +0.019 A 
ATOM      6  C   UNL     1     -11.464  14.495  67.400  0.00  0.00    +0.158 A 
ATOM      7  C   UNL     1     -10.521  15.425  67.009  0.00  0.00    +0.157 A 
ATOM      8  C   UNL     1     -10.184  16.396  67.918  0.00  0.00    +0.038 A 
ATOM      9  C   UNL     1     -10.746  16.391  69.171  0.00  0.00    -0.001 A 
BRANCH   6  10
ATOM     10  S   UNL     1     -11.577  13.010  66.470  0.00  0.00    +0.096 S 
ATOM     11  O   UNL     1     -12.065  11.954  67.430  0.00  0.00    -0.150 OA
ATOM     12  O   UNL     1     -10.241  12.660  65.882  0.00  0.00    -0.150 OA
ATOM     13  N   UNL     1     -12.780  13.245  65.246  0.00  0.00    +0.039 NA
ENDBRANCH   6  10
BRANCH   7  14
ATOM     14  O   UNL     1     -10.214  15.505  65.649  0.00  0.00    -0.470 OA
ATOM     15  C   UNL     1     -10.985  16.305  64.782  0.00  0.00    +0.253 C 
ENDBRANCH   7  14
ENDBRANCH   3   4
ENDBRANCH   1   3
BRANCH   1  16
ATOM     16  N   UNL     1     -13.536  13.883  71.982  0.00  0.00    -0.215 NA
BRANCH  16  17
ATOM     17  C   UNL     1     -13.349  12.452  72.100  0.00  0.00    +0.136 C 
BRANCH  17  18
ATOM     18  C   UNL     1     -12.461  12.033  70.943  0.00  0.00    +0.224 C 
BRANCH  18  19
ATOM     19  O   UNL     1     -12.803  10.680  70.646  0.00  0.00    -0.471 OA
BRANCH  19  21
ATOM     20  C   UNL     1     -12.344   8.754  72.030  0.00  0.00    +0.172 A 
ATOM     21  C   UNL     1     -11.923   9.690  71.095  0.00  0.00    +0.172 A 
ATOM     22  C   UNL     1     -10.602   9.698  70.670  0.00  0.00    +0.040 A 
ATOM     23  C   UNL     1      -9.731   8.864  71.341  0.00  0.00    +0.003 A 
ATOM     24  C   UNL     1     -10.196   7.763  72.027  0.00  0.00    +0.003 A 
ATOM     25  C   UNL     1     -11.455   7.861  72.608  0.00  0.00    +0.040 A 
BRANCH  20  26
ATOM     26  O   UNL     1     -13.636   8.928  72.537  0.00  0.00    -0.472 OA
BRANCH  26  28
ATOM     27  C   UNL     1     -14.977   7.926  71.857  0.00  0.00    +0.051 C 
ATOM     28  C   UNL     1     -14.661   8.098  71.994  0.00  0.00    +0.206 C 
ENDBRANCH  26  28
ENDBRANCH  20  26
ENDBRANCH  19  21
ENDBRANCH  18  19
ENDBRANCH  17  18
ENDBRANCH  16  17
ENDBRANCH   1  16
TORSDOF 11
ENDMDL
MODEL 3
REMARK VINA RESULT:      -6.5      3.289      5.070
REMARK  Name = 
REMARK  11 active torsions:
REMARK  status: ('A' for Active; 'I' for Inactive)
REMARK    1  A    between atoms: C_2  and  O_3
REMARK    2  A    between atoms: O_3  and  C_4
REMARK    3  A    between atoms: C_9  and  O_10
REMARK    4  A    between atoms: O_10  and  C_11
REMARK    5  A    between atoms: C_11  and  C_12
REMARK    6  A    between atoms: C_12  and  N_13
REMARK    7  A    between atoms: N_13  and  C_14
REMARK    8  A    between atoms: C_14  and  C_16
REMARK    9  A    between atoms: C_16  and  C_17
REMARK   10  A    between atoms: C_20  and  O_21
REMARK   11  A    between atoms: C_23  and  S_24
REMARK                            x       y       z     vdW  Elec       q    Type
REMARK                         _______ _______ _______ _____ _____    ______ ____
ROOT
ATOM      1  C   UNL     1     -12.066  14.832  71.765  0.00  0.00    +0.077 C 
ATOM      2  C   UNL     1     -12.021  15.973  72.984  0.00  0.00    +0.019 C 
ENDROOT
BRANCH   1   3
ATOM      3  C   UNL     1     -12.141  16.009  70.587  0.00  0.00    +0.044 C 
BRANCH   3   4
ATOM      4  C   UNL     1     -11.746  15.435  69.324  0.00  0.00    -0.019 A 
ATOM      5  C   UNL     1     -10.936  16.211  68.500  0.00  0.00    +0.019 A 
ATOM      6  C   UNL     1     -10.721  15.884  67.181  0.00  0.00    +0.158 A 
ATOM      7  C   UNL     1     -10.941  14.588  66.760  0.00  0.00    +0.157 A 
ATOM      8  C   UNL     1     -11.688  13.781  67.579  0.00  0.00    +0.038 A 
ATOM      9  C   UNL     1     -12.219  14.283  68.743  0.00  0.00    -0.001 A 
BRANCH   6  10
ATOM     10  S   UNL     1     -10.181  17.048  65.982  0.00  0.00    +0.096 S 
ATOM     11  O   UNL     1     -10.521  18.407  66.541  0.00  0.00    -0.150 OA
ATOM     12  O   UNL     1     -10.859  16.796  64.668  0.00  0.00    -0.150 OA
ATOM     13  N   UNL     1      -8.458  16.916  65.858  0.00  0.00    +0.039 NA
ENDBRANCH   6  10
BRANCH   7  14
ATOM     14  O   UNL     1     -10.150  14.101  65.715  0.00  0.00    -0.470 OA
ATOM     15  C   UNL     1      -9.817  12.734  65.641  0.00  0.00    +0.253 C 
ENDBRANCH   7  14
ENDBRANCH   3   4
ENDBRANCH   1   3
BRANCH   1  16
ATOM     16  N   UNL     1     -13.655  14.688  71.892  0.00  0.00    -0.215 NA
BRANCH  16  17
ATOM     17  C   UNL     1     -13.868  13.311  72.285  0.00  0.00    +0.136 C 
BRANCH  17  18
ATOM     18  C   UNL     1     -12.855  12.479  71.519  0.00  0.00    +0.224 C 
BRANCH  18  19
ATOM     19  O   UNL     1     -13.152  11.116  71.816  0.00  0.00    -0.471 OA
BRANCH  19  21
ATOM     20  C   UNL     1     -12.581   8.798  71.450  0.00  0.00    +0.172 A 
ATOM     21  C   UNL     1     -12.374  10.144  71.181  0.00  0.00    +0.172 A 
ATOM     22  C   UNL     1     -11.334  10.529  70.346  0.00  0.00    +0.040 A 
ATOM     23  C   UNL     1     -10.449   9.542  69.961  0.00  0.00    +0.003 A 
ATOM     24  C   UNL     1     -10.823   8.216  69.979  0.00  0.00    +0.003 A 
ATOM     25  C   UNL     1     -11.726   7.822  70.958  0.00  0.00    +0.040 A 
BRANCH  20  26
ATOM     26  O   UNL     1     -13.528   8.506  72.437  0.00  0.00    -0.472 OA
BRANCH  26  28
ATOM     27  C   UNL     1     -15.107   7.817  71.890  0.00  0.00    +0.051 C 
ATOM     28  C   UNL     1     -14.752   7.915  72.004  0.00  0.00    +0.206 C 
ENDBRANCH  26  28
ENDBRANCH  20  26
ENDBRANCH  19  21
ENDBRANCH  18  19
ENDBRANCH  17  18
ENDBRANCH  16  17
ENDBRANCH   1  16
TORSDOF 11
ENDMDL
MODEL 4
REMARK VINA RESULT:      -6.4      2.938      5.999
REMARK  Name = 
REMARK  11 active torsions:
REMARK  status: ('A' for Active; 'I' for Inactive)
REMARK    1  A    between atoms: C_2  and  O_3
REMARK    2  A    between atoms: O_3  and  C_4
REMARK    3  A    between atoms: C_9  and  O_10
REMARK    4  A    between atoms: O_10  and  C_11
REMARK    5  A    between atoms: C_11  and  C_12
REMARK    6  A    between atoms: C_12  and  N_13
REMARK    7  A    between atoms: N_13  and  C_14
REMARK    8  A    between atoms: C_14  and  C_16
REMARK    9  A    between atoms: C_16  and  C_17
REMARK   10  A    between atoms: C_20  and  O_21
REMARK   11  A    between atoms: C_23  and  S_24
REMARK                            x       y       z     vdW  Elec       q    Type
REMARK                         _______ _______ _______ _____ _____    ______ ____
ROOT
ATOM      1  C   UNL     1     -13.349  14.155  71.195  0.00  0.00    +0.077 C 
ATOM      2  C   UNL     1     -14.792  14.881  71.617  0.00  0.00    +0.019 C 
ENDROOT
BRANCH   1   3
ATOM      3  C   UNL     1     -13.675  12.823  72.143  0.00  0.00    +0.044 C 
BRANCH   3   4
ATOM      4  C   UNL     1     -12.946  11.690  71.628  0.00  0.00    -0.019 A 
ATOM      5  C   UNL     1     -12.138  11.908  70.515  0.00  0.00    +0.019 A 
ATOM      6  C   UNL     1     -11.615  10.866  69.785  0.00  0.00    +0.158 A 
ATOM      7  C   UNL     1     -11.518   9.616  70.363  0.00  0.00    +0.157 A 
ATOM      8  C   UNL     1     -12.260   9.389  71.495  0.00  0.00    +0.038 A 
ATOM      9  C   UNL     1     -13.087  10.371  71.984  0.00  0.00    -0.001 A 
BRANCH   6  10
ATOM     10  S   UNL     1     -11.063  11.041  68.127  0.00  0.00    +0.096 S 
ATOM     11  O   UNL     1     -11.960  12.077  67.498  0.00  0.00    -0.150 OA
ATOM     12  O   UNL     1     -11.137   9.725  67.411  0.00  0.00    -0.150 OA
ATOM     13  N   UNL     1      -9.447  11.663  68.174  0.00  0.00    +0.039 NA
ENDBRANCH   6  10
BRANCH   7  14
ATOM     14  O   UNL     1     -10.466   8.792  69.956  0.00  0.00    -0.470 OA
ATOM     15  C   UNL     1      -9.197   8.894  70.559  0.00  0.00    +0.253 C 
ENDBRANCH   7  14
ENDBRANCH   3   4
ENDBRANCH   1   3
BRANCH   1  16
ATOM     16  N   UNL     1     -12.562  14.935  72.350  0.00  0.00    -0.215 NA
BRANCH  16  17
ATOM     17  C   UNL     1     -11.823  15.969  71.656  0.00  0.00    +0.136 C 
BRANCH  17  18
ATOM     18  C   UNL     1     -11.820  15.589  70.187  0.00  0.00    +0.224 C 
BRANCH  18  19
ATOM     19  O   UNL     1     -11.304  16.718  69.483  0.00  0.00    -0.471 OA
BRANCH  19  21
ATOM     20  C   UNL     1     -10.305  17.454  67.411  0.00  0.00    +0.172 A 
ATOM     21  C   UNL     1     -10.519  16.459  68.356  0.00  0.00    +0.172 A 
ATOM     22  C   UNL     1     -10.025  15.180  68.138  0.00  0.00    +0.040 A 
ATOM     23  C   UNL     1      -9.485  14.929  66.893  0.00  0.00    +0.003 A 
ATOM     24  C   UNL     1      -9.017  15.959  66.106  0.00  0.00    +0.003 A 
ATOM     25  C   UNL     1      -9.664  17.184  66.210  0.00  0.00    +0.040 A 
BRANCH  20  26
ATOM     26  O   UNL     1     -10.986  18.657  67.619  0.00  0.00    -0.472 OA
BRANCH  26  28
ATOM     27  C   UNL     1      -9.941  20.132  67.655  0.00  0.00    +0.051 C 
ATOM     28  C   UNL     1     -10.202  19.850  67.633  0.00  0.00    +0.206 C 
ENDBRANCH  26  28
ENDBRANCH  20  26
ENDBRANCH  19  21
ENDBRANCH  18  19
ENDBRANCH  17  18
ENDBRANCH  16  17
ENDBRANCH   1  16
TORSDOF 11
ENDMDL
MODEL 5
REMARK VINA RESULT:      -6.2      2.918      6.524
REMARK  Name = 
REMARK  11 active torsions:
REMARK  status: ('A' for Active; 'I' for Inactive)
REMARK    1  A    between atoms: C_2  and  O_3
REMARK    2  A    between atoms: O_3  and  C_4
REMARK    3  A    between atoms: C_9  and  O_10
REMARK    4  A    between atoms: O_10  and  C_11
REMARK    5  A    between atoms: C_11  and  C_12
REMARK    6  A    between atoms: C_12  and  N_13
REMARK    7  A    between atoms: N_13  and  C_14
REMARK    8  A    between atoms: C_14  and  C_16
REMARK    9  A    between atoms: C_16  and  C_17
REMARK   10  A    between atoms: C_20  and  O_21
REMARK   11  A    between atoms: C_23  and  S_24
REMARK                            x       y       z     vdW  Elec       q    Type
REMARK                         _______ _______ _______ _____ _____    ______ ____
ROOT
ATOM      1  C   UNL     1     -11.553  14.667  70.319  0.00  0.00    +0.077 C 
ATOM      2  C   UNL     1     -13.025  15.091  70.984  0.00  0.00    +0.019 C 
ENDROOT
BRANCH   1   3
ATOM      3  C   UNL     1     -11.601  15.947  69.252  0.00  0.00    +0.044 C 
BRANCH   3   4
ATOM      4  C   UNL     1     -10.261  16.443  69.054  0.00  0.00    -0.019 A 
ATOM      5  C   UNL     1     -10.128  17.675  68.419  0.00  0.00    +0.019 A 
ATOM      6  C   UNL     1      -8.915  18.116  67.943  0.00  0.00    +0.158 A 
ATOM      7  C   UNL     1      -7.750  17.569  68.444  0.00  0.00    +0.157 A 
ATOM      8  C   UNL     1      -7.858  16.383  69.125  0.00  0.00    +0.038 A 
ATOM      9  C   UNL     1      -9.080  15.768  69.249  0.00  0.00    -0.001 A 
BRANCH   6  10
ATOM     10  S   UNL     1      -8.765  19.352  66.704  0.00  0.00    +0.096 S 
ATOM     11  O   UNL     1      -7.862  18.772  65.645  0.00  0.00    -0.150 OA
ATOM     12  O   UNL     1      -8.205  20.614  67.292  0.00  0.00    -0.150 OA
ATOM     13  N   UNL     1     -10.336  19.601  66.017  0.00  0.00    +0.039 NA
ENDBRANCH   6  10
BRANCH   7  14
ATOM     14  O   UNL     1      -6.619  18.388  68.500  0.00  0.00    -0.470 OA
ATOM     15  C   UNL     1      -5.336  17.861  68.253  0.00  0.00    +0.253 C 
ENDBRANCH   7  14
ENDBRANCH   3   4
ENDBRANCH   1   3
BRANCH   1  16
ATOM     16  N   UNL     1     -12.251  13.641  69.307  0.00  0.00    -0.215 NA
BRANCH  16  17
ATOM     17  C   UNL     1     -11.180  12.768  68.875  0.00  0.00    +0.136 C 
BRANCH  17  18
ATOM     18  C   UNL     1     -11.734  11.934  67.734  0.00  0.00    +0.224 C 
BRANCH  18  19
ATOM     19  O   UNL     1     -10.868  12.153  66.621  0.00  0.00    -0.471 OA
BRANCH  19  21
ATOM     20  C   UNL     1     -11.880  13.829  65.207  0.00  0.00    +0.172 A 
ATOM     21  C   UNL     1     -10.862  13.436  66.065  0.00  0.00    +0.172 A 
ATOM     22  C   UNL     1      -9.791  14.286  66.303  0.00  0.00    +0.040 A 
ATOM     23  C   UNL     1      -9.718  15.424  65.526  0.00  0.00    +0.003 A 
ATOM     24  C   UNL     1     -10.845  15.937  64.921  0.00  0.00    +0.003 A 
ATOM     25  C   UNL     1     -11.820  15.032  64.519  0.00  0.00    +0.040 A 
BRANCH  20  26
ATOM     26  O   UNL     1     -12.824  12.850  64.881  0.00  0.00    -0.472 OA
BRANCH  26  28
ATOM     27  C   UNL     1     -12.576  11.876  63.379  0.00  0.00    +0.051 C 
ATOM     28  C   UNL     1     -12.613  12.125  63.671  0.00  0.00    +0.206 C 
ENDBRANCH  26  28
ENDBRANCH  20  26
ENDBRANCH  19  21
ENDBRANCH  18  19
ENDBRANCH  17  18
ENDBRANCH  16  17
ENDBRANCH   1  16
TORSDOF 11
ENDMDL
MODEL 6
REMARK VINA RESULT:      -6.2      4.018      6.505
REMARK  Name = 
REMARK  11 active torsions:
REMARK  status: ('A' for Active; 'I' for Inactive)
REMARK    1  A    between atoms: C_2  and  O_3
REMARK    2  A    between atoms: O_3  and  C_4
REMARK    3  A    between atoms: C_9  and  O_10
REMARK    4  A    between atoms: O_10  and  C_11
REMARK    5  A    between atoms: C_11  and  C_12
REMARK    6  A    between atoms: C_12  and  N_13
REMARK    7  A    between atoms: N_13  and  C_14
REMARK    8  A    between atoms: C_14  and  C_16
REMARK    9  A    between atoms: C_16  and  C_17
REMARK   10  A    between atoms: C_20  and  O_21
REMARK   11  A    between atoms: C_23  and  S_24
REMARK                            x       y       z     vdW  Elec       q    Type
REMARK                         _______ _______ _______ _____ _____    ______ ____
ROOT
ATOM      1  C   UNL     1     -13.204  14.146  71.059  0.00  0.00    +0.077 C 
ATOM      2  C   UNL     1     -14.625  14.542  71.841  0.00  0.00    +0.019 C 
ENDROOT
BRANCH   1   3
ATOM      3  C   UNL     1     -13.175  12.632  71.756  0.00  0.00    +0.044 C 
BRANCH   3   4
ATOM      4  C   UNL     1     -12.444  11.734  70.895  0.00  0.00    -0.019 A 
ATOM      5  C   UNL     1     -12.416  10.390  71.258  0.00  0.00    +0.019 A 
ATOM      6  C   UNL     1     -11.544   9.501  70.674  0.00  0.00    +0.158 A 
ATOM      7  C   UNL     1     -10.987   9.804  69.448  0.00  0.00    +0.157 A 
ATOM      8  C   UNL     1     -11.050  11.112  69.037  0.00  0.00    +0.038 A 
ATOM      9  C   UNL     1     -11.612  12.063  69.853  0.00  0.00    -0.001 A 
BRANCH   6  10
ATOM     10  S   UNL     1     -11.086   7.979  71.422  0.00  0.00    +0.096 S 
ATOM     11  O   UNL     1     -11.578   8.051  72.845  0.00  0.00    -0.150 OA
ATOM     12  O   UNL     1      -9.600   7.789  71.350  0.00  0.00    -0.150 OA
ATOM     13  N   UNL     1     -11.940   6.713  70.604  0.00  0.00    +0.039 NA
ENDBRANCH   6  10
BRANCH   7  14
ATOM     14  O   UNL     1     -10.687   8.742  68.590  0.00  0.00    -0.470 OA
ATOM     15  C   UNL     1     -10.602   8.943  67.198  0.00  0.00    +0.253 C 
ENDBRANCH   7  14
ENDBRANCH   3   4
ENDBRANCH   1   3
BRANCH   1  16
ATOM     16  N   UNL     1     -12.324  14.825  72.211  0.00  0.00    -0.215 NA
BRANCH  16  17
ATOM     17  C   UNL     1     -11.848  16.062  71.628  0.00  0.00    +0.136 C 
BRANCH  17  18
ATOM     18  C   UNL     1     -10.974  15.678  70.448  0.00  0.00    +0.224 C 
BRANCH  18  19
ATOM     19  O   UNL     1     -11.425  16.463  69.344  0.00  0.00    -0.471 OA
BRANCH  19  21
ATOM     20  C   UNL     1     -10.239  16.790  67.267  0.00  0.00    +0.172 A 
ATOM     21  C   UNL     1     -11.074  16.021  68.066  0.00  0.00    +0.172 A 
ATOM     22  C   UNL     1     -11.633  14.855  67.561  0.00  0.00    +0.040 A 
ATOM     23  C   UNL     1     -11.453  14.614  66.214  0.00  0.00    +0.003 A 
ATOM     24  C   UNL     1     -10.409  15.195  65.527  0.00  0.00    +0.003 A 
ATOM     25  C   UNL     1     -10.000  16.457  65.941  0.00  0.00    +0.040 A 
BRANCH  20  26
ATOM     26  O   UNL     1      -9.866  18.034  67.784  0.00  0.00    -0.472 OA
BRANCH  26  28
ATOM     27  C   UNL     1     -10.726  19.453  67.066  0.00  0.00    +0.051 C 
ATOM     28  C   UNL     1     -10.538  19.180  67.262  0.00  0.00    +0.206 C 
ENDBRANCH  26  28
ENDBRANCH  20  26
ENDBRANCH  19  21
ENDBRANCH  18  19
ENDBRANCH  17  18
ENDBRANCH  16  17
ENDBRANCH   1  16
TORSDOF 11
ENDMDL
MODEL 7
REMARK VINA RESULT:      -6.2      2.219      4.296
REMARK  Name = 
REMARK  11 active torsions:
REMARK  status: ('A' for Active; 'I' for Inactive)
REMARK    1  A    between atoms: C_2  and  O_3
REMARK    2  A    between atoms: O_3  and  C_4
REMARK    3  A    between atoms: C_9  and  O_10
REMARK    4  A    between atoms: O_10  and  C_11
REMARK    5  A    between atoms: C_11  and  C_12
REMARK    6  A    between atoms: C_12  and  N_13
REMARK    7  A    between atoms: N_13  and  C_14
REMARK    8  A    between atoms: C_14  and  C_16
REMARK    9  A    between atoms: C_16  and  C_17
REMARK   10  A    between atoms: C_20  and  O_21
REMARK   11  A    between atoms: C_23  and  S_24
REMARK                            x       y       z     vdW  Elec       q    Type
REMARK                         _______ _______ _______ _____ _____    ______ ____
ROOT
ATOM      1  C   UNL     1     -11.250  10.940  68.545  0.00  0.00    +0.077 C 
ATOM      2  C   UNL     1     -10.643   9.401  68.319  0.00  0.00    +0.019 C 
ENDROOT
BRANCH   1   3
ATOM      3  C   UNL     1      -9.731  11.617  68.432  0.00  0.00    +0.044 C 
BRANCH   3   4
ATOM      4  C   UNL     1      -9.779  12.726  67.510  0.00  0.00    -0.019 A 
ATOM      5  C   UNL     1     -10.893  12.814  66.681  0.00  0.00    +0.019 A 
ATOM      6  C   UNL     1     -10.923  13.659  65.595  0.00  0.00    +0.158 A 
ATOM      7  C   UNL     1     -10.050  14.728  65.545  0.00  0.00    +0.157 A 
ATOM      8  C   UNL     1      -8.972  14.697  66.393  0.00  0.00    +0.038 A 
ATOM      9  C   UNL     1      -8.773  13.614  67.214  0.00  0.00    -0.001 A 
BRANCH   6  10
ATOM     10  S   UNL     1     -12.024  13.443  64.244  0.00  0.00    +0.096 S 
ATOM     11  O   UNL     1     -11.216  12.789  63.151  0.00  0.00    -0.150 OA
ATOM     12  O   UNL     1     -12.586  14.766  63.813  0.00  0.00    -0.150 OA
ATOM     13  N   UNL     1     -13.266  12.345  64.748  0.00  0.00    +0.039 NA
ENDBRANCH   6  10
BRANCH   7  14
ATOM     14  O   UNL     1     -10.475  15.883  64.884  0.00  0.00    -0.470 OA
ATOM     15  C   UNL     1     -10.403  17.141  65.514  0.00  0.00    +0.253 C 
ENDBRANCH   7  14
ENDBRANCH   3   4
ENDBRANCH   1   3
BRANCH   1  16
ATOM     16  N   UNL     1     -11.192  10.781  70.137  0.00  0.00    -0.215 NA
BRANCH  16  17
ATOM     17  C   UNL     1     -12.557  10.499  70.527  0.00  0.00    +0.136 C 
BRANCH  17  18
ATOM     18  C   UNL     1     -13.006  11.654  71.404  0.00  0.00    +0.224 C 
BRANCH  18  19
ATOM     19  O   UNL     1     -12.396  12.826  70.865  0.00  0.00    -0.471 OA
BRANCH  19  21
ATOM     20  C   UNL     1     -11.836  15.151  71.203  0.00  0.00    +0.172 A 
ATOM     21  C   UNL     1     -12.447  13.985  71.645  0.00  0.00    +0.172 A 
ATOM     22  C   UNL     1     -13.034  13.945  72.902  0.00  0.00    +0.040 A 
ATOM     23  C   UNL     1     -12.824  15.038  73.719  0.00  0.00    +0.003 A 
ATOM     24  C   UNL     1     -12.494  16.264  73.184  0.00  0.00    +0.003 A 
ATOM     25  C   UNL     1     -11.735  16.267  72.020  0.00  0.00    +0.040 A 
BRANCH  20  26
ATOM     26  O   UNL     1     -11.116  15.054  70.009  0.00  0.00    -0.472 OA
BRANCH  26  28
ATOM     27  C   UNL     1     -11.737  15.922  68.550  0.00  0.00    +0.051 C 
ATOM     28  C   UNL     1     -11.620  15.779  68.888  0.00  0.00    +0.206 C 
ENDBRANCH  26  28
ENDBRANCH  20  26
ENDBRANCH  19  21
ENDBRANCH  18  19
ENDBRANCH  17  18
ENDBRANCH  16  17
ENDBRANCH   1  16
TORSDOF 11
ENDMDL
MODEL 8
REMARK VINA RESULT:      -6.2      2.884      5.243
REMARK  Name = 
REMARK  11 active torsions:
REMARK  status: ('A' for Active; 'I' for Inactive)
REMARK    1  A    between atoms: C_2  and  O_3
REMARK    2  A    between atoms: O_3  and  C_4
REMARK    3  A    between atoms: C_9  and  O_10
REMARK    4  A    between atoms: O_10  and  C_11
REMARK    5  A    between atoms: C_11  and  C_12
REMARK    6  A    between atoms: C_12  and  N_13
REMARK    7  A    between atoms: N_13  and  C_14
REMARK    8  A    between atoms: C_14  and  C_16
REMARK    9  A    between atoms: C_16  and  C_17
REMARK   10  A    between atoms: C_20  and  O_21
REMARK   11  A    between atoms: C_23  and  S_24
REMARK                            x       y       z     vdW  Elec       q    Type
REMARK                         _______ _______ _______ _____ _____    ______ ____
ROOT
ATOM      1  C   UNL     1      -9.257  18.762  66.409  0.00  0.00    +0.077 C 
ATOM      2  C   UNL     1     -10.424  19.946  66.262  0.00  0.00    +0.019 C 
ENDROOT
BRANCH   1   3
ATOM      3  C   UNL     1      -9.801  18.333  67.926  0.00  0.00    +0.044 C 
BRANCH   3   4
ATOM      4  C   UNL     1     -10.236  16.958  67.898  0.00  0.00    -0.019 A 
ATOM      5  C   UNL     1     -10.381  16.364  66.647  0.00  0.00    +0.019 A 
ATOM      6  C   UNL     1     -11.036  15.165  66.487  0.00  0.00    +0.158 A 
ATOM      7  C   UNL     1     -11.186  14.325  67.573  0.00  0.00    +0.157 A 
ATOM      8  C   UNL     1     -10.992  14.869  68.818  0.00  0.00    +0.038 A 
ATOM      9  C   UNL     1     -10.705  16.206  68.947  0.00  0.00    -0.001 A 
BRANCH   6  10
ATOM     10  S   UNL     1     -11.710  14.640  64.953  0.00  0.00    +0.096 S 
ATOM     11  O   UNL     1     -13.072  14.074  65.270  0.00  0.00    -0.150 OA
ATOM     12  O   UNL     1     -10.814  13.622  64.311  0.00  0.00    -0.150 OA
ATOM     13  N   UNL     1     -11.912  16.044  63.959  0.00  0.00    +0.039 NA
ENDBRANCH   6  10
BRANCH   7  14
ATOM     14  O   UNL     1     -11.213  12.949  67.331  0.00  0.00    -0.470 OA
ATOM     15  C   UNL     1     -11.714  12.057  68.300  0.00  0.00    +0.253 C 
ENDBRANCH   7  14
ENDBRANCH   3   4
ENDBRANCH   1   3
BRANCH   1  16
ATOM     16  N   UNL     1      -8.186  19.817  66.960  0.00  0.00    -0.215 NA
BRANCH  16  17
ATOM     17  C   UNL     1      -7.127  19.813  65.972  0.00  0.00    +0.136 C 
BRANCH  17  18
ATOM     18  C   UNL     1      -6.805  18.358  65.686  0.00  0.00    +0.224 C 
BRANCH  18  19
ATOM     19  O   UNL     1      -5.867  17.954  66.682  0.00  0.00    -0.471 OA
BRANCH  19  21
ATOM     20  C   UNL     1      -6.059  17.167  68.957  0.00  0.00    +0.172 A 
ATOM     21  C   UNL     1      -6.291  16.989  67.600  0.00  0.00    +0.172 A 
ATOM     22  C   UNL     1      -6.867  15.810  67.145  0.00  0.00    +0.040 A 
ATOM     23  C   UNL     1      -7.024  14.799  68.072  0.00  0.00    +0.003 A 
ATOM     24  C   UNL     1      -7.075  15.081  69.420  0.00  0.00    +0.003 A 
ATOM     25  C   UNL     1      -6.327  16.160  69.874  0.00  0.00    +0.040 A 
BRANCH  20  26
ATOM     26  O   UNL     1      -5.315  18.296  69.312  0.00  0.00    -0.472 OA
BRANCH  26  28
ATOM     27  C   UNL     1      -6.185  19.742  69.958  0.00  0.00    +0.051 C 
ATOM     28  C   UNL     1      -6.037  19.406  69.843  0.00  0.00    +0.206 C 
ENDBRANCH  26  28
ENDBRANCH  20  26
ENDBRANCH  19  21
ENDBRANCH  18  19
ENDBRANCH  17  18
ENDBRANCH  16  17
ENDBRANCH   1  16
TORSDOF 11
ENDMDL
MODEL 9
REMARK VINA RESULT:      -6.1      2.506      5.730
REMARK  Name = 
REMARK  11 active torsions:
REMARK  status: ('A' for Active; 'I' for Inactive)
REMARK    1  A    between atoms: C_2  and  O_3
REMARK    2  A    between atoms: O_3  and  C_4
REMARK    3  A    between atoms: C_9  and  O_10
REMARK    4  A    between atoms: O_10  and  C_11
REMARK    5  A    between atoms: C_11  and  C_12
REMARK    6  A    between atoms: C_12  and  N_13
REMARK    7  A    between atoms: N_13  and  C_14
REMARK    8  A    between atoms: C_14  and  C_16
REMARK    9  A    between atoms: C_16  and  C_17
REMARK   10  A    between atoms: C_20  and  O_21
REMARK   11  A    between atoms: C_23  and  S_24
REMARK                            x       y       z     vdW  Elec       q    Type
REMARK                         _______ _______ _______ _____ _____    ______ ____
ROOT
ATOM      1  C   UNL     1     -12.050  15.102  69.593  0.00  0.00    +0.077 C 
ATOM      2  C   UNL     1     -12.952  15.593  70.910  0.00  0.00    +0.019 C 
ENDROOT
BRANCH   1   3
ATOM      3  C   UNL     1     -12.072  13.513  70.099  0.00  0.00    +0.044 C 
BRANCH   3   4
ATOM      4  C   UNL     1     -11.711  12.663  68.990  0.00  0.00    -0.019 A 
ATOM      5  C   UNL     1     -11.718  13.237  67.722  0.00  0.00    +0.019 A 
ATOM      6  C   UNL     1     -11.655  12.471  66.581  0.00  0.00    +0.158 A 
ATOM      7  C   UNL     1     -11.162  11.184  66.655  0.00  0.00    +0.157 A 
ATOM      8  C   UNL     1     -11.090  10.611  67.900  0.00  0.00    +0.038 A 
ATOM      9  C   UNL     1     -11.536  11.300  69.002  0.00  0.00    -0.001 A 
BRANCH   6  10
ATOM     10  S   UNL     1     -12.184  13.050  65.010  0.00  0.00    +0.096 S 
ATOM     11  O   UNL     1     -13.105  11.988  64.464  0.00  0.00    -0.150 OA
ATOM     12  O   UNL     1     -11.003  13.283  64.114  0.00  0.00    -0.150 OA
ATOM     13  N   UNL     1     -13.099  14.500  65.263  0.00  0.00    +0.039 NA
ENDBRANCH   6  10
BRANCH   7  14
ATOM     14  O   UNL     1     -10.495  10.677  65.537  0.00  0.00    -0.470 OA
ATOM     15  C   UNL     1      -9.876   9.413  65.579  0.00  0.00    +0.253 C 
ENDBRANCH   7  14
ENDBRANCH   3   4
ENDBRANCH   1   3
BRANCH   1  16
ATOM     16  N   UNL     1     -10.679  15.448  70.342  0.00  0.00    -0.215 NA
BRANCH  16  17
ATOM     17  C   UNL     1      -9.704  15.581  69.279  0.00  0.00    +0.136 C 
BRANCH  17  18
ATOM     18  C   UNL     1      -9.717  17.039  68.859  0.00  0.00    +0.224 C 
BRANCH  18  19
ATOM     19  O   UNL     1      -8.652  17.194  67.922  0.00  0.00    -0.471 OA
BRANCH  19  21
ATOM     20  C   UNL     1      -8.051  19.371  67.067  0.00  0.00    +0.172 A 
ATOM     21  C   UNL     1      -7.894  18.365  68.011  0.00  0.00    +0.172 A 
ATOM     22  C   UNL     1      -6.921  18.485  68.994  0.00  0.00    +0.040 A 
ATOM     23  C   UNL     1      -6.040  19.540  68.869  0.00  0.00    +0.003 A 
ATOM     24  C   UNL     1      -6.379  20.658  68.138  0.00  0.00    +0.003 A 
ATOM     25  C   UNL     1      -7.206  20.472  67.037  0.00  0.00    +0.040 A 
BRANCH  20  26
ATOM     26  O   UNL     1      -8.923  19.093  66.010  0.00  0.00    -0.472 OA
BRANCH  26  28
ATOM     27  C   UNL     1     -10.613  19.719  66.148  0.00  0.00    +0.051 C 
ATOM     28  C   UNL     1     -10.241  19.633  66.100  0.00  0.00    +0.206 C 
ENDBRANCH  26  28
ENDBRANCH  20  26
ENDBRANCH  19  21
ENDBRANCH  18  19
ENDBRANCH  17  18
ENDBRANCH  16  17
ENDBRANCH   1  16
TORSDOF 11
ENDMDL
