MODEL 1
REMARK VINA RESULT:      -6.6      0.000      0.000
REMARK  Name = 
REMARK  2 active torsions:
REMARK  status: ('A' for Active; 'I' for Inactive)
REMARK    1  A    between atoms: N_6  and  C1*_7
REMARK    2  A    between atoms: C4*_11  and  C5*_12
REMARK                            x       y       z     vdW  Elec       q    Type
REMARK                         _______ _______ _______ _____ _____    ______ ____
ROOT
ATOM      1  O   UNL     1     -13.076  12.544  64.663  0.00  0.00    -0.263 OA
ATOM      2  C   UNL     1     -12.708  13.521  64.980  0.00  0.00    +0.312 A 
ATOM      3  C   UNL     1     -12.029  13.487  66.164  0.00  0.00    +0.215 A 
ATOM      4  F   UNL     1     -12.200  12.563  67.125  0.00  0.00    -0.197 F 
ATOM      5  C   UNL     1     -11.080  14.432  66.381  0.00  0.00    +0.117 A 
ATOM      6  N   UNL     1     -10.612  15.328  65.463  0.00  0.00    -0.253 N 
ATOM      7  C   UNL     1     -11.621  15.591  64.590  0.00  0.00    +0.355 A 
ATOM      8  O   UNL     1     -11.514  16.681  63.938  0.00  0.00    -0.244 OA
ATOM      9  N   UNL     1     -12.450  14.593  64.186  0.00  0.00    -0.151 NA
ENDROOT
BRANCH   6  10
ATOM     10  C1* UNL     1     -10.167  16.563  66.372  0.00  0.00    +0.211 C 
ATOM     11  O4* UNL     1      -8.879  16.847  65.606  0.00  0.00    -0.332 OA
ATOM     12  C4* UNL     1      -8.198  17.300  66.878  0.00  0.00    +0.180 C 
ATOM     13  C3* UNL     1      -7.937  15.613  67.076  0.00  0.00    +0.186 C 
ATOM     14  O3* UNL     1      -7.504  15.758  68.520  0.00  0.00    -0.220 OA
ATOM     15  C2* UNL     1      -9.498  15.548  67.500  0.00  0.00    +0.089 C 
BRANCH  12  16
ATOM     16  C5* UNL     1      -6.745  17.521  66.144  0.00  0.00    +0.214 C 
ATOM     17  O5* UNL     1      -7.177  18.505  65.234  0.00  0.00    -0.218 OA
ENDBRANCH  12  16
ENDBRANCH   6  10
TORSDOF 2
ENDMDL
MODEL 2
REMARK VINA RESULT:      -6.0      3.903      5.329
REMARK  Name = 
REMARK  2 active torsions:
REMARK  status: ('A' for Active; 'I' for Inactive)
REMARK    1  A    between atoms: N_6  and  C1*_7
REMARK    2  A    between atoms: C4*_11  and  C5*_12
REMARK                            x       y       z     vdW  Elec       q    Type
REMARK                         _______ _______ _______ _____ _____    ______ ____
ROOT
ATOM      1  O   UNL     1     -13.574  14.952  72.796  0.00  0.00    -0.263 OA
ATOM      2  C   UNL     1     -12.799  14.937  72.027  0.00  0.00    +0.312 A 
ATOM      3  C   UNL     1     -12.732  13.754  71.348  0.00  0.00    +0.215 A 
ATOM      4  F   UNL     1     -13.132  12.565  71.829  0.00  0.00    -0.197 F 
ATOM      5  C   UNL     1     -12.262  13.777  70.075  0.00  0.00    +0.117 A 
ATOM      6  N   UNL     1     -11.998  14.894  69.334  0.00  0.00    -0.253 N 
ATOM      7  C   UNL     1     -11.631  15.882  70.193  0.00  0.00    +0.355 A 
ATOM      8  O   UNL     1     -10.964  16.839  69.679  0.00  0.00    -0.244 OA
ATOM      9  N   UNL     1     -12.257  16.009  71.393  0.00  0.00    -0.151 NA
ENDROOT
BRANCH   6  10
ATOM     10  C1* UNL     1     -10.846  14.396  68.347  0.00  0.00    +0.211 C 
ATOM     11  O4* UNL     1     -11.268  15.281  67.179  0.00  0.00    -0.332 OA
ATOM     12  C4* UNL     1     -10.816  14.229  66.191  0.00  0.00    +0.180 C 
ATOM     13  C3* UNL     1     -12.374  13.577  66.513  0.00  0.00    +0.186 C 
ATOM     14  O3* UNL     1     -12.061  12.259  65.835  0.00  0.00    -0.220 OA
ATOM     15  C2* UNL     1     -11.735  13.066  67.909  0.00  0.00    +0.089 C 
BRANCH  12  16
ATOM     16  C5* UNL     1     -11.350  15.074  64.888  0.00  0.00    +0.214 C 
ATOM     17  O5* UNL     1     -10.451  16.149  65.020  0.00  0.00    -0.218 OA
ENDBRANCH  12  16
ENDBRANCH   6  10
TORSDOF 2
ENDMDL
MODEL 3
REMARK VINA RESULT:      -5.9      2.982      5.187
REMARK  Name = 
REMARK  2 active torsions:
REMARK  status: ('A' for Active; 'I' for Inactive)
REMARK    1  A    between atoms: N_6  and  C1*_7
REMARK    2  A    between atoms: C4*_11  and  C5*_12
REMARK                            x       y       z     vdW  Elec       q    Type
REMARK                         _______ _______ _______ _____ _____    ______ ____
ROOT
ATOM      1  O   UNL     1     -11.605  16.619  64.141  0.00  0.00    -0.263 OA
ATOM      2  C   UNL     1     -11.538  15.539  64.284  0.00  0.00    +0.312 A 
ATOM      3  C   UNL     1     -10.505  15.160  65.093  0.00  0.00    +0.215 A 
ATOM      4  F   UNL     1      -9.379  15.868  65.287  0.00  0.00    -0.197 F 
ATOM      5  C   UNL     1     -10.633  14.002  65.788  0.00  0.00    +0.117 A 
ATOM      6  N   UNL     1     -11.765  13.246  65.891  0.00  0.00    -0.253 N 
ATOM      7  C   UNL     1     -12.480  13.413  64.747  0.00  0.00    +0.355 A 
ATOM      8  O   UNL     1     -13.326  12.496  64.487  0.00  0.00    -0.244 OA
ATOM      9  N   UNL     1     -12.545  14.636  64.156  0.00  0.00    -0.151 NA
ENDROOT
BRANCH   6  10
ATOM     10  C1* UNL     1     -11.185  11.775  66.116  0.00  0.00    +0.211 C 
ATOM     11  O4* UNL     1     -11.961  11.512  67.402  0.00  0.00    -0.332 OA
ATOM     12  C4* UNL     1     -10.827  10.668  67.939  0.00  0.00    +0.180 C 
ATOM     13  C3* UNL     1     -10.201  12.201  68.401  0.00  0.00    +0.186 C 
ATOM     14  O3* UNL     1      -8.829  11.644  68.721  0.00  0.00    -0.220 OA
ATOM     15  C2* UNL     1      -9.819  12.376  66.838  0.00  0.00    +0.089 C 
BRANCH  12  16
ATOM     16  C5* UNL     1     -11.551  10.435  69.395  0.00  0.00    +0.214 C 
ATOM     17  O5* UNL     1     -11.025   9.149  69.626  0.00  0.00    -0.218 OA
ENDBRANCH  12  16
ENDBRANCH   6  10
TORSDOF 2
ENDMDL
MODEL 4
REMARK VINA RESULT:      -5.8      3.130      4.479
REMARK  Name = 
REMARK  2 active torsions:
REMARK  status: ('A' for Active; 'I' for Inactive)
REMARK    1  A    between atoms: N_6  and  C1*_7
REMARK    2  A    between atoms: C4*_11  and  C5*_12
REMARK                            x       y       z     vdW  Elec       q    Type
REMARK                         _______ _______ _______ _____ _____    ______ ____
ROOT
ATOM      1  O   UNL     1     -12.558  13.387  63.428  0.00  0.00    -0.263 OA
ATOM      2  C   UNL     1     -12.062  13.273  64.394  0.00  0.00    +0.312 A 
ATOM      3  C   UNL     1     -11.602  14.451  64.910  0.00  0.00    +0.215 A 
ATOM      4  F   UNL     1     -11.276  15.535  64.186  0.00  0.00    -0.197 F 
ATOM      5  C   UNL     1     -11.497  14.557  66.259  0.00  0.00    +0.117 A 
ATOM      6  N   UNL     1     -11.963  13.659  67.175  0.00  0.00    -0.253 N 
ATOM      7  C   UNL     1     -11.921  12.426  66.604  0.00  0.00    +0.355 A 
ATOM      8  O   UNL     1     -11.917  11.443  67.415  0.00  0.00    -0.244 OA
ATOM      9  N   UNL     1     -12.246  12.271  65.292  0.00  0.00    -0.151 NA
ENDROOT
BRANCH   6  10
ATOM     10  C1* UNL     1     -10.967  13.865  68.407  0.00  0.00    +0.211 C 
ATOM     11  O4* UNL     1     -12.066  14.081  69.442  0.00  0.00    -0.332 OA
ATOM     12  C4* UNL     1     -11.184  15.042  70.208  0.00  0.00    +0.180 C 
ATOM     13  C3* UNL     1     -11.784  16.165  69.053  0.00  0.00    +0.186 C 
ATOM     14  O3* UNL     1     -10.766  17.224  69.421  0.00  0.00    -0.220 OA
ATOM     15  C2* UNL     1     -10.752  15.464  68.021  0.00  0.00    +0.089 C 
BRANCH  12  16
ATOM     16  C5* UNL     1     -12.356  15.413  71.297  0.00  0.00    +0.214 C 
ATOM     17  O5* UNL     1     -11.561  15.244  72.447  0.00  0.00    -0.218 OA
ENDBRANCH  12  16
ENDBRANCH   6  10
TORSDOF 2
ENDMDL
MODEL 5
REMARK VINA RESULT:      -5.7      5.535      7.091
REMARK  Name = 
REMARK  2 active torsions:
REMARK  status: ('A' for Active; 'I' for Inactive)
REMARK    1  A    between atoms: N_6  and  C1*_7
REMARK    2  A    between atoms: C4*_11  and  C5*_12
REMARK                            x       y       z     vdW  Elec       q    Type
REMARK                         _______ _______ _______ _____ _____    ______ ____
ROOT
ATOM      1  O   UNL     1     -12.335  15.856  74.998  0.00  0.00    -0.263 OA
ATOM      2  C   UNL     1     -12.656  15.583  73.992  0.00  0.00    +0.312 A 
ATOM      3  C   UNL     1     -12.104  16.361  73.015  0.00  0.00    +0.215 A 
ATOM      4  F   UNL     1     -11.663  17.619  73.189  0.00  0.00    -0.197 F 
ATOM      5  C   UNL     1     -11.949  15.820  71.780  0.00  0.00    +0.117 A 
ATOM      6  N   UNL     1     -12.140  14.510  71.446  0.00  0.00    -0.253 N 
ATOM      7  C   UNL     1     -13.092  14.006  72.275  0.00  0.00    +0.355 A 
ATOM      8  O   UNL     1     -13.687  12.959  71.858  0.00  0.00    -0.244 OA
ATOM      9  N   UNL     1     -13.120  14.373  73.584  0.00  0.00    -0.151 NA
ENDROOT
BRANCH   6  10
ATOM     10  C1* UNL     1     -12.561  14.597  69.908  0.00  0.00    +0.211 C 
ATOM     11  O4* UNL     1     -11.938  13.262  69.515  0.00  0.00    -0.332 OA
ATOM     12  C4* UNL     1     -11.605  13.798  68.141  0.00  0.00    +0.180 C 
ATOM     13  C3* UNL     1     -10.228  14.420  68.961  0.00  0.00    +0.186 C 
ATOM     14  O3* UNL     1      -9.837  15.322  67.809  0.00  0.00    -0.220 OA
ATOM     15  C2* UNL     1     -11.240  15.535  69.554  0.00  0.00    +0.089 C 
BRANCH  12  16
ATOM     16  C5* UNL     1     -10.816  12.432  67.684  0.00  0.00    +0.214 C 
ATOM     17  O5* UNL     1     -11.968  11.648  67.480  0.00  0.00    -0.218 OA
ENDBRANCH  12  16
ENDBRANCH   6  10
TORSDOF 2
ENDMDL
MODEL 6
REMARK VINA RESULT:      -5.6      2.707      5.059
REMARK  Name = 
REMARK  2 active torsions:
REMARK  status: ('A' for Active; 'I' for Inactive)
REMARK    1  A    between atoms: N_6  and  C1*_7
REMARK    2  A    between atoms: C4*_11  and  C5*_12
REMARK                            x       y       z     vdW  Elec       q    Type
REMARK                         _______ _______ _______ _____ _____    ______ ____
ROOT
ATOM      1  O   UNL     1      -9.811  19.726  67.499  0.00  0.00    -0.263 OA
ATOM      2  C   UNL     1      -9.743  18.835  66.872  0.00  0.00    +0.312 A 
ATOM      3  C   UNL     1      -9.158  17.772  67.498  0.00  0.00    +0.215 A 
ATOM      4  F   UNL     1      -8.287  17.863  68.518  0.00  0.00    -0.197 F 
ATOM      5  C   UNL     1      -9.505  16.525  67.094  0.00  0.00    +0.117 A 
ATOM      6  N   UNL     1     -10.512  16.211  66.227  0.00  0.00    -0.253 N 
ATOM      7  C   UNL     1     -10.650  17.250  65.360  0.00  0.00    +0.355 A 
ATOM      8  O   UNL     1     -11.229  16.974  64.258  0.00  0.00    -0.244 OA
ATOM      9  N   UNL     1     -10.525  18.529  65.804  0.00  0.00    -0.151 NA
ENDROOT
BRANCH   6  10
ATOM     10  C1* UNL     1      -9.998  14.849  65.570  0.00  0.00    +0.211 C 
ATOM     11  O4* UNL     1     -11.351  14.454  64.986  0.00  0.00    -0.332 OA
ATOM     12  C4* UNL     1     -11.037  12.990  65.194  0.00  0.00    +0.180 C 
ATOM     13  C3* UNL     1     -11.602  13.323  66.783  0.00  0.00    +0.186 C 
ATOM     14  O3* UNL     1     -11.085  12.012  67.340  0.00  0.00    -0.220 OA
ATOM     15  C2* UNL     1     -10.169  14.040  67.008  0.00  0.00    +0.089 C 
BRANCH  12  16
ATOM     16  C5* UNL     1     -12.517  12.493  64.685  0.00  0.00    +0.214 C 
ATOM     17  O5* UNL     1     -12.543  13.263  63.506  0.00  0.00    -0.218 OA
ENDBRANCH  12  16
ENDBRANCH   6  10
TORSDOF 2
ENDMDL
MODEL 7
REMARK VINA RESULT:      -5.6      3.361      4.962
REMARK  Name = 
REMARK  2 active torsions:
REMARK  status: ('A' for Active; 'I' for Inactive)
REMARK    1  A    between atoms: N_6  and  C1*_7
REMARK    2  A    between atoms: C4*_11  and  C5*_12
REMARK                            x       y       z     vdW  Elec       q    Type
REMARK                         _______ _______ _______ _____ _____    ______ ____
ROOT
ATOM      1  O   UNL     1     -12.593  10.779  70.942  0.00  0.00    -0.263 OA
ATOM      2  C   UNL     1     -12.050  11.483  70.310  0.00  0.00    +0.312 A 
ATOM      3  C   UNL     1     -11.588  10.928  69.151  0.00  0.00    +0.215 A 
ATOM      4  F   UNL     1     -11.317   9.624  68.976  0.00  0.00    -0.197 F 
ATOM      5  C   UNL     1     -11.423  11.741  68.077  0.00  0.00    +0.117 A 
ATOM      6  N   UNL     1     -11.828  13.042  67.982  0.00  0.00    -0.253 N 
ATOM      7  C   UNL     1     -11.791  13.579  69.231  0.00  0.00    +0.355 A 
ATOM      8  O   UNL     1     -11.730  14.851  69.282  0.00  0.00    -0.244 OA
ATOM      9  N   UNL     1     -12.173  12.836  70.304  0.00  0.00    -0.151 NA
ENDROOT
BRANCH   6  10
ATOM     10  C1* UNL     1     -10.780  13.662  66.950  0.00  0.00    +0.211 C 
ATOM     11  O4* UNL     1     -11.758  14.661  66.339  0.00  0.00    -0.332 OA
ATOM     12  C4* UNL     1     -11.081  14.532  64.993  0.00  0.00    +0.180 C 
ATOM     13  C3* UNL     1     -12.103  13.156  64.860  0.00  0.00    +0.186 C 
ATOM     14  O3* UNL     1     -11.374  12.620  63.646  0.00  0.00    -0.220 OA
ATOM     15  C2* UNL     1     -11.058  12.438  65.865  0.00  0.00    +0.089 C 
BRANCH  12  16
ATOM     16  C5* UNL     1     -12.164  15.510  64.238  0.00  0.00    +0.214 C 
ATOM     17  O5* UNL     1     -11.354  16.662  64.228  0.00  0.00    -0.218 OA
ENDBRANCH  12  16
ENDBRANCH   6  10
TORSDOF 2
ENDMDL
MODEL 8
REMARK VINA RESULT:      -5.4      2.215      2.567
REMARK  Name = 
REMARK  2 active torsions:
REMARK  status: ('A' for Active; 'I' for Inactive)
REMARK    1  A    between atoms: N_6  and  C1*_7
REMARK    2  A    between atoms: C4*_11  and  C5*_12
REMARK                            x       y       z     vdW  Elec       q    Type
REMARK                         _______ _______ _______ _____ _____    ______ ____
ROOT
ATOM      1  O   UNL     1     -10.428  10.717  63.193  0.00  0.00    -0.263 OA
ATOM      2  C   UNL     1     -10.849  11.486  63.842  0.00  0.00    +0.312 A 
ATOM      3  C   UNL     1     -10.183  11.624  65.026  0.00  0.00    +0.215 A 
ATOM      4  F   UNL     1      -9.461  10.659  65.621  0.00  0.00    -0.197 F 
ATOM      5  C   UNL     1     -10.214  12.835  65.637  0.00  0.00    +0.117 A 
ATOM      6  N   UNL     1     -10.711  13.991  65.108  0.00  0.00    -0.253 N 
ATOM      7  C   UNL     1     -11.713  13.656  64.252  0.00  0.00    +0.355 A 
ATOM      8  O   UNL     1     -12.548  14.584  63.992  0.00  0.00    -0.244 OA
ATOM      9  N   UNL     1     -11.594  12.557  63.461  0.00  0.00    -0.151 NA
ENDROOT
BRANCH   6  10
ATOM     10  C1* UNL     1     -11.175  14.800  66.405  0.00  0.00    +0.211 C 
ATOM     11  O4* UNL     1     -10.874  16.179  65.826  0.00  0.00    -0.332 OA
ATOM     12  C4* UNL     1     -10.497  16.695  67.197  0.00  0.00    +0.180 C 
ATOM     13  C3* UNL     1      -8.982  15.985  66.802  0.00  0.00    +0.186 C 
ATOM     14  O3* UNL     1      -8.458  16.098  68.219  0.00  0.00    -0.220 OA
ATOM     15  C2* UNL     1      -9.700  14.572  67.128  0.00  0.00    +0.089 C 
BRANCH  12  16
ATOM     16  C5* UNL     1     -10.045  18.170  66.631  0.00  0.00    +0.214 C 
ATOM     17  O5* UNL     1     -10.937  18.920  67.422  0.00  0.00    -0.218 OA
ENDBRANCH  12  16
ENDBRANCH   6  10
TORSDOF 2
ENDMDL
MODEL 9
REMARK VINA RESULT:      -5.3      3.119      5.572
REMARK  Name = 
REMARK  2 active torsions:
REMARK  status: ('A' for Active; 'I' for Inactive)
REMARK    1  A    between atoms: N_6  and  C1*_7
REMARK    2  A    between atoms: C4*_11  and  C5*_12
REMARK                            x       y       z     vdW  Elec       q    Type
REMARK                         _______ _______ _______ _____ _____    ______ ____
ROOT
ATOM      1  O   UNL     1      -9.605  18.879  68.364  0.00  0.00    -0.263 OA
ATOM      2  C   UNL     1     -10.297  18.067  68.132  0.00  0.00    +0.312 A 
ATOM      3  C   UNL     1     -10.202  17.622  66.845  0.00  0.00    +0.215 A 
ATOM      4  F   UNL     1      -9.755  18.353  65.809  0.00  0.00    -0.197 F 
ATOM      5  C   UNL     1     -10.545  16.335  66.589  0.00  0.00    +0.117 A 
ATOM      6  N   UNL     1     -10.825  15.376  67.520  0.00  0.00    -0.253 N 
ATOM      7  C   UNL     1     -11.353  15.998  68.608  0.00  0.00    +0.355 A 
ATOM      8  O   UNL     1     -12.042  15.258  69.384  0.00  0.00    -0.244 OA
ATOM      9  N   UNL     1     -10.860  17.199  69.013  0.00  0.00    -0.151 NA
ENDROOT
BRANCH   6  10
ATOM     10  C1* UNL     1     -11.831  14.412  66.740  0.00  0.00    +0.211 C 
ATOM     11  O4* UNL     1     -11.346  13.131  67.410  0.00  0.00    -0.332 OA
ATOM     12  C4* UNL     1     -11.621  12.343  66.148  0.00  0.00    +0.180 C 
ATOM     13  C3* UNL     1     -10.066  12.931  65.709  0.00  0.00    +0.186 C 
ATOM     14  O3* UNL     1     -10.218  12.512  64.261  0.00  0.00    -0.220 OA
ATOM     15  C2* UNL     1     -10.815  14.338  65.431  0.00  0.00    +0.089 C 
BRANCH  12  16
ATOM     16  C5* UNL     1     -11.009  10.947  66.762  0.00  0.00    +0.214 C 
ATOM     17  O5* UNL     1     -11.899  10.851  67.849  0.00  0.00    -0.218 OA
ENDBRANCH  12  16
ENDBRANCH   6  10
TORSDOF 2
ENDMDL
