MODEL 1
REMARK VINA RESULT:      -7.3      0.000      0.000
REMARK  Name = 
REMARK  2 active torsions:
REMARK  status: ('A' for Active; 'I' for Inactive)
REMARK    1  A    between atoms: C_4  and  C_5
REMARK    2  A    between atoms: N_7  and  C_8
REMARK                            x       y       z     vdW  Elec       q    Type
REMARK                         _______ _______ _______ _____ _____    ______ ____
ROOT
ATOM      1  C   UNL     1     -11.136  14.906  68.217  0.00  0.00    +0.284 C 
ATOM      2  N   UNL     1      -9.984  15.534  68.740  0.00  0.00    -0.202 NA
ATOM      3  O   UNL     1     -11.225  14.822  66.960  0.00  0.00    -0.267 OA
ENDROOT
BRANCH   1  11
ATOM      4  C   UNL     1     -11.869  10.808  70.582  0.00  0.00    +0.154 C 
ATOM      5  N   UNL     1     -12.131  12.127  70.225  0.00  0.00    -0.249 N 
ATOM      6  C   UNL     1     -12.668  13.138  70.935  0.00  0.00    +0.080 A 
ATOM      7  C   UNL     1     -12.597  14.322  70.211  0.00  0.00    +0.041 A 
ATOM      8  C   UNL     1     -12.765  15.552  70.836  0.00  0.00    +0.003 A 
ATOM      9  C   UNL     1     -13.412  15.517  72.060  0.00  0.00    +0.000 A 
ATOM     10  C   UNL     1     -13.378  14.365  72.821  0.00  0.00    +0.002 A 
ATOM     11  C   UNL     1     -11.860  13.976  69.087  0.00  0.00    +0.157 A 
ATOM     12  C   UNL     1     -13.118  13.137  72.233  0.00  0.00    +0.019 A 
ATOM     13  N   UNL     1     -11.633  12.655  69.107  0.00  0.00    -0.165 NA
ENDBRANCH   1  11
BRANCH   2  14
ATOM     14  C   UNL     1      -9.481  16.666  68.165  0.00  0.00    +0.098 C 
ATOM     15  C   UNL     1      -8.262  16.510  67.224  0.00  0.00    +0.038 C 
ATOM     16  C   UNL     1      -8.548  18.075  66.877  0.00  0.00    +0.059 C 
ATOM     17  N   UNL     1      -8.102  18.432  68.354  0.00  0.00    -0.274 NA
ATOM     18  C   UNL     1      -9.428  19.234  68.494  0.00  0.00    +0.059 C 
ATOM     19  C   UNL     1      -9.262  19.994  67.042  0.00  0.00    +0.016 C 
ATOM     20  C   UNL     1      -7.863  20.043  66.537  0.00  0.00    +0.003 C 
ATOM     21  C   UNL     1      -7.000  19.043  68.634  0.00  0.00    +0.090 C 
ATOM     22  C   UNL     1      -7.158  18.671  66.298  0.00  0.00    +0.016 C 
ATOM     23  C   UNL     1     -10.301  17.904  68.020  0.00  0.00    +0.038 C 
ENDBRANCH   2  14
TORSDOF 2
ENDMDL
MODEL 2
REMARK VINA RESULT:      -7.1      3.396      5.433
REMARK  Name = 
REMARK  2 active torsions:
REMARK  status: ('A' for Active; 'I' for Inactive)
REMARK    1  A    between atoms: C_4  and  C_5
REMARK    2  A    between atoms: N_7  and  C_8
REMARK                            x       y       z     vdW  Elec       q    Type
REMARK                         _______ _______ _______ _____ _____    ______ ____
ROOT
ATOM      1  C   UNL     1     -12.030  11.471  70.139  0.00  0.00    +0.284 C 
ATOM      2  N   UNL     1     -11.992  11.313  68.736  0.00  0.00    -0.202 NA
ATOM      3  O   UNL     1     -12.286  12.626  70.581  0.00  0.00    -0.267 OA
ENDROOT
BRANCH   1  11
ATOM      4  C   UNL     1     -14.525   7.690  71.691  0.00  0.00    +0.154 C 
ATOM      5  N   UNL     1     -13.406   8.511  71.585  0.00  0.00    -0.249 N 
ATOM      6  C   UNL     1     -12.092   8.217  71.644  0.00  0.00    +0.080 A 
ATOM      7  C   UNL     1     -11.336   9.340  71.334  0.00  0.00    +0.041 A 
ATOM      8  C   UNL     1      -9.993   9.225  70.995  0.00  0.00    +0.003 A 
ATOM      9  C   UNL     1      -9.374   8.052  71.394  0.00  0.00    +0.000 A 
ATOM     10  C   UNL     1     -10.128   6.911  71.590  0.00  0.00    +0.002 A 
ATOM     11  C   UNL     1     -12.284  10.280  70.953  0.00  0.00    +0.157 A 
ATOM     12  C   UNL     1     -11.490   6.997  71.835  0.00  0.00    +0.019 A 
ATOM     13  N   UNL     1     -13.506   9.768  71.151  0.00  0.00    -0.165 NA
ENDBRANCH   1  11
BRANCH   2  14
ATOM     14  C   UNL     1     -11.403  12.253  67.940  0.00  0.00    +0.098 C 
ATOM     15  C   UNL     1      -9.935  12.635  68.251  0.00  0.00    +0.038 C 
ATOM     16  C   UNL     1     -10.028  13.442  66.839  0.00  0.00    +0.059 C 
ATOM     17  N   UNL     1     -11.049  14.435  67.532  0.00  0.00    -0.274 NA
ATOM     18  C   UNL     1     -12.007  14.190  66.331  0.00  0.00    +0.059 C 
ATOM     19  C   UNL     1     -10.829  14.380  65.196  0.00  0.00    +0.016 C 
ATOM     20  C   UNL     1      -9.650  15.158  65.668  0.00  0.00    +0.003 C 
ATOM     21  C   UNL     1     -10.760  15.658  67.827  0.00  0.00    +0.090 C 
ATOM     22  C   UNL     1      -8.871  14.575  66.889  0.00  0.00    +0.016 C 
ATOM     23  C   UNL     1     -11.909  12.550  66.568  0.00  0.00    +0.038 C 
ENDBRANCH   2  14
TORSDOF 2
ENDMDL
MODEL 3
REMARK VINA RESULT:      -6.9      2.605      3.766
REMARK  Name = 
REMARK  2 active torsions:
REMARK  status: ('A' for Active; 'I' for Inactive)
REMARK    1  A    between atoms: C_4  and  C_5
REMARK    2  A    between atoms: N_7  and  C_8
REMARK                            x       y       z     vdW  Elec       q    Type
REMARK                         _______ _______ _______ _____ _____    ______ ____
ROOT
ATOM      1  C   UNL     1     -10.113  16.027  65.763  0.00  0.00    +0.284 C 
ATOM      2  N   UNL     1      -8.753  16.015  66.142  0.00  0.00    -0.202 NA
ATOM      3  O   UNL     1     -10.520  17.029  65.111  0.00  0.00    -0.267 OA
ENDROOT
BRANCH   1  11
ATOM      4  C   UNL     1     -10.975  11.628  64.081  0.00  0.00    +0.154 C 
ATOM      5  N   UNL     1     -11.130  12.703  64.952  0.00  0.00    -0.249 N 
ATOM      6  C   UNL     1     -11.437  12.733  66.264  0.00  0.00    +0.080 A 
ATOM      7  C   UNL     1     -11.331  14.030  66.751  0.00  0.00    +0.041 A 
ATOM      8  C   UNL     1     -11.262  14.276  68.117  0.00  0.00    +0.003 A 
ATOM      9  C   UNL     1     -11.726  13.257  68.932  0.00  0.00    +0.000 A 
ATOM     10  C   UNL     1     -11.719  11.954  68.474  0.00  0.00    +0.002 A 
ATOM     11  C   UNL     1     -10.810  14.741  65.679  0.00  0.00    +0.157 A 
ATOM     12  C   UNL     1     -11.692  11.684  67.113  0.00  0.00    +0.019 A 
ATOM     13  N   UNL     1     -10.738  13.931  64.614  0.00  0.00    -0.165 NA
ENDBRANCH   1  11
BRANCH   2  14
ATOM     14  C   UNL     1      -8.144  17.147  66.606  0.00  0.00    +0.098 C 
ATOM     15  C   UNL     1      -8.163  17.394  68.134  0.00  0.00    +0.038 C 
ATOM     16  C   UNL     1      -7.126  18.597  67.777  0.00  0.00    +0.059 C 
ATOM     17  N   UNL     1      -8.320  19.343  67.052  0.00  0.00    -0.274 NA
ATOM     18  C   UNL     1      -7.392  19.494  65.813  0.00  0.00    +0.059 C 
ATOM     19  C   UNL     1      -6.099  20.008  66.694  0.00  0.00    +0.016 C 
ATOM     20  C   UNL     1      -6.455  20.586  68.019  0.00  0.00    +0.003 C 
ATOM     21  C   UNL     1      -8.876  20.411  67.517  0.00  0.00    +0.090 C 
ATOM     22  C   UNL     1      -7.205  19.643  69.012  0.00  0.00    +0.016 C 
ATOM     23  C   UNL     1      -7.101  17.859  65.812  0.00  0.00    +0.038 C 
ENDBRANCH   2  14
TORSDOF 2
ENDMDL
MODEL 4
REMARK VINA RESULT:      -6.8      1.750      2.740
REMARK  Name = 
REMARK  2 active torsions:
REMARK  status: ('A' for Active; 'I' for Inactive)
REMARK    1  A    between atoms: C_4  and  C_5
REMARK    2  A    between atoms: N_7  and  C_8
REMARK                            x       y       z     vdW  Elec       q    Type
REMARK                         _______ _______ _______ _____ _____    ______ ____
ROOT
ATOM      1  C   UNL     1     -10.404  17.407  67.902  0.00  0.00    +0.284 C 
ATOM      2  N   UNL     1      -9.130  17.288  67.304  0.00  0.00    -0.202 NA
ATOM      3  O   UNL     1     -10.976  18.530  67.819  0.00  0.00    -0.267 OA
ENDROOT
BRANCH   1  11
ATOM      4  C   UNL     1     -11.568  12.812  67.226  0.00  0.00    +0.154 C 
ATOM      5  N   UNL     1     -11.638  14.057  67.842  0.00  0.00    -0.249 N 
ATOM      6  C   UNL     1     -11.915  14.391  69.119  0.00  0.00    +0.080 A 
ATOM      7  C   UNL     1     -11.721  15.754  69.310  0.00  0.00    +0.041 A 
ATOM      8  C   UNL     1     -11.608  16.286  70.589  0.00  0.00    +0.003 A 
ATOM      9  C   UNL     1     -12.116  15.500  71.610  0.00  0.00    +0.000 A 
ATOM     10  C   UNL     1     -12.198  14.131  71.447  0.00  0.00    +0.002 A 
ATOM     11  C   UNL     1     -11.179  16.180  68.106  0.00  0.00    +0.157 A 
ATOM     12  C   UNL     1     -12.216  13.570  70.178  0.00  0.00    +0.019 A 
ATOM     13  N   UNL     1     -11.180  15.156  67.242  0.00  0.00    -0.165 NA
ENDBRANCH   1  11
BRANCH   2  14
ATOM     14  C   UNL     1      -8.206  18.287  67.420  0.00  0.00    +0.098 C 
ATOM     15  C   UNL     1      -8.011  19.226  66.205  0.00  0.00    +0.038 C 
ATOM     16  C   UNL     1      -7.098  20.091  67.240  0.00  0.00    +0.059 C 
ATOM     17  N   UNL     1      -6.052  18.903  67.231  0.00  0.00    -0.274 NA
ATOM     18  C   UNL     1      -6.102  18.929  68.786  0.00  0.00    +0.059 C 
ATOM     19  C   UNL     1      -5.960  20.567  68.883  0.00  0.00    +0.016 C 
ATOM     20  C   UNL     1      -5.354  21.198  67.678  0.00  0.00    +0.003 C 
ATOM     21  C   UNL     1      -4.893  18.981  66.669  0.00  0.00    +0.090 C 
ATOM     22  C   UNL     1      -6.107  20.989  66.326  0.00  0.00    +0.016 C 
ATOM     23  C   UNL     1      -7.756  18.790  68.751  0.00  0.00    +0.038 C 
ENDBRANCH   2  14
TORSDOF 2
ENDMDL
MODEL 5
REMARK VINA RESULT:      -6.8      3.396      8.663
REMARK  Name = 
REMARK  2 active torsions:
REMARK  status: ('A' for Active; 'I' for Inactive)
REMARK    1  A    between atoms: C_4  and  C_5
REMARK    2  A    between atoms: N_7  and  C_8
REMARK                            x       y       z     vdW  Elec       q    Type
REMARK                         _______ _______ _______ _____ _____    ______ ____
ROOT
ATOM      1  C   UNL     1     -11.770  11.017  70.027  0.00  0.00    +0.284 C 
ATOM      2  N   UNL     1     -11.617  10.350  71.263  0.00  0.00    -0.202 NA
ATOM      3  O   UNL     1     -12.363  10.391  69.105  0.00  0.00    -0.267 OA
ENDROOT
BRANCH   1  11
ATOM      4  C   UNL     1     -11.574  15.386  68.079  0.00  0.00    +0.154 C 
ATOM      5  N   UNL     1     -11.714  14.468  69.115  0.00  0.00    -0.249 N 
ATOM      6  C   UNL     1     -12.427  14.535  70.257  0.00  0.00    +0.080 A 
ATOM      7  C   UNL     1     -12.385  13.314  70.919  0.00  0.00    +0.041 A 
ATOM      8  C   UNL     1     -13.297  13.016  71.925  0.00  0.00    +0.003 A 
ATOM      9  C   UNL     1     -13.927  14.106  72.503  0.00  0.00    +0.000 A 
ATOM     10  C   UNL     1     -14.061  15.280  71.787  0.00  0.00    +0.002 A 
ATOM     11  C   UNL     1     -11.719  12.481  70.031  0.00  0.00    +0.157 A 
ATOM     12  C   UNL     1     -13.222  15.556  70.718  0.00  0.00    +0.019 A 
ATOM     13  N   UNL     1     -11.299  13.208  68.986  0.00  0.00    -0.165 NA
ENDBRANCH   1  11
BRANCH   2  14
ATOM     14  C   UNL     1     -11.276   9.029  71.308  0.00  0.00    +0.098 C 
ATOM     15  C   UNL     1      -9.881   8.630  70.768  0.00  0.00    +0.038 C 
ATOM     16  C   UNL     1     -10.237   7.179  71.415  0.00  0.00    +0.059 C 
ATOM     17  N   UNL     1     -11.358   7.017  70.308  0.00  0.00    -0.274 NA
ATOM     18  C   UNL     1     -12.353   6.679  71.455  0.00  0.00    +0.059 C 
ATOM     19  C   UNL     1     -11.329   5.624  72.196  0.00  0.00    +0.016 C 
ATOM     20  C   UNL     1     -10.274   5.070  71.303  0.00  0.00    +0.003 C 
ATOM     21  C   UNL     1     -11.271   6.184  69.326  0.00  0.00    +0.090 C 
ATOM     22  C   UNL     1      -9.303   6.100  70.646  0.00  0.00    +0.016 C 
ATOM     23  C   UNL     1     -11.941   8.078  72.247  0.00  0.00    +0.038 C 
ENDBRANCH   2  14
TORSDOF 2
ENDMDL
MODEL 6
REMARK VINA RESULT:      -6.7      2.514      3.437
REMARK  Name = 
REMARK  2 active torsions:
REMARK  status: ('A' for Active; 'I' for Inactive)
REMARK    1  A    between atoms: C_4  and  C_5
REMARK    2  A    between atoms: N_7  and  C_8
REMARK                            x       y       z     vdW  Elec       q    Type
REMARK                         _______ _______ _______ _____ _____    ______ ____
ROOT
ATOM      1  C   UNL     1     -11.398  13.684  66.826  0.00  0.00    +0.284 C 
ATOM      2  N   UNL     1     -10.198  14.391  66.591  0.00  0.00    -0.202 NA
ATOM      3  O   UNL     1     -12.476  14.253  66.494  0.00  0.00    -0.267 OA
ENDROOT
BRANCH   1  11
ATOM      4  C   UNL     1      -9.674   9.317  65.887  0.00  0.00    +0.154 C 
ATOM      5  N   UNL     1     -10.460  10.250  66.556  0.00  0.00    -0.249 N 
ATOM      6  C   UNL     1     -10.894  10.279  67.832  0.00  0.00    +0.080 A 
ATOM      7  C   UNL     1     -11.528  11.488  68.095  0.00  0.00    +0.041 A 
ATOM      8  C   UNL     1     -11.759  11.903  69.400  0.00  0.00    +0.003 A 
ATOM      9  C   UNL     1     -11.729  10.905  70.360  0.00  0.00    +0.000 A 
ATOM     10  C   UNL     1     -11.000   9.754  70.130  0.00  0.00    +0.002 A 
ATOM     11  C   UNL     1     -11.320  12.225  66.937  0.00  0.00    +0.157 A 
ATOM     12  C   UNL     1     -10.675   9.370  68.837  0.00  0.00    +0.019 A 
ATOM     13  N   UNL     1     -10.717  11.447  66.029  0.00  0.00    -0.165 NA
ENDBRANCH   1  11
BRANCH   2  14
ATOM     14  C   UNL     1     -10.111  15.729  66.847  0.00  0.00    +0.098 C 
ATOM     15  C   UNL     1     -10.497  16.703  65.707  0.00  0.00    +0.038 C 
ATOM     16  C   UNL     1     -10.375  17.837  66.869  0.00  0.00    +0.059 C 
ATOM     17  N   UNL     1      -8.815  17.566  66.900  0.00  0.00    -0.274 NA
ATOM     18  C   UNL     1      -8.937  17.398  68.442  0.00  0.00    +0.059 C 
ATOM     19  C   UNL     1      -9.859  18.749  68.636  0.00  0.00    +0.016 C 
ATOM     20  C   UNL     1      -9.732  19.738  67.530  0.00  0.00    +0.003 C 
ATOM     21  C   UNL     1      -7.939  18.404  66.457  0.00  0.00    +0.090 C 
ATOM     22  C   UNL     1     -10.129  19.244  66.104  0.00  0.00    +0.016 C 
ATOM     23  C   UNL     1     -10.134  16.265  68.240  0.00  0.00    +0.038 C 
ENDBRANCH   2  14
TORSDOF 2
ENDMDL
MODEL 7
REMARK VINA RESULT:      -6.7      2.651      3.817
REMARK  Name = 
REMARK  2 active torsions:
REMARK  status: ('A' for Active; 'I' for Inactive)
REMARK    1  A    between atoms: C_4  and  C_5
REMARK    2  A    between atoms: N_7  and  C_8
REMARK                            x       y       z     vdW  Elec       q    Type
REMARK                         _______ _______ _______ _____ _____    ______ ____
ROOT
ATOM      1  C   UNL     1      -9.832  16.980  66.465  0.00  0.00    +0.284 C 
ATOM      2  N   UNL     1      -8.577  17.193  65.854  0.00  0.00    -0.202 NA
ATOM      3  O   UNL     1     -10.454  18.001  66.872  0.00  0.00    -0.267 OA
ENDROOT
BRANCH   1  11
ATOM      4  C   UNL     1     -10.615  12.866  64.146  0.00  0.00    +0.154 C 
ATOM      5  N   UNL     1     -10.835  13.826  65.129  0.00  0.00    -0.249 N 
ATOM      6  C   UNL     1     -11.277  13.700  66.396  0.00  0.00    +0.080 A 
ATOM      7  C   UNL     1     -11.193  14.920  67.056  0.00  0.00    +0.041 A 
ATOM      8  C   UNL     1     -11.262  14.987  68.442  0.00  0.00    +0.003 A 
ATOM      9  C   UNL     1     -11.833  13.891  69.067  0.00  0.00    +0.000 A 
ATOM     10  C   UNL     1     -11.808  12.658  68.445  0.00  0.00    +0.002 A 
ATOM     11  C   UNL     1     -10.545  15.742  66.144  0.00  0.00    +0.157 A 
ATOM     12  C   UNL     1     -11.645  12.561  67.071  0.00  0.00    +0.019 A 
ATOM     13  N   UNL     1     -10.382  15.072  64.996  0.00  0.00    -0.165 NA
ENDBRANCH   1  11
BRANCH   2  14
ATOM     14  C   UNL     1      -7.692  18.099  66.366  0.00  0.00    +0.098 C 
ATOM     15  C   UNL     1      -6.392  17.550  67.001  0.00  0.00    +0.038 C 
ATOM     16  C   UNL     1      -5.952  19.118  67.035  0.00  0.00    +0.059 C 
ATOM     17  N   UNL     1      -7.076  19.357  68.125  0.00  0.00    -0.274 NA
ATOM     18  C   UNL     1      -7.590  20.533  67.246  0.00  0.00    +0.059 C 
ATOM     19  C   UNL     1      -6.090  21.167  67.003  0.00  0.00    +0.016 C 
ATOM     20  C   UNL     1      -5.087  20.769  68.029  0.00  0.00    +0.003 C 
ATOM     21  C   UNL     1      -6.821  19.604  69.366  0.00  0.00    +0.090 C 
ATOM     22  C   UNL     1      -4.804  19.240  68.173  0.00  0.00    +0.016 C 
ATOM     23  C   UNL     1      -7.689  19.526  65.929  0.00  0.00    +0.038 C 
ENDBRANCH   2  14
TORSDOF 2
ENDMDL
MODEL 8
REMARK VINA RESULT:      -6.7      1.281      1.691
REMARK  Name = 
REMARK  2 active torsions:
REMARK  status: ('A' for Active; 'I' for Inactive)
REMARK    1  A    between atoms: C_4  and  C_5
REMARK    2  A    between atoms: N_7  and  C_8
REMARK                            x       y       z     vdW  Elec       q    Type
REMARK                         _______ _______ _______ _____ _____    ______ ____
ROOT
ATOM      1  C   UNL     1     -10.460  14.875  68.847  0.00  0.00    +0.284 C 
ATOM      2  N   UNL     1     -10.888  15.796  67.866  0.00  0.00    -0.202 NA
ATOM      3  O   UNL     1      -9.934  15.351  69.892  0.00  0.00    -0.267 OA
ENDROOT
BRANCH   1  11
ATOM      4  C   UNL     1     -10.634  10.133  68.213  0.00  0.00    +0.154 C 
ATOM      5  N   UNL     1     -11.108  11.371  68.636  0.00  0.00    -0.249 N 
ATOM      6  C   UNL     1     -11.904  11.699  69.673  0.00  0.00    +0.080 A 
ATOM      7  C   UNL     1     -11.987  13.080  69.795  0.00  0.00    +0.041 A 
ATOM      8  C   UNL     1     -12.456  13.666  70.965  0.00  0.00    +0.003 A 
ATOM      9  C   UNL     1     -13.212  12.844  71.783  0.00  0.00    +0.000 A 
ATOM     10  C   UNL     1     -13.038  11.475  71.730  0.00  0.00    +0.002 A 
ATOM     11  C   UNL     1     -11.080  13.548  68.854  0.00  0.00    +0.157 A 
ATOM     12  C   UNL     1     -12.482  10.876  70.609  0.00  0.00    +0.019 A 
ATOM     13  N   UNL     1     -10.604  12.508  68.156  0.00  0.00    -0.165 NA
ENDBRANCH   1  11
BRANCH   2  14
ATOM     14  C   UNL     1     -10.127  16.883  67.545  0.00  0.00    +0.098 C 
ATOM     15  C   UNL     1      -8.929  16.661  66.590  0.00  0.00    +0.038 C 
ATOM     16  C   UNL     1      -8.855  18.288  66.584  0.00  0.00    +0.059 C 
ATOM     17  N   UNL     1      -8.410  18.223  68.103  0.00  0.00    -0.274 NA
ATOM     18  C   UNL     1      -9.536  19.250  68.413  0.00  0.00    +0.059 C 
ATOM     19  C   UNL     1      -9.145  20.240  67.156  0.00  0.00    +0.016 C 
ATOM     20  C   UNL     1      -7.746  20.084  66.670  0.00  0.00    +0.003 C 
ATOM     21  C   UNL     1      -7.216  18.504  68.505  0.00  0.00    +0.090 C 
ATOM     22  C   UNL     1      -7.343  18.671  66.144  0.00  0.00    +0.016 C 
ATOM     23  C   UNL     1     -10.653  18.274  67.667  0.00  0.00    +0.038 C 
ENDBRANCH   2  14
TORSDOF 2
ENDMDL
MODEL 9
REMARK VINA RESULT:      -6.7      2.742      3.872
REMARK  Name = 
REMARK  2 active torsions:
REMARK  status: ('A' for Active; 'I' for Inactive)
REMARK    1  A    between atoms: C_4  and  C_5
REMARK    2  A    between atoms: N_7  and  C_8
REMARK                            x       y       z     vdW  Elec       q    Type
REMARK                         _______ _______ _______ _____ _____    ______ ____
ROOT
ATOM      1  C   UNL     1      -9.946  16.791  66.027  0.00  0.00    +0.284 C 
ATOM      2  N   UNL     1      -8.537  16.774  66.125  0.00  0.00    -0.202 NA
ATOM      3  O   UNL     1     -10.487  17.885  65.702  0.00  0.00    -0.267 OA
ENDROOT
BRANCH   1  11
ATOM      4  C   UNL     1     -10.640  12.511  63.995  0.00  0.00    +0.154 C 
ATOM      5  N   UNL     1     -10.877  13.529  64.915  0.00  0.00    -0.249 N 
ATOM      6  C   UNL     1     -11.305  13.477  66.192  0.00  0.00    +0.080 A 
ATOM      7  C   UNL     1     -11.248  14.740  66.768  0.00  0.00    +0.041 A 
ATOM      8  C   UNL     1     -11.306  14.898  68.147  0.00  0.00    +0.003 A 
ATOM      9  C   UNL     1     -11.843  13.832  68.849  0.00  0.00    +0.000 A 
ATOM     10  C   UNL     1     -11.791  12.561  68.311  0.00  0.00    +0.002 A 
ATOM     11  C   UNL     1     -10.629  15.515  65.797  0.00  0.00    +0.157 A 
ATOM     12  C   UNL     1     -11.637  12.377  66.945  0.00  0.00    +0.019 A 
ATOM     13  N   UNL     1     -10.458  14.775  64.694  0.00  0.00    -0.165 NA
ENDBRANCH   1  11
BRANCH   2  14
ATOM     14  C   UNL     1      -7.862  17.812  66.702  0.00  0.00    +0.098 C 
ATOM     15  C   UNL     1      -7.304  18.910  65.765  0.00  0.00    +0.038 C 
ATOM     16  C   UNL     1      -6.996  19.697  67.157  0.00  0.00    +0.059 C 
ATOM     17  N   UNL     1      -5.904  18.596  67.479  0.00  0.00    -0.274 NA
ATOM     18  C   UNL     1      -6.581  18.419  68.868  0.00  0.00    +0.059 C 
ATOM     19  C   UNL     1      -6.683  20.037  69.159  0.00  0.00    +0.016 C 
ATOM     20  C   UNL     1      -5.719  20.859  68.375  0.00  0.00    +0.003 C 
ATOM     21  C   UNL     1      -4.634  18.828  67.457  0.00  0.00    +0.090 C 
ATOM     22  C   UNL     1      -5.831  20.773  66.820  0.00  0.00    +0.016 C 
ATOM     23  C   UNL     1      -8.050  18.170  68.138  0.00  0.00    +0.038 C 
ENDBRANCH   2  14
TORSDOF 2
ENDMDL
