MODEL 1
REMARK VINA RESULT:      -7.3      0.000      0.000
REMARK  Name = 
REMARK  4 active torsions:
REMARK  status: ('A' for Active; 'I' for Inactive)
REMARK    1  A    between atoms: C_6  and  N_7
REMARK    2  A    between atoms: N_14  and  C_15
REMARK    3  A    between atoms: C_15  and  C_16
REMARK    4  A    between atoms: C_21  and  C_22
REMARK                            x       y       z     vdW  Elec       q    Type
REMARK                         _______ _______ _______ _____ _____    ______ ____
ROOT
ATOM      1  C   UNL     1      -8.995  18.996  66.967  0.00  0.00    +0.138 C 
ATOM      2  N   UNL     1      -9.216  17.669  66.954  0.00  0.00    -0.247 N 
ATOM      3  C   UNL     1     -10.297  17.187  67.606  0.00  0.00    +0.335 A 
ATOM      4  O   UNL     1     -11.290  17.974  67.691  0.00  0.00    -0.246 OA
ATOM      5  N   UNL     1     -10.456  15.839  67.594  0.00  0.00    -0.265 N 
ATOM      6  C   UNL     1      -9.763  15.083  66.748  0.00  0.00    +0.121 A 
ATOM      7  C   UNL     1      -8.498  15.530  66.390  0.00  0.00    +0.093 A 
ATOM      8  C   UNL     1      -8.196  16.877  66.544  0.00  0.00    +0.267 A 
ATOM      9  O   UNL     1      -7.345  17.421  65.775  0.00  0.00    -0.267 OA
ENDROOT
BRANCH   6  10
ATOM     10  N   UNL     1     -10.276  13.903  66.106  0.00  0.00    -0.293 N 
ATOM     11  C   UNL     1     -10.737  14.223  64.823  0.00  0.00    +0.111 C 
ATOM     12  C   UNL     1     -11.280  12.882  64.022  0.00  0.00    +0.112 C 
ATOM     13  N   UNL     1     -12.801  13.283  64.307  0.00  0.00    -0.131 NA
ATOM     14  C   UNL     1     -11.267  11.865  65.345  0.00  0.00    +0.023 C 
ATOM     15  C   UNL     1      -9.747  11.708  65.440  0.00  0.00    +0.023 C 
ATOM     16  C   UNL     1      -9.421  12.774  66.480  0.00  0.00    +0.092 C 
ENDBRANCH   6  10
BRANCH   5  17
ATOM     17  C   UNL     1     -11.618  15.266  68.197  0.00  0.00    +0.139 C 
BRANCH  17  18
ATOM     18  C   UNL     1     -11.472  14.937  69.628  0.00  0.00    +0.010 A 
ATOM     19  C   UNL     1     -11.993  13.720  70.052  0.00  0.00    +0.066 A 
ATOM     20  C   UNL     1     -12.712  13.690  71.243  0.00  0.00    +0.010 A 
ATOM     21  C   UNL     1     -12.704  14.737  72.140  0.00  0.00    +0.001 A 
ATOM     22  C   UNL     1     -11.840  15.783  71.836  0.00  0.00    -0.000 A 
ATOM     23  C   UNL     1     -11.177  15.829  70.623  0.00  0.00    -0.002 A 
BRANCH  19  24
ATOM     24  C   UNL     1     -11.937  12.568  69.200  0.00  0.00    +0.100 C 
ATOM     25  N   UNL     1     -11.987  11.536  68.671  0.00  0.00    -0.191 NA
ENDBRANCH  19  24
ENDBRANCH  17  18
ENDBRANCH   5  17
TORSDOF 4
ENDMDL
MODEL 2
REMARK VINA RESULT:      -6.8      2.443      6.149
REMARK  Name = 
REMARK  4 active torsions:
REMARK  status: ('A' for Active; 'I' for Inactive)
REMARK    1  A    between atoms: C_6  and  N_7
REMARK    2  A    between atoms: N_14  and  C_15
REMARK    3  A    between atoms: C_15  and  C_16
REMARK    4  A    between atoms: C_21  and  C_22
REMARK                            x       y       z     vdW  Elec       q    Type
REMARK                         _______ _______ _______ _____ _____    ______ ____
ROOT
ATOM      1  C   UNL     1     -11.733  12.438  65.817  0.00  0.00    +0.138 C 
ATOM      2  N   UNL     1     -11.646  12.977  67.047  0.00  0.00    -0.247 N 
ATOM      3  C   UNL     1     -11.341  14.288  67.159  0.00  0.00    +0.335 A 
ATOM      4  O   UNL     1     -11.699  15.026  66.190  0.00  0.00    -0.246 OA
ATOM      5  N   UNL     1     -11.229  14.775  68.421  0.00  0.00    -0.265 N 
ATOM      6  C   UNL     1     -11.686  14.080  69.459  0.00  0.00    +0.121 A 
ATOM      7  C   UNL     1     -11.650  12.696  69.357  0.00  0.00    +0.093 A 
ATOM      8  C   UNL     1     -11.581  12.119  68.094  0.00  0.00    +0.267 A 
ATOM      9  O   UNL     1     -12.082  10.969  67.902  0.00  0.00    -0.267 OA
ENDROOT
BRANCH   6  10
ATOM     10  N   UNL     1     -12.304  14.663  70.619  0.00  0.00    -0.293 N 
ATOM     11  C   UNL     1     -13.475  13.964  70.935  0.00  0.00    +0.111 C 
ATOM     12  C   UNL     1     -14.187  14.561  72.302  0.00  0.00    +0.112 C 
ATOM     13  N   UNL     1     -15.282  15.340  71.436  0.00  0.00    -0.131 NA
ATOM     14  C   UNL     1     -13.247  15.935  72.409  0.00  0.00    +0.023 C 
ATOM     15  C   UNL     1     -11.963  15.243  72.875  0.00  0.00    +0.023 C 
ATOM     16  C   UNL     1     -11.242  15.068  71.543  0.00  0.00    +0.092 C 
ENDBRANCH   6  10
BRANCH   5  17
ATOM     17  C   UNL     1     -10.985  16.171  68.614  0.00  0.00    +0.139 C 
BRANCH  17  18
ATOM     18  C   UNL     1      -9.592  16.591  68.374  0.00  0.00    +0.010 A 
ATOM     19  C   UNL     1      -9.382  17.544  67.383  0.00  0.00    +0.066 A 
ATOM     20  C   UNL     1      -8.322  17.355  66.502  0.00  0.00    +0.010 A 
ATOM     21  C   UNL     1      -7.328  16.425  66.726  0.00  0.00    +0.001 A 
ATOM     22  C   UNL     1      -7.386  15.765  67.948  0.00  0.00    -0.000 A 
ATOM     23  C   UNL     1      -8.475  15.918  68.788  0.00  0.00    -0.002 A 
BRANCH  19  24
ATOM     24  C   UNL     1     -10.332  18.595  67.171  0.00  0.00    +0.100 C 
ATOM     25  N   UNL     1     -11.005  19.542  67.160  0.00  0.00    -0.191 NA
ENDBRANCH  19  24
ENDBRANCH  17  18
ENDBRANCH   5  17
TORSDOF 4
ENDMDL
MODEL 3
REMARK VINA RESULT:      -6.5      2.107      4.219
REMARK  Name = 
REMARK  4 active torsions:
REMARK  status: ('A' for Active; 'I' for Inactive)
REMARK    1  A    between atoms: C_6  and  N_7
REMARK    2  A    between atoms: N_14  and  C_15
REMARK    3  A    between atoms: C_15  and  C_16
REMARK    4  A    between atoms: C_21  and  C_22
REMARK                            x       y       z     vdW  Elec       q    Type
REMARK                         _______ _______ _______ _____ _____    ______ ____
ROOT
ATOM      1  C   UNL     1     -12.049  14.107  64.143  0.00  0.00    +0.138 C 
ATOM      2  N   UNL     1     -11.359  14.751  65.102  0.00  0.00    -0.247 N 
ATOM      3  C   UNL     1     -10.984  14.063  66.203  0.00  0.00    +0.335 A 
ATOM      4  O   UNL     1     -10.795  12.818  66.040  0.00  0.00    -0.246 OA
ATOM      5  N   UNL     1     -10.323  14.765  67.156  0.00  0.00    -0.265 N 
ATOM      6  C   UNL     1      -9.819  15.966  66.886  0.00  0.00    +0.121 A 
ATOM      7  C   UNL     1     -10.491  16.737  65.947  0.00  0.00    +0.093 A 
ATOM      8  C   UNL     1     -11.336  16.105  65.042  0.00  0.00    +0.267 A 
ATOM      9  O   UNL     1     -11.519  16.614  63.895  0.00  0.00    -0.267 OA
ENDROOT
BRANCH   6  10
ATOM     10  N   UNL     1      -8.580  16.466  67.419  0.00  0.00    -0.293 N 
ATOM     11  C   UNL     1      -7.564  16.327  66.466  0.00  0.00    +0.111 C 
ATOM     12  C   UNL     1      -6.132  16.948  67.013  0.00  0.00    +0.112 C 
ATOM     13  N   UNL     1      -5.577  15.483  67.332  0.00  0.00    -0.131 NA
ATOM     14  C   UNL     1      -6.615  17.145  68.597  0.00  0.00    +0.023 C 
ATOM     15  C   UNL     1      -7.530  18.350  68.362  0.00  0.00    +0.023 C 
ATOM     16  C   UNL     1      -8.878  17.653  68.224  0.00  0.00    +0.092 C 
ENDBRANCH   6  10
BRANCH   5  17
ATOM     17  C   UNL     1      -9.829  14.084  68.312  0.00  0.00    +0.139 C 
BRANCH  17  18
ATOM     18  C   UNL     1     -10.602  14.324  69.546  0.00  0.00    +0.010 A 
ATOM     19  C   UNL     1     -11.755  13.568  69.725  0.00  0.00    +0.066 A 
ATOM     20  C   UNL     1     -12.899  14.211  70.187  0.00  0.00    +0.010 A 
ATOM     21  C   UNL     1     -12.870  15.483  70.721  0.00  0.00    +0.001 A 
ATOM     22  C   UNL     1     -11.607  16.042  70.875  0.00  0.00    -0.000 A 
ATOM     23  C   UNL     1     -10.485  15.419  70.358  0.00  0.00    -0.002 A 
BRANCH  19  24
ATOM     24  C   UNL     1     -11.808  12.206  69.282  0.00  0.00    +0.100 C 
ATOM     25  N   UNL     1     -12.059  11.137  68.905  0.00  0.00    -0.191 NA
ENDBRANCH  19  24
ENDBRANCH  17  18
ENDBRANCH   5  17
TORSDOF 4
ENDMDL
MODEL 4
REMARK VINA RESULT:      -6.2      2.489      3.673
REMARK  Name = 
REMARK  4 active torsions:
REMARK  status: ('A' for Active; 'I' for Inactive)
REMARK    1  A    between atoms: C_6  and  N_7
REMARK    2  A    between atoms: N_14  and  C_15
REMARK    3  A    between atoms: C_15  and  C_16
REMARK    4  A    between atoms: C_21  and  C_22
REMARK                            x       y       z     vdW  Elec       q    Type
REMARK                         _______ _______ _______ _____ _____    ______ ____
ROOT
ATOM      1  C   UNL     1     -11.311  16.173  70.721  0.00  0.00    +0.138 C 
ATOM      2  N   UNL     1     -11.029  15.198  69.839  0.00  0.00    -0.247 N 
ATOM      3  C   UNL     1     -11.692  14.024  69.938  0.00  0.00    +0.335 A 
ATOM      4  O   UNL     1     -12.860  14.088  70.431  0.00  0.00    -0.246 OA
ATOM      5  N   UNL     1     -11.346  13.060  69.048  0.00  0.00    -0.265 N 
ATOM      6  C   UNL     1     -10.625  13.359  67.971  0.00  0.00    +0.121 A 
ATOM      7  C   UNL     1      -9.719  14.405  68.088  0.00  0.00    +0.093 A 
ATOM      8  C   UNL     1      -9.904  15.342  69.097  0.00  0.00    +0.267 A 
ATOM      9  O   UNL     1      -9.498  16.532  68.930  0.00  0.00    -0.267 OA
ENDROOT
BRANCH   6  10
ATOM     10  N   UNL     1     -10.797  12.746  66.681  0.00  0.00    -0.293 N 
ATOM     11  C   UNL     1     -11.503  13.610  65.836  0.00  0.00    +0.111 C 
ATOM     12  C   UNL     1     -11.670  12.971  64.320  0.00  0.00    +0.112 C 
ATOM     13  N   UNL     1     -13.186  12.562  64.620  0.00  0.00    -0.131 NA
ATOM     14  C   UNL     1     -11.145  11.437  64.713  0.00  0.00    +0.023 C 
ATOM     15  C   UNL     1      -9.661  11.783  64.859  0.00  0.00    +0.023 C 
ATOM     16  C   UNL     1      -9.573  12.005  66.364  0.00  0.00    +0.092 C 
ENDBRANCH   6  10
BRANCH   5  17
ATOM     17  C   UNL     1     -12.060  11.822  69.044  0.00  0.00    +0.139 C 
BRANCH  17  18
ATOM     18  C   UNL     1     -11.925  11.029  70.281  0.00  0.00    +0.010 A 
ATOM     19  C   UNL     1     -11.024   9.971  70.257  0.00  0.00    +0.066 A 
ATOM     20  C   UNL     1     -11.412   8.761  70.825  0.00  0.00    +0.010 A 
ATOM     21  C   UNL     1     -12.524   8.645  71.633  0.00  0.00    +0.001 A 
ATOM     22  C   UNL     1     -13.172   9.836  71.940  0.00  0.00    -0.000 A 
ATOM     23  C   UNL     1     -12.813  11.021  71.322  0.00  0.00    -0.002 A 
BRANCH  19  24
ATOM     24  C   UNL     1      -9.801  10.073  69.517  0.00  0.00    +0.100 C 
ATOM     25  N   UNL     1      -8.720  10.080  69.092  0.00  0.00    -0.191 NA
ENDBRANCH  19  24
ENDBRANCH  17  18
ENDBRANCH   5  17
TORSDOF 4
ENDMDL
MODEL 5
REMARK VINA RESULT:      -6.2      2.372      5.476
REMARK  Name = 
REMARK  4 active torsions:
REMARK  status: ('A' for Active; 'I' for Inactive)
REMARK    1  A    between atoms: C_6  and  N_7
REMARK    2  A    between atoms: N_14  and  C_15
REMARK    3  A    between atoms: C_15  and  C_16
REMARK    4  A    between atoms: C_21  and  C_22
REMARK                            x       y       z     vdW  Elec       q    Type
REMARK                         _______ _______ _______ _____ _____    ______ ____
ROOT
ATOM      1  C   UNL     1     -11.540  15.992  69.895  0.00  0.00    +0.138 C 
ATOM      2  N   UNL     1     -11.312  14.885  69.167  0.00  0.00    -0.247 N 
ATOM      3  C   UNL     1     -10.578  14.993  68.037  0.00  0.00    +0.335 A 
ATOM      4  O   UNL     1      -9.718  15.927  68.023  0.00  0.00    -0.246 OA
ATOM      5  N   UNL     1     -10.406  13.855  67.319  0.00  0.00    -0.265 N 
ATOM      6  C   UNL     1     -10.685  12.669  67.852  0.00  0.00    +0.121 A 
ATOM      7  C   UNL     1     -11.705  12.623  68.793  0.00  0.00    +0.093 A 
ATOM      8  C   UNL     1     -12.066  13.794  69.447  0.00  0.00    +0.267 A 
ATOM      9  O   UNL     1     -12.542  13.735  70.622  0.00  0.00    -0.267 OA
ENDROOT
BRANCH   6  10
ATOM     10  N   UNL     1      -9.937  11.467  67.597  0.00  0.00    -0.293 N 
ATOM     11  C   UNL     1      -8.800  11.435  68.413  0.00  0.00    +0.111 C 
ATOM     12  C   UNL     1      -7.940  10.038  68.199  0.00  0.00    +0.112 C 
ATOM     13  N   UNL     1      -6.862  10.797  67.294  0.00  0.00    -0.131 NA
ATOM     14  C   UNL     1      -8.765   9.526  66.843  0.00  0.00    +0.023 C 
ATOM     15  C   UNL     1     -10.056   9.116  67.557  0.00  0.00    +0.023 C 
ATOM     16  C   UNL     1     -10.891  10.378  67.370  0.00  0.00    +0.092 C 
ENDBRANCH   6  10
BRANCH   5  17
ATOM     17  C   UNL     1      -9.577  13.880  66.155  0.00  0.00    +0.139 C 
BRANCH  17  18
ATOM     18  C   UNL     1     -10.247  13.452  64.912  0.00  0.00    +0.010 A 
ATOM     19  C   UNL     1     -11.296  14.243  64.457  0.00  0.00    +0.066 A 
ATOM     20  C   UNL     1     -12.449  13.609  64.001  0.00  0.00    +0.010 A 
ATOM     21  C   UNL     1     -12.495  12.257  63.734  0.00  0.00    +0.001 A 
ATOM     22  C   UNL     1     -11.284  11.581  63.839  0.00  0.00    -0.000 A 
ATOM     23  C   UNL     1     -10.161  12.208  64.349  0.00  0.00    -0.002 A 
BRANCH  19  24
ATOM     24  C   UNL     1     -11.257  15.666  64.615  0.00  0.00    +0.100 C 
ATOM     25  N   UNL     1     -11.110  16.817  64.567  0.00  0.00    -0.191 NA
ENDBRANCH  19  24
ENDBRANCH  17  18
ENDBRANCH   5  17
TORSDOF 4
ENDMDL
MODEL 6
REMARK VINA RESULT:      -6.2      2.357      4.547
REMARK  Name = 
REMARK  4 active torsions:
REMARK  status: ('A' for Active; 'I' for Inactive)
REMARK    1  A    between atoms: C_6  and  N_7
REMARK    2  A    between atoms: N_14  and  C_15
REMARK    3  A    between atoms: C_15  and  C_16
REMARK    4  A    between atoms: C_21  and  C_22
REMARK                            x       y       z     vdW  Elec       q    Type
REMARK                         _______ _______ _______ _____ _____    ______ ____
ROOT
ATOM      1  C   UNL     1     -12.085  13.856  63.821  0.00  0.00    +0.138 C 
ATOM      2  N   UNL     1     -11.477  14.366  64.907  0.00  0.00    -0.247 N 
ATOM      3  C   UNL     1     -11.258  13.557  65.967  0.00  0.00    +0.335 A 
ATOM      4  O   UNL     1     -11.108  12.324  65.701  0.00  0.00    -0.246 OA
ATOM      5  N   UNL     1     -10.675  14.128  67.051  0.00  0.00    -0.265 N 
ATOM      6  C   UNL     1     -10.090  15.318  66.957  0.00  0.00    +0.121 A 
ATOM      7  C   UNL     1     -10.618  16.211  66.034  0.00  0.00    +0.093 A 
ATOM      8  C   UNL     1     -11.385  15.716  64.987  0.00  0.00    +0.267 A 
ATOM      9  O   UNL     1     -11.417  16.341  63.883  0.00  0.00    -0.267 OA
ENDROOT
BRANCH   6  10
ATOM     10  N   UNL     1      -8.896  15.696  67.665  0.00  0.00    -0.293 N 
ATOM     11  C   UNL     1      -7.776  15.482  66.853  0.00  0.00    +0.111 C 
ATOM     12  C   UNL     1      -6.383  15.961  67.604  0.00  0.00    +0.112 C 
ATOM     13  N   UNL     1      -6.005  14.447  67.951  0.00  0.00    -0.131 NA
ATOM     14  C   UNL     1      -7.057  16.173  69.115  0.00  0.00    +0.023 C 
ATOM     15  C   UNL     1      -7.824  17.460  68.795  0.00  0.00    +0.023 C 
ATOM     16  C   UNL     1      -9.196  16.890  68.457  0.00  0.00    +0.092 C 
ENDBRANCH   6  10
BRANCH   5  17
ATOM     17  C   UNL     1     -10.343  13.313  68.178  0.00  0.00    +0.139 C 
BRANCH  17  18
ATOM     18  C   UNL     1     -11.500  12.698  68.855  0.00  0.00    +0.010 A 
ATOM     19  C   UNL     1     -12.071  13.412  69.903  0.00  0.00    +0.066 A 
ATOM     20  C   UNL     1     -12.416  12.720  71.060  0.00  0.00    +0.010 A 
ATOM     21  C   UNL     1     -12.466  11.343  71.114  0.00  0.00    +0.001 A 
ATOM     22  C   UNL     1     -12.260  10.686  69.906  0.00  0.00    -0.000 A 
ATOM     23  C   UNL     1     -11.859  11.380  68.778  0.00  0.00    -0.002 A 
BRANCH  19  24
ATOM     24  C   UNL     1     -12.140  14.842  69.856  0.00  0.00    +0.100 C 
ATOM     25  N   UNL     1     -12.322  15.981  69.987  0.00  0.00    -0.191 NA
ENDBRANCH  19  24
ENDBRANCH  17  18
ENDBRANCH   5  17
TORSDOF 4
ENDMDL
MODEL 7
REMARK VINA RESULT:      -6.1      1.887      5.014
REMARK  Name = 
REMARK  4 active torsions:
REMARK  status: ('A' for Active; 'I' for Inactive)
REMARK    1  A    between atoms: C_6  and  N_7
REMARK    2  A    between atoms: N_14  and  C_15
REMARK    3  A    between atoms: C_15  and  C_16
REMARK    4  A    between atoms: C_21  and  C_22
REMARK                            x       y       z     vdW  Elec       q    Type
REMARK                         _______ _______ _______ _____ _____    ______ ____
ROOT
ATOM      1  C   UNL     1     -10.844  15.509  70.913  0.00  0.00    +0.138 C 
ATOM      2  N   UNL     1     -10.988  15.251  69.601  0.00  0.00    -0.247 N 
ATOM      3  C   UNL     1     -10.089  15.773  68.737  0.00  0.00    +0.335 A 
ATOM      4  O   UNL     1      -8.924  15.970  69.201  0.00  0.00    -0.246 OA
ATOM      5  N   UNL     1     -10.298  15.514  67.421  0.00  0.00    -0.265 N 
ATOM      6  C   UNL     1     -11.150  14.566  67.044  0.00  0.00    +0.121 A 
ATOM      7  C   UNL     1     -12.241  14.331  67.870  0.00  0.00    +0.093 A 
ATOM      8  C   UNL     1     -12.174  14.734  69.198  0.00  0.00    +0.267 A 
ATOM      9  O   UNL     1     -12.831  14.101  70.080  0.00  0.00    -0.267 OA
ENDROOT
BRANCH   6  10
ATOM     10  N   UNL     1     -10.959  13.706  65.906  0.00  0.00    -0.293 N 
ATOM     11  C   UNL     1     -10.797  12.383  66.333  0.00  0.00    +0.111 C 
ATOM     12  C   UNL     1     -10.635  11.349  65.053  0.00  0.00    +0.112 C 
ATOM     13  N   UNL     1      -9.054  11.263  65.274  0.00  0.00    -0.131 NA
ATOM     14  C   UNL     1     -10.442  12.530  63.891  0.00  0.00    +0.023 C 
ATOM     15  C   UNL     1     -11.898  13.003  63.866  0.00  0.00    +0.023 C 
ATOM     16  C   UNL     1     -11.824  14.185  64.826  0.00  0.00    +0.092 C 
ENDBRANCH   6  10
BRANCH   5  17
ATOM     17  C   UNL     1      -9.344  15.969  66.458  0.00  0.00    +0.139 C 
BRANCH  17  18
ATOM     18  C   UNL     1      -9.335  17.429  66.242  0.00  0.00    +0.010 A 
ATOM     19  C   UNL     1      -8.149  18.100  66.517  0.00  0.00    +0.066 A 
ATOM     20  C   UNL     1      -8.219  19.305  67.210  0.00  0.00    +0.010 A 
ATOM     21  C   UNL     1      -9.405  19.985  67.396  0.00  0.00    +0.001 A 
ATOM     22  C   UNL     1     -10.514  19.449  66.751  0.00  0.00    -0.000 A 
ATOM     23  C   UNL     1     -10.443  18.222  66.117  0.00  0.00    -0.002 A 
BRANCH  19  24
ATOM     24  C   UNL     1      -6.884  17.483  66.248  0.00  0.00    +0.100 C 
ATOM     25  N   UNL     1      -5.798  17.075  66.209  0.00  0.00    -0.191 NA
ENDBRANCH  19  24
ENDBRANCH  17  18
ENDBRANCH   5  17
TORSDOF 4
ENDMDL
MODEL 8
REMARK VINA RESULT:      -6.1      2.504      4.906
REMARK  Name = 
REMARK  4 active torsions:
REMARK  status: ('A' for Active; 'I' for Inactive)
REMARK    1  A    between atoms: C_6  and  N_7
REMARK    2  A    between atoms: N_14  and  C_15
REMARK    3  A    between atoms: C_15  and  C_16
REMARK    4  A    between atoms: C_21  and  C_22
REMARK                            x       y       z     vdW  Elec       q    Type
REMARK                         _______ _______ _______ _____ _____    ______ ____
ROOT
ATOM      1  C   UNL     1      -9.745  10.170  64.635  0.00  0.00    +0.138 C 
ATOM      2  N   UNL     1      -9.974  11.370  65.199  0.00  0.00    -0.247 N 
ATOM      3  C   UNL     1     -10.031  11.450  66.547  0.00  0.00    +0.335 A 
ATOM      4  O   UNL     1      -9.344  10.593  67.183  0.00  0.00    -0.246 OA
ATOM      5  N   UNL     1     -10.300  12.675  67.066  0.00  0.00    -0.265 N 
ATOM      6  C   UNL     1     -10.212  13.766  66.311  0.00  0.00    +0.121 A 
ATOM      7  C   UNL     1     -10.498  13.624  64.959  0.00  0.00    +0.093 A 
ATOM      8  C   UNL     1     -10.420  12.359  64.388  0.00  0.00    +0.267 A 
ATOM      9  O   UNL     1     -10.127  12.244  63.159  0.00  0.00    -0.267 OA
ENDROOT
BRANCH   6  10
ATOM     10  N   UNL     1      -9.742  15.042  66.778  0.00  0.00    -0.293 N 
ATOM     11  C   UNL     1      -8.343  15.037  66.846  0.00  0.00    +0.111 C 
ATOM     12  C   UNL     1      -7.754  16.508  67.320  0.00  0.00    +0.112 C 
ATOM     13  N   UNL     1      -7.497  15.968  68.803  0.00  0.00    -0.131 NA
ATOM     14  C   UNL     1      -9.225  17.152  67.774  0.00  0.00    +0.023 C 
ATOM     15  C   UNL     1      -9.779  17.359  66.362  0.00  0.00    +0.023 C 
ATOM     16  C   UNL     1     -10.592  16.081  66.192  0.00  0.00    +0.092 C 
ENDBRANCH   6  10
BRANCH   5  17
ATOM     17  C   UNL     1     -10.298  12.850  68.485  0.00  0.00    +0.139 C 
BRANCH  17  18
ATOM     18  C   UNL     1     -11.565  12.490  69.152  0.00  0.00    +0.010 A 
ATOM     19  C   UNL     1     -12.143  13.454  69.969  0.00  0.00    +0.066 A 
ATOM     20  C   UNL     1     -12.652  13.055  71.201  0.00  0.00    +0.010 A 
ATOM     21  C   UNL     1     -12.847  11.729  71.528  0.00  0.00    +0.001 A 
ATOM     22  C   UNL     1     -12.610  10.816  70.506  0.00  0.00    -0.000 A 
ATOM     23  C   UNL     1     -12.049  11.220  69.307  0.00  0.00    -0.002 A 
BRANCH  19  24
ATOM     24  C   UNL     1     -12.062  14.844  69.626  0.00  0.00    +0.100 C 
ATOM     25  N   UNL     1     -12.088  16.001  69.536  0.00  0.00    -0.191 NA
ENDBRANCH  19  24
ENDBRANCH  17  18
ENDBRANCH   5  17
TORSDOF 4
ENDMDL
MODEL 9
REMARK VINA RESULT:      -6.1      2.804      5.237
REMARK  Name = 
REMARK  4 active torsions:
REMARK  status: ('A' for Active; 'I' for Inactive)
REMARK    1  A    between atoms: C_6  and  N_7
REMARK    2  A    between atoms: N_14  and  C_15
REMARK    3  A    between atoms: C_15  and  C_16
REMARK    4  A    between atoms: C_21  and  C_22
REMARK                            x       y       z     vdW  Elec       q    Type
REMARK                         _______ _______ _______ _____ _____    ______ ____
ROOT
ATOM      1  C   UNL     1     -12.341  12.180  63.506  0.00  0.00    +0.138 C 
ATOM      2  N   UNL     1     -11.859  12.751  64.625  0.00  0.00    -0.247 N 
ATOM      3  C   UNL     1     -11.204  11.975  65.517  0.00  0.00    +0.335 A 
ATOM      4  O   UNL     1     -10.606  10.963  65.036  0.00  0.00    -0.246 OA
ATOM      5  N   UNL     1     -10.769  12.589  66.646  0.00  0.00    -0.265 N 
ATOM      6  C   UNL     1     -10.728  13.917  66.722  0.00  0.00    +0.121 A 
ATOM      7  C   UNL     1     -11.680  14.621  65.997  0.00  0.00    +0.093 A 
ATOM      8  C   UNL     1     -12.308  13.993  64.928  0.00  0.00    +0.267 A 
ATOM      9  O   UNL     1     -12.725  14.687  63.951  0.00  0.00    -0.267 OA
ENDROOT
BRANCH   6  10
ATOM     10  N   UNL     1      -9.708  14.660  67.411  0.00  0.00    -0.293 N 
ATOM     11  C   UNL     1      -8.700  15.029  66.513  0.00  0.00    +0.111 C 
ATOM     12  C   UNL     1      -7.534  15.941  67.250  0.00  0.00    +0.112 C 
ATOM     13  N   UNL     1      -6.548  14.685  67.326  0.00  0.00    -0.131 NA
ATOM     14  C   UNL     1      -8.054  15.667  68.812  0.00  0.00    +0.023 C 
ATOM     15  C   UNL     1      -9.301  16.554  68.749  0.00  0.00    +0.023 C 
ATOM     16  C   UNL     1     -10.363  15.517  68.402  0.00  0.00    +0.092 C 
ENDBRANCH   6  10
BRANCH   5  17
ATOM     17  C   UNL     1     -10.001  11.847  67.596  0.00  0.00    +0.139 C 
BRANCH  17  18
ATOM     18  C   UNL     1     -10.732  10.749  68.256  0.00  0.00    +0.010 A 
ATOM     19  C   UNL     1     -11.293  11.022  69.498  0.00  0.00    +0.066 A 
ATOM     20  C   UNL     1     -11.157  10.072  70.506  0.00  0.00    +0.010 A 
ATOM     21  C   UNL     1     -10.733   8.783  70.257  0.00  0.00    +0.001 A 
ATOM     22  C   UNL     1     -10.559   8.455  68.918  0.00  0.00    -0.000 A 
ATOM     23  C   UNL     1     -10.639   9.423  67.932  0.00  0.00    -0.002 A 
BRANCH  19  24
ATOM     24  C   UNL     1     -11.842  12.315  69.781  0.00  0.00    +0.100 C 
ATOM     25  N   UNL     1     -12.247  13.315  70.211  0.00  0.00    -0.191 NA
ENDBRANCH  19  24
ENDBRANCH  17  18
ENDBRANCH   5  17
TORSDOF 4
ENDMDL
