MODEL 1
REMARK VINA RESULT:      -6.9      0.000      0.000
REMARK  Name = 
REMARK  4 active torsions:
REMARK  status: ('A' for Active; 'I' for Inactive)
REMARK    1  A    between atoms: C_2  and  C_3
REMARK    2  A    between atoms: C_2  and  C_6
REMARK    3  A    between atoms: C_10  and  O_11
REMARK    4  A    between atoms: O_11  and  C_12
REMARK                            x       y       z     vdW  Elec       q    Type
REMARK                         _______ _______ _______ _____ _____    ______ ____
ROOT
ATOM      1  C   UNL     1     -11.547  13.094  66.752  0.00  0.00    -0.009 A 
ATOM      2  C   UNL     1     -11.901  14.274  67.369  0.00  0.00    +0.034 A 
ATOM      3  C   UNL     1     -11.960  14.298  68.748  0.00  0.00    +0.145 A 
ATOM      4  C   UNL     1     -11.749  13.132  69.473  0.00  0.00    +0.037 A 
ATOM      5  C   UNL     1     -11.701  11.942  68.758  0.00  0.00    +0.003 A 
ATOM      6  C   UNL     1     -11.170  12.044  67.480  0.00  0.00    -0.004 A 
ENDROOT
BRANCH   1   8
ATOM      7  C   UNL     1     -10.933  11.673  64.866  0.00  0.00    +0.017 C 
ATOM      8  C   UNL     1     -10.933  13.302  65.253  0.00  0.00    +0.126 C 
BRANCH   8   9
ATOM      9  C   UNL     1     -12.411  13.547  64.592  0.00  0.00    +0.368 C 
ATOM     10  O   UNL     1     -13.222  12.431  64.618  0.00  0.00    -0.245 OA
ATOM     11  O   UNL     1     -12.550  14.551  63.907  0.00  0.00    -0.245 OA
ENDBRANCH   8   9
ENDBRANCH   1   8
BRANCH   3  12
ATOM     12  O   UNL     1     -12.078  15.531  69.354  0.00  0.00    -0.454 OA
BRANCH  12  13
ATOM     13  C   UNL     1     -12.532  15.609  70.664  0.00  0.00    +0.145 A 
ATOM     14  C   UNL     1     -11.690  16.097  71.646  0.00  0.00    +0.037 A 
ATOM     15  C   UNL     1     -12.096  16.020  72.961  0.00  0.00    +0.003 A 
ATOM     16  C   UNL     1     -13.216  15.297  73.266  0.00  0.00    +0.000 A 
ATOM     17  C   UNL     1     -14.179  15.096  72.314  0.00  0.00    +0.003 A 
ATOM     18  C   UNL     1     -13.813  15.186  70.982  0.00  0.00    +0.037 A 
ENDBRANCH  12  13
ENDBRANCH   3  12
TORSDOF 4
ENDMDL
MODEL 2
REMARK VINA RESULT:      -6.4      1.830      6.740
REMARK  Name = 
REMARK  4 active torsions:
REMARK  status: ('A' for Active; 'I' for Inactive)
REMARK    1  A    between atoms: C_2  and  C_3
REMARK    2  A    between atoms: C_2  and  C_6
REMARK    3  A    between atoms: C_10  and  O_11
REMARK    4  A    between atoms: O_11  and  C_12
REMARK                            x       y       z     vdW  Elec       q    Type
REMARK                         _______ _______ _______ _____ _____    ______ ____
ROOT
ATOM      1  C   UNL     1     -12.077  14.976  70.535  0.00  0.00    -0.009 A 
ATOM      2  C   UNL     1     -12.305  13.886  69.722  0.00  0.00    +0.034 A 
ATOM      3  C   UNL     1     -11.827  13.925  68.429  0.00  0.00    +0.145 A 
ATOM      4  C   UNL     1     -11.212  15.074  67.948  0.00  0.00    +0.037 A 
ATOM      5  C   UNL     1     -11.301  16.215  68.735  0.00  0.00    +0.003 A 
ATOM      6  C   UNL     1     -11.323  15.987  70.103  0.00  0.00    -0.004 A 
ENDROOT
BRANCH   1   8
ATOM      7  C   UNL     1     -12.069  16.217  72.636  0.00  0.00    +0.017 C 
ATOM      8  C   UNL     1     -12.123  14.622  72.128  0.00  0.00    +0.126 C 
BRANCH   8   9
ATOM      9  C   UNL     1     -13.759  14.579  72.156  0.00  0.00    +0.368 C 
ATOM     10  O   UNL     1     -14.349  15.816  72.008  0.00  0.00    -0.245 OA
ATOM     11  O   UNL     1     -14.278  13.554  72.578  0.00  0.00    -0.245 OA
ENDBRANCH   8   9
ENDBRANCH   1   8
BRANCH   3  12
ATOM     12  O   UNL     1     -11.850  12.747  67.711  0.00  0.00    -0.454 OA
BRANCH  12  13
ATOM     13  C   UNL     1     -11.571  12.768  66.351  0.00  0.00    +0.145 A 
ATOM     14  C   UNL     1     -12.482  13.340  65.481  0.00  0.00    +0.037 A 
ATOM     15  C   UNL     1     -12.268  13.213  64.125  0.00  0.00    +0.003 A 
ATOM     16  C   UNL     1     -11.282  12.371  63.687  0.00  0.00    +0.000 A 
ATOM     17  C   UNL     1     -10.227  12.072  64.506  0.00  0.00    +0.003 A 
ATOM     18  C   UNL     1     -10.397  12.208  65.873  0.00  0.00    +0.037 A 
ENDBRANCH  12  13
ENDBRANCH   3  12
TORSDOF 4
ENDMDL
MODEL 3
REMARK VINA RESULT:      -6.3      3.163      4.321
REMARK  Name = 
REMARK  4 active torsions:
REMARK  status: ('A' for Active; 'I' for Inactive)
REMARK    1  A    between atoms: C_2  and  C_3
REMARK    2  A    between atoms: C_2  and  C_6
REMARK    3  A    between atoms: C_10  and  O_11
REMARK    4  A    between atoms: O_11  and  C_12
REMARK                            x       y       z     vdW  Elec       q    Type
REMARK                         _______ _______ _______ _____ _____    ______ ____
ROOT
ATOM      1  C   UNL     1     -11.077  13.661  65.393  0.00  0.00    -0.009 A 
ATOM      2  C   UNL     1     -10.312  14.793  65.570  0.00  0.00    +0.034 A 
ATOM      3  C   UNL     1     -10.214  15.324  66.840  0.00  0.00    +0.145 A 
ATOM      4  C   UNL     1     -10.944  14.768  67.884  0.00  0.00    +0.037 A 
ATOM      5  C   UNL     1     -11.912  13.830  67.550  0.00  0.00    +0.003 A 
ATOM      6  C   UNL     1     -11.614  13.044  66.445  0.00  0.00    -0.004 A 
ENDROOT
BRANCH   1   8
ATOM      7  C   UNL     1     -10.951  11.303  64.776  0.00  0.00    +0.017 C 
ATOM      8  C   UNL     1     -10.663  12.796  64.071  0.00  0.00    +0.126 C 
BRANCH   8   9
ATOM      9  C   UNL     1     -12.170  12.885  63.440  0.00  0.00    +0.368 C 
ATOM     10  O   UNL     1     -12.669  14.169  63.373  0.00  0.00    -0.245 OA
ATOM     11  O   UNL     1     -12.800  11.838  63.364  0.00  0.00    -0.245 OA
ENDBRANCH   8   9
ENDBRANCH   1   8
BRANCH   3  12
ATOM     12  O   UNL     1      -9.264  16.302  67.045  0.00  0.00    -0.454 OA
BRANCH  12  13
ATOM     13  C   UNL     1      -9.668  17.615  67.250  0.00  0.00    +0.145 A 
ATOM     14  C   UNL     1     -10.254  18.315  66.211  0.00  0.00    +0.037 A 
ATOM     15  C   UNL     1     -10.503  19.660  66.379  0.00  0.00    +0.003 A 
ATOM     16  C   UNL     1      -9.991  20.295  67.478  0.00  0.00    +0.000 A 
ATOM     17  C   UNL     1      -9.704  19.578  68.608  0.00  0.00    +0.003 A 
ATOM     18  C   UNL     1      -9.469  18.220  68.482  0.00  0.00    +0.037 A 
ENDBRANCH  12  13
ENDBRANCH   3  12
TORSDOF 4
ENDMDL
MODEL 4
REMARK VINA RESULT:      -6.2      2.854      3.686
REMARK  Name = 
REMARK  4 active torsions:
REMARK  status: ('A' for Active; 'I' for Inactive)
REMARK    1  A    between atoms: C_2  and  C_3
REMARK    2  A    between atoms: C_2  and  C_6
REMARK    3  A    between atoms: C_10  and  O_11
REMARK    4  A    between atoms: O_11  and  C_12
REMARK                            x       y       z     vdW  Elec       q    Type
REMARK                         _______ _______ _______ _____ _____    ______ ____
ROOT
ATOM      1  C   UNL     1     -11.476  13.678  66.811  0.00  0.00    -0.009 A 
ATOM      2  C   UNL     1     -11.602  15.010  67.145  0.00  0.00    +0.034 A 
ATOM      3  C   UNL     1     -11.603  15.351  68.482  0.00  0.00    +0.145 A 
ATOM      4  C   UNL     1     -11.564  14.358  69.453  0.00  0.00    +0.037 A 
ATOM      5  C   UNL     1     -11.745  13.049  69.027  0.00  0.00    +0.003 A 
ATOM      6  C   UNL     1     -11.253  12.769  67.760  0.00  0.00    -0.004 A 
ENDROOT
BRANCH   1   8
ATOM      7  C   UNL     1     -11.004  11.766  65.370  0.00  0.00    +0.017 C 
ATOM      8  C   UNL     1     -10.893  13.437  65.305  0.00  0.00    +0.126 C 
BRANCH   8   9
ATOM      9  C   UNL     1     -12.372  13.593  64.620  0.00  0.00    +0.368 C 
ATOM     10  O   UNL     1     -13.163  12.470  64.744  0.00  0.00    -0.245 OA
ATOM     11  O   UNL     1     -12.526  14.528  63.845  0.00  0.00    -0.245 OA
ENDBRANCH   8   9
ENDBRANCH   1   8
BRANCH   3  12
ATOM     12  O   UNL     1     -11.489  16.690  68.792  0.00  0.00    -0.454 OA
BRANCH  12  13
ATOM     13  C   UNL     1     -10.389  17.406  68.338  0.00  0.00    +0.145 A 
ATOM     14  C   UNL     1      -9.117  16.989  68.687  0.00  0.00    +0.037 A 
ATOM     15  C   UNL     1      -8.047  17.796  68.364  0.00  0.00    +0.003 A 
ATOM     16  C   UNL     1      -8.288  19.057  67.890  0.00  0.00    +0.000 A 
ATOM     17  C   UNL     1      -9.477  19.337  67.272  0.00  0.00    +0.003 A 
ATOM     18  C   UNL     1     -10.569  18.536  67.555  0.00  0.00    +0.037 A 
ENDBRANCH  12  13
ENDBRANCH   3  12
TORSDOF 4
ENDMDL
MODEL 5
REMARK VINA RESULT:      -6.1      1.619      2.122
REMARK  Name = 
REMARK  4 active torsions:
REMARK  status: ('A' for Active; 'I' for Inactive)
REMARK    1  A    between atoms: C_2  and  C_3
REMARK    2  A    between atoms: C_2  and  C_6
REMARK    3  A    between atoms: C_10  and  O_11
REMARK    4  A    between atoms: O_11  and  C_12
REMARK                            x       y       z     vdW  Elec       q    Type
REMARK                         _______ _______ _______ _____ _____    ______ ____
ROOT
ATOM      1  C   UNL     1     -11.012  13.749  67.160  0.00  0.00    -0.009 A 
ATOM      2  C   UNL     1     -11.857  14.376  68.050  0.00  0.00    +0.034 A 
ATOM      3  C   UNL     1     -11.330  15.347  68.877  0.00  0.00    +0.145 A 
ATOM      4  C   UNL     1      -9.966  15.611  68.858  0.00  0.00    +0.037 A 
ATOM      5  C   UNL     1      -9.160  14.726  68.155  0.00  0.00    +0.003 A 
ATOM      6  C   UNL     1      -9.749  14.154  67.036  0.00  0.00    -0.004 A 
ENDROOT
BRANCH   1   8
ATOM      7  C   UNL     1     -10.558  13.433  64.783  0.00  0.00    +0.017 C 
ATOM      8  C   UNL     1     -11.785  13.103  65.874  0.00  0.00    +0.126 C 
BRANCH   8   9
ATOM      9  C   UNL     1     -11.219  11.599  66.186  0.00  0.00    +0.368 C 
ATOM     10  O   UNL     1     -10.561  11.021  65.121  0.00  0.00    -0.245 OA
ATOM     11  O   UNL     1     -11.662  11.036  67.179  0.00  0.00    -0.245 OA
ENDBRANCH   8   9
ENDBRANCH   1   8
BRANCH   3  12
ATOM     12  O   UNL     1     -12.221  16.126  69.584  0.00  0.00    -0.454 OA
BRANCH  12  13
ATOM     13  C   UNL     1     -12.581  15.755  70.874  0.00  0.00    +0.145 A 
ATOM     14  C   UNL     1     -11.845  16.226  71.946  0.00  0.00    +0.037 A 
ATOM     15  C   UNL     1     -12.114  15.724  73.201  0.00  0.00    +0.003 A 
ATOM     16  C   UNL     1     -12.953  14.650  73.319  0.00  0.00    +0.000 A 
ATOM     17  C   UNL     1     -13.884  14.402  72.346  0.00  0.00    +0.003 A 
ATOM     18  C   UNL     1     -13.659  14.908  71.078  0.00  0.00    +0.037 A 
ENDBRANCH  12  13
ENDBRANCH   3  12
TORSDOF 4
ENDMDL
MODEL 6
REMARK VINA RESULT:      -6.1      2.787      3.905
REMARK  Name = 
REMARK  4 active torsions:
REMARK  status: ('A' for Active; 'I' for Inactive)
REMARK    1  A    between atoms: C_2  and  C_3
REMARK    2  A    between atoms: C_2  and  C_6
REMARK    3  A    between atoms: C_10  and  O_11
REMARK    4  A    between atoms: O_11  and  C_12
REMARK                            x       y       z     vdW  Elec       q    Type
REMARK                         _______ _______ _______ _____ _____    ______ ____
ROOT
ATOM      1  C   UNL     1     -10.730  13.370  66.120  0.00  0.00    -0.009 A 
ATOM      2  C   UNL     1     -11.114  12.177  66.692  0.00  0.00    +0.034 A 
ATOM      3  C   UNL     1     -11.676  12.207  67.952  0.00  0.00    +0.145 A 
ATOM      4  C   UNL     1     -11.765  13.408  68.645  0.00  0.00    +0.037 A 
ATOM      5  C   UNL     1     -11.082  14.495  68.117  0.00  0.00    +0.003 A 
ATOM      6  C   UNL     1     -10.999  14.523  66.732  0.00  0.00    -0.004 A 
ENDROOT
BRANCH   1   8
ATOM      7  C   UNL     1     -10.897  11.663  64.385  0.00  0.00    +0.017 C 
ATOM      8  C   UNL     1     -10.657  13.317  64.489  0.00  0.00    +0.126 C 
BRANCH   8   9
ATOM      9  C   UNL     1     -12.252  13.645  64.325  0.00  0.00    +0.368 C 
ATOM     10  O   UNL     1     -13.052  12.522  64.316  0.00  0.00    -0.245 OA
ATOM     11  O   UNL     1     -12.549  14.771  63.948  0.00  0.00    -0.245 OA
ENDBRANCH   8   9
ENDBRANCH   1   8
BRANCH   3  12
ATOM     12  O   UNL     1     -12.269  11.048  68.407  0.00  0.00    -0.454 OA
BRANCH  12  13
ATOM     13  C   UNL     1     -11.852  10.493  69.610  0.00  0.00    +0.145 A 
ATOM     14  C   UNL     1     -10.548  10.048  69.736  0.00  0.00    +0.037 A 
ATOM     15  C   UNL     1     -10.194   9.358  70.875  0.00  0.00    +0.003 A 
ATOM     16  C   UNL     1     -11.176   8.968  71.745  0.00  0.00    +0.000 A 
ATOM     17  C   UNL     1     -12.362   9.651  71.784  0.00  0.00    +0.003 A 
ATOM     18  C   UNL     1     -12.741  10.374  70.666  0.00  0.00    +0.037 A 
ENDBRANCH  12  13
ENDBRANCH   3  12
TORSDOF 4
ENDMDL
MODEL 7
REMARK VINA RESULT:      -6.0      3.811      4.830
REMARK  Name = 
REMARK  4 active torsions:
REMARK  status: ('A' for Active; 'I' for Inactive)
REMARK    1  A    between atoms: C_2  and  C_3
REMARK    2  A    between atoms: C_2  and  C_6
REMARK    3  A    between atoms: C_10  and  O_11
REMARK    4  A    between atoms: O_11  and  C_12
REMARK                            x       y       z     vdW  Elec       q    Type
REMARK                         _______ _______ _______ _____ _____    ______ ____
ROOT
ATOM      1  C   UNL     1      -9.119  17.723  68.242  0.00  0.00    -0.009 A 
ATOM      2  C   UNL     1     -10.448  17.454  68.487  0.00  0.00    +0.034 A 
ATOM      3  C   UNL     1     -10.773  16.252  69.080  0.00  0.00    +0.145 A 
ATOM      4  C   UNL     1      -9.782  15.313  69.337  0.00  0.00    +0.037 A 
ATOM      5  C   UNL     1      -8.530  15.546  68.783  0.00  0.00    +0.003 A 
ATOM      6  C   UNL     1      -8.176  16.883  68.669  0.00  0.00    -0.004 A 
ENDROOT
BRANCH   1   8
ATOM      7  C   UNL     1      -7.130  19.115  67.986  0.00  0.00    +0.017 C 
ATOM      8  C   UNL     1      -8.788  19.318  68.122  0.00  0.00    +0.126 C 
BRANCH   8   9
ATOM      9  C   UNL     1      -9.006  19.324  66.500  0.00  0.00    +0.368 C 
ATOM     10  O   UNL     1     -10.176  19.934  66.099  0.00  0.00    -0.245 OA
ATOM     11  O   UNL     1      -8.300  18.568  65.844  0.00  0.00    -0.245 OA
ENDBRANCH   8   9
ENDBRANCH   1   8
BRANCH   3  12
ATOM     12  O   UNL     1     -12.067  16.100  69.533  0.00  0.00    -0.454 OA
BRANCH  12  13
ATOM     13  C   UNL     1     -12.292  15.558  70.792  0.00  0.00    +0.145 A 
ATOM     14  C   UNL     1     -12.952  14.348  70.902  0.00  0.00    +0.037 A 
ATOM     15  C   UNL     1     -13.308  13.902  72.157  0.00  0.00    +0.003 A 
ATOM     16  C   UNL     1     -13.173  14.750  73.223  0.00  0.00    +0.000 A 
ATOM     17  C   UNL     1     -12.267  15.774  73.169  0.00  0.00    +0.003 A 
ATOM     18  C   UNL     1     -11.869  16.235  71.926  0.00  0.00    +0.037 A 
ENDBRANCH  12  13
ENDBRANCH   3  12
TORSDOF 4
ENDMDL
MODEL 8
REMARK VINA RESULT:      -6.0      3.205      6.035
REMARK  Name = 
REMARK  4 active torsions:
REMARK  status: ('A' for Active; 'I' for Inactive)
REMARK    1  A    between atoms: C_2  and  C_3
REMARK    2  A    between atoms: C_2  and  C_6
REMARK    3  A    between atoms: C_10  and  O_11
REMARK    4  A    between atoms: O_11  and  C_12
REMARK                            x       y       z     vdW  Elec       q    Type
REMARK                         _______ _______ _______ _____ _____    ______ ____
ROOT
ATOM      1  C   UNL     1     -12.366  14.898  70.677  0.00  0.00    -0.009 A 
ATOM      2  C   UNL     1     -11.932  15.834  69.764  0.00  0.00    +0.034 A 
ATOM      3  C   UNL     1     -11.384  15.387  68.580  0.00  0.00    +0.145 A 
ATOM      4  C   UNL     1     -11.202  14.026  68.368  0.00  0.00    +0.037 A 
ATOM      5  C   UNL     1     -11.386  13.186  69.458  0.00  0.00    +0.003 A 
ATOM      6  C   UNL     1     -12.349  13.602  70.367  0.00  0.00    -0.004 A 
ENDROOT
BRANCH   1   8
ATOM      7  C   UNL     1     -14.018  13.957  72.207  0.00  0.00    +0.017 C 
ATOM      8  C   UNL     1     -13.496  15.469  71.709  0.00  0.00    +0.126 C 
BRANCH   8   9
ATOM      9  C   UNL     1     -12.424  15.599  72.939  0.00  0.00    +0.368 C 
ATOM     10  O   UNL     1     -12.474  14.549  73.833  0.00  0.00    -0.245 OA
ATOM     11  O   UNL     1     -11.911  16.697  73.112  0.00  0.00    -0.245 OA
ENDBRANCH   8   9
ENDBRANCH   1   8
BRANCH   3  12
ATOM     12  O   UNL     1     -11.178  16.321  67.586  0.00  0.00    -0.454 OA
BRANCH  12  13
ATOM     13  C   UNL     1     -10.231  17.320  67.771  0.00  0.00    +0.145 A 
ATOM     14  C   UNL     1      -8.950  16.976  68.162  0.00  0.00    +0.037 A 
ATOM     15  C   UNL     1      -8.070  17.983  68.495  0.00  0.00    +0.003 A 
ATOM     16  C   UNL     1      -8.542  19.262  68.615  0.00  0.00    +0.000 A 
ATOM     17  C   UNL     1      -9.678  19.635  67.948  0.00  0.00    +0.003 A 
ATOM     18  C   UNL     1     -10.576  18.649  67.578  0.00  0.00    +0.037 A 
ENDBRANCH  12  13
ENDBRANCH   3  12
TORSDOF 4
ENDMDL
MODEL 9
REMARK VINA RESULT:      -5.9      3.181      6.198
REMARK  Name = 
REMARK  4 active torsions:
REMARK  status: ('A' for Active; 'I' for Inactive)
REMARK    1  A    between atoms: C_2  and  C_3
REMARK    2  A    between atoms: C_2  and  C_6
REMARK    3  A    between atoms: C_10  and  O_11
REMARK    4  A    between atoms: O_11  and  C_12
REMARK                            x       y       z     vdW  Elec       q    Type
REMARK                         _______ _______ _______ _____ _____    ______ ____
ROOT
ATOM      1  C   UNL     1     -11.711  14.550  71.075  0.00  0.00    -0.009 A 
ATOM      2  C   UNL     1     -11.430  15.771  70.500  0.00  0.00    +0.034 A 
ATOM      3  C   UNL     1     -11.517  15.882  69.127  0.00  0.00    +0.145 A 
ATOM      4  C   UNL     1     -11.796  14.762  68.355  0.00  0.00    +0.037 A 
ATOM      5  C   UNL     1     -11.763  13.529  68.993  0.00  0.00    +0.003 A 
ATOM      6  C   UNL     1     -12.157  13.544  70.324  0.00  0.00    -0.004 A 
ENDROOT
BRANCH   1   8
ATOM      7  C   UNL     1     -12.160  16.331  72.682  0.00  0.00    +0.017 C 
ATOM      8  C   UNL     1     -12.165  14.656  72.640  0.00  0.00    +0.126 C 
BRANCH   8   9
ATOM      9  C   UNL     1     -13.758  14.585  72.268  0.00  0.00    +0.368 C 
ATOM     10  O   UNL     1     -14.327  15.818  72.025  0.00  0.00    -0.245 OA
ATOM     11  O   UNL     1     -14.337  13.536  72.515  0.00  0.00    -0.245 OA
ENDBRANCH   8   9
ENDBRANCH   1   8
BRANCH   3  12
ATOM     12  O   UNL     1     -11.469  17.153  68.592  0.00  0.00    -0.454 OA
BRANCH  12  13
ATOM     13  C   UNL     1     -10.297  17.602  67.999  0.00  0.00    +0.145 A 
ATOM     14  C   UNL     1     -10.344  18.677  67.130  0.00  0.00    +0.037 A 
ATOM     15  C   UNL     1      -9.206  19.009  66.429  0.00  0.00    +0.003 A 
ATOM     16  C   UNL     1      -8.134  18.159  66.465  0.00  0.00    +0.000 A 
ATOM     17  C   UNL     1      -7.976  17.306  67.525  0.00  0.00    +0.003 A 
ATOM     18  C   UNL     1      -9.095  16.966  68.266  0.00  0.00    +0.037 A 
ENDBRANCH  12  13
ENDBRANCH   3  12
TORSDOF 4
ENDMDL
