MODEL 1
REMARK VINA RESULT:      -4.4      0.000      0.000
REMARK  Name = 
REMARK  0 active torsions:
REMARK  status: ('A' for Active; 'I' for Inactive)
REMARK                            x       y       z     vdW  Elec       q    Type
REMARK                         _______ _______ _______ _____ _____    ______ ____
ROOT
ATOM      1  C   UNL     1     -10.966  11.410  65.884  0.00  0.00    +0.221 C 
ATOM      2  N   UNL     1     -10.950  12.421  64.861  0.00  0.00    -0.222 N 
ATOM      3  C   UNL     1     -11.552  13.709  65.052  0.00  0.00    +0.474 C 
ATOM      4  N   UNL     1     -10.695  14.778  65.424  0.00  0.00    +0.011 NA
ATOM      5  C   UNL     1     -10.854  16.114  64.971  0.00  0.00    +0.544 C 
ATOM      6  N   UNL     1     -10.253  17.232  65.611  0.00  0.00    +0.136 NA
ATOM      7  N   UNL     1     -11.626  16.327  63.944  0.00  0.00    +0.136 NA
ATOM      8  N   UNL     1     -12.550  13.983  64.288  0.00  0.00    +0.129 NA
ATOM      9  C   UNL     1     -10.528  12.112  63.496  0.00  0.00    +0.221 C 
ENDROOT
TORSDOF 0
ENDMDL
MODEL 2
REMARK VINA RESULT:      -4.1      2.265      4.021
REMARK  Name = 
REMARK  0 active torsions:
REMARK  status: ('A' for Active; 'I' for Inactive)
REMARK                            x       y       z     vdW  Elec       q    Type
REMARK                         _______ _______ _______ _____ _____    ______ ____
ROOT
ATOM      1  C   UNL     1      -9.043  15.168  68.724  0.00  0.00    +0.221 C 
ATOM      2  N   UNL     1      -9.828  16.026  67.876  0.00  0.00    -0.222 N 
ATOM      3  C   UNL     1      -9.882  15.850  66.454  0.00  0.00    +0.474 C 
ATOM      4  N   UNL     1     -10.997  15.144  65.929  0.00  0.00    +0.011 NA
ATOM      5  C   UNL     1     -11.626  15.464  64.697  0.00  0.00    +0.544 C 
ATOM      6  N   UNL     1     -12.473  14.562  63.997  0.00  0.00    +0.136 NA
ATOM      7  N   UNL     1     -11.377  16.624  64.162  0.00  0.00    +0.136 NA
ATOM      8  N   UNL     1      -9.398  16.811  65.749  0.00  0.00    +0.129 NA
ATOM      9  C   UNL     1     -10.423  17.260  68.388  0.00  0.00    +0.221 C 
ENDROOT
TORSDOF 0
ENDMDL
MODEL 3
REMARK VINA RESULT:      -4.1      1.142      1.355
REMARK  Name = 
REMARK  0 active torsions:
REMARK  status: ('A' for Active; 'I' for Inactive)
REMARK                            x       y       z     vdW  Elec       q    Type
REMARK                         _______ _______ _______ _____ _____    ______ ____
ROOT
ATOM      1  C   UNL     1      -9.332  11.372  66.123  0.00  0.00    +0.221 C 
ATOM      2  N   UNL     1     -10.234  11.883  65.125  0.00  0.00    -0.222 N 
ATOM      3  C   UNL     1     -11.114  12.986  65.386  0.00  0.00    +0.474 C 
ATOM      4  N   UNL     1     -10.693  14.270  64.948  0.00  0.00    +0.011 NA
ATOM      5  C   UNL     1     -11.574  15.258  64.434  0.00  0.00    +0.544 C 
ATOM      6  N   UNL     1     -11.236  16.636  64.349  0.00  0.00    +0.136 NA
ATOM      7  N   UNL     1     -12.766  14.886  64.065  0.00  0.00    +0.136 NA
ATOM      8  N   UNL     1     -12.373  12.724  65.345  0.00  0.00    +0.129 NA
ATOM      9  C   UNL     1     -10.470  11.163  63.875  0.00  0.00    +0.221 C 
ENDROOT
TORSDOF 0
ENDMDL
MODEL 4
REMARK VINA RESULT:      -3.8      5.493      6.239
REMARK  Name = 
REMARK  0 active torsions:
REMARK  status: ('A' for Active; 'I' for Inactive)
REMARK                            x       y       z     vdW  Elec       q    Type
REMARK                         _______ _______ _______ _____ _____    ______ ____
ROOT
ATOM      1  C   UNL     1     -13.534  12.996  72.288  0.00  0.00    +0.221 C 
ATOM      2  N   UNL     1     -13.541  14.212  71.519  0.00  0.00    -0.222 N 
ATOM      3  C   UNL     1     -12.366  14.706  70.863  0.00  0.00    +0.474 C 
ATOM      4  N   UNL     1     -12.224  14.420  69.480  0.00  0.00    +0.011 NA
ATOM      5  C   UNL     1     -11.655  15.319  68.540  0.00  0.00    +0.544 C 
ATOM      6  N   UNL     1     -11.175  14.914  67.265  0.00  0.00    +0.136 NA
ATOM      7  N   UNL     1     -11.528  16.568  68.884  0.00  0.00    +0.136 NA
ATOM      8  N   UNL     1     -11.917  15.835  71.288  0.00  0.00    +0.129 NA
ATOM      9  C   UNL     1     -14.681  15.126  71.557  0.00  0.00    +0.221 C 
ENDROOT
TORSDOF 0
ENDMDL
MODEL 5
REMARK VINA RESULT:      -3.8      2.083      3.049
REMARK  Name = 
REMARK  0 active torsions:
REMARK  status: ('A' for Active; 'I' for Inactive)
REMARK                            x       y       z     vdW  Elec       q    Type
REMARK                         _______ _______ _______ _____ _____    ______ ____
ROOT
ATOM      1  C   UNL     1      -8.760  12.677  67.987  0.00  0.00    +0.221 C 
ATOM      2  N   UNL     1      -9.601  12.149  66.945  0.00  0.00    -0.222 N 
ATOM      3  C   UNL     1     -10.927  12.643  66.711  0.00  0.00    +0.474 C 
ATOM      4  N   UNL     1     -11.092  13.598  65.674  0.00  0.00    +0.011 NA
ATOM      5  C   UNL     1     -12.226  13.653  64.821  0.00  0.00    +0.544 C 
ATOM      6  N   UNL     1     -12.570  14.798  64.053  0.00  0.00    +0.136 NA
ATOM      7  N   UNL     1     -13.013  12.616  64.779  0.00  0.00    +0.136 NA
ATOM      8  N   UNL     1     -11.882  11.803  66.907  0.00  0.00    +0.129 NA
ATOM      9  C   UNL     1      -9.239  10.931  66.223  0.00  0.00    +0.221 C 
ENDROOT
TORSDOF 0
ENDMDL
MODEL 6
REMARK VINA RESULT:      -3.7      2.480      3.972
REMARK  Name = 
REMARK  0 active torsions:
REMARK  status: ('A' for Active; 'I' for Inactive)
REMARK                            x       y       z     vdW  Elec       q    Type
REMARK                         _______ _______ _______ _____ _____    ______ ____
ROOT
ATOM      1  C   UNL     1     -11.795  11.760  69.344  0.00  0.00    +0.221 C 
ATOM      2  N   UNL     1     -11.696  12.777  68.331  0.00  0.00    -0.222 N 
ATOM      3  C   UNL     1     -11.231  12.490  67.005  0.00  0.00    +0.474 C 
ATOM      4  N   UNL     1     -12.214  12.289  66.001  0.00  0.00    +0.011 NA
ATOM      5  C   UNL     1     -12.069  12.717  64.654  0.00  0.00    +0.544 C 
ATOM      6  N   UNL     1     -12.853  12.205  63.585  0.00  0.00    +0.136 NA
ATOM      7  N   UNL     1     -11.140  13.588  64.384  0.00  0.00    +0.136 NA
ATOM      8  N   UNL     1     -10.131  13.062  66.658  0.00  0.00    +0.129 NA
ATOM      9  C   UNL     1     -11.840  14.193  68.663  0.00  0.00    +0.221 C 
ENDROOT
TORSDOF 0
ENDMDL
MODEL 7
REMARK VINA RESULT:      -3.7      2.497      3.874
REMARK  Name = 
REMARK  0 active torsions:
REMARK  status: ('A' for Active; 'I' for Inactive)
REMARK                            x       y       z     vdW  Elec       q    Type
REMARK                         _______ _______ _______ _____ _____    ______ ____
ROOT
ATOM      1  C   UNL     1      -9.645  11.074  68.313  0.00  0.00    +0.221 C 
ATOM      2  N   UNL     1     -10.850  11.815  68.050  0.00  0.00    -0.222 N 
ATOM      3  C   UNL     1     -11.018  12.600  66.861  0.00  0.00    +0.474 C 
ATOM      4  N   UNL     1     -11.739  12.010  65.789  0.00  0.00    +0.011 NA
ATOM      5  C   UNL     1     -12.613  12.730  64.933  0.00  0.00    +0.544 C 
ATOM      6  N   UNL     1     -13.034  12.247  63.664  0.00  0.00    +0.136 NA
ATOM      7  N   UNL     1     -13.010  13.910  65.312  0.00  0.00    +0.136 NA
ATOM      8  N   UNL     1     -11.141  13.868  67.036  0.00  0.00    +0.129 NA
ATOM      9  C   UNL     1     -11.870  11.996  69.081  0.00  0.00    +0.221 C 
ENDROOT
TORSDOF 0
ENDMDL
MODEL 8
REMARK VINA RESULT:      -3.7      1.503      2.537
REMARK  Name = 
REMARK  0 active torsions:
REMARK  status: ('A' for Active; 'I' for Inactive)
REMARK                            x       y       z     vdW  Elec       q    Type
REMARK                         _______ _______ _______ _____ _____    ______ ____
ROOT
ATOM      1  C   UNL     1     -10.568  11.285  66.336  0.00  0.00    +0.221 C 
ATOM      2  N   UNL     1     -10.588  12.656  66.773  0.00  0.00    -0.222 N 
ATOM      3  C   UNL     1     -10.067  13.721  65.965  0.00  0.00    +0.474 C 
ATOM      4  N   UNL     1     -10.998  14.472  65.201  0.00  0.00    +0.011 NA
ATOM      5  C   UNL     1     -10.889  15.870  64.972  0.00  0.00    +0.544 C 
ATOM      6  N   UNL     1     -11.581  16.545  63.930  0.00  0.00    +0.136 NA
ATOM      7  N   UNL     1     -10.079  16.554  65.727  0.00  0.00    +0.136 NA
ATOM      8  N   UNL     1      -9.048  14.343  66.444  0.00  0.00    +0.129 NA
ATOM      9  C   UNL     1     -10.923  13.008  68.151  0.00  0.00    +0.221 C 
ENDROOT
TORSDOF 0
ENDMDL
MODEL 9
REMARK VINA RESULT:      -3.7      3.986      4.678
REMARK  Name = 
REMARK  0 active torsions:
REMARK  status: ('A' for Active; 'I' for Inactive)
REMARK                            x       y       z     vdW  Elec       q    Type
REMARK                         _______ _______ _______ _____ _____    ______ ____
ROOT
ATOM      1  C   UNL     1     -11.353  15.914  70.597  0.00  0.00    +0.221 C 
ATOM      2  N   UNL     1     -10.494  16.052  69.451  0.00  0.00    -0.222 N 
ATOM      3  C   UNL     1     -10.969  16.562  68.198  0.00  0.00    +0.474 C 
ATOM      4  N   UNL     1     -10.727  17.933  67.921  0.00  0.00    +0.011 NA
ATOM      5  C   UNL     1     -10.421  18.438  66.629  0.00  0.00    +0.544 C 
ATOM      6  N   UNL     1     -10.546  19.809  66.277  0.00  0.00    +0.136 NA
ATOM      7  N   UNL     1     -10.051  17.592  65.712  0.00  0.00    +0.136 NA
ATOM      8  N   UNL     1     -10.944  15.740  67.209  0.00  0.00    +0.129 NA
ATOM      9  C   UNL     1      -9.155  15.464  69.432  0.00  0.00    +0.221 C 
ENDROOT
TORSDOF 0
ENDMDL
