MODEL 1
REMARK VINA RESULT:      -5.1      0.000      0.000
REMARK  Name = 
REMARK  5 active torsions:
REMARK  status: ('A' for Active; 'I' for Inactive)
REMARK    1  A    between atoms: O_2  and  C_3
REMARK    2  A    between atoms: C_8  and  O_9
REMARK    3  A    between atoms: O_9  and  C_10
REMARK    4  A    between atoms: C_10  and  C_11
REMARK    5  A    between atoms: C_11  and  C_13
REMARK                            x       y       z     vdW  Elec       q    Type
REMARK                         _______ _______ _______ _____ _____    ______ ____
ROOT
ATOM      1  C   UNL     1     -11.475  15.755  69.063  0.00  0.00    +0.172 A 
ATOM      2  C   UNL     1     -11.653  14.675  68.211  0.00  0.00    +0.172 A 
ATOM      3  C   UNL     1     -11.811  13.425  68.799  0.00  0.00    +0.040 A 
ATOM      4  C   UNL     1     -12.179  13.285  70.132  0.00  0.00    +0.003 A 
ATOM      5  C   UNL     1     -12.505  14.434  70.824  0.00  0.00    +0.003 A 
ATOM      6  C   UNL     1     -11.930  15.602  70.362  0.00  0.00    +0.040 A 
ENDROOT
BRANCH   1   8
ATOM      7  C   UNL     1     -10.204  17.619  68.357  0.00  0.00    +0.253 C 
ATOM      8  O   UNL     1     -11.381  17.011  68.453  0.00  0.00    -0.468 OA
ENDBRANCH   1   8
BRANCH   2   9
ATOM      9  O   UNL     1     -11.705  14.775  66.842  0.00  0.00    -0.470 OA
BRANCH   9  10
ATOM     10  C   UNL     1     -12.353  13.835  65.988  0.00  0.00    +0.241 C 
BRANCH  10  11
ATOM     11  C   UNL     1     -11.504  14.078  64.577  0.00  0.00    +0.228 C 
ATOM     12  O   UNL     1     -12.641  14.910  63.979  0.00  0.00    -0.216 OA
BRANCH  11  13
ATOM     13  C   UNL     1     -12.103  12.685  63.894  0.00  0.00    +0.219 C 
ATOM     14  O   UNL     1     -13.202  12.502  64.726  0.00  0.00    -0.217 OA
ENDBRANCH  11  13
ENDBRANCH  10  11
ENDBRANCH   9  10
ENDBRANCH   2   9
TORSDOF 5
ENDMDL
MODEL 2
REMARK VINA RESULT:      -4.9      3.071      5.644
REMARK  Name = 
REMARK  5 active torsions:
REMARK  status: ('A' for Active; 'I' for Inactive)
REMARK    1  A    between atoms: O_2  and  C_3
REMARK    2  A    between atoms: C_8  and  O_9
REMARK    3  A    between atoms: O_9  and  C_10
REMARK    4  A    between atoms: C_10  and  C_11
REMARK    5  A    between atoms: C_11  and  C_13
REMARK                            x       y       z     vdW  Elec       q    Type
REMARK                         _______ _______ _______ _____ _____    ______ ____
ROOT
ATOM      1  C   UNL     1     -11.217  15.985  68.356  0.00  0.00    +0.172 A 
ATOM      2  C   UNL     1     -11.908  15.324  69.361  0.00  0.00    +0.172 A 
ATOM      3  C   UNL     1     -11.954  13.936  69.290  0.00  0.00    +0.040 A 
ATOM      4  C   UNL     1     -11.050  13.213  68.522  0.00  0.00    +0.003 A 
ATOM      5  C   UNL     1     -10.020  13.913  67.927  0.00  0.00    +0.003 A 
ATOM      6  C   UNL     1     -10.266  15.247  67.670  0.00  0.00    +0.040 A 
ENDROOT
BRANCH   1   8
ATOM      7  C   UNL     1      -9.943  17.963  68.584  0.00  0.00    +0.253 C 
ATOM      8  O   UNL     1     -11.130  17.375  68.481  0.00  0.00    -0.468 OA
ENDBRANCH   1   8
BRANCH   2   9
ATOM      9  O   UNL     1     -12.519  15.954  70.417  0.00  0.00    -0.470 OA
BRANCH   9  10
ATOM     10  C   UNL     1     -12.011  15.974  71.749  0.00  0.00    +0.241 C 
BRANCH  10  11
ATOM     11  C   UNL     1     -13.100  14.964  72.500  0.00  0.00    +0.228 C 
ATOM     12  O   UNL     1     -14.079  16.115  72.739  0.00  0.00    -0.216 OA
BRANCH  11  13
ATOM     13  C   UNL     1     -12.394  15.193  73.988  0.00  0.00    +0.219 C 
ATOM     14  O   UNL     1     -12.850  16.483  74.238  0.00  0.00    -0.217 OA
ENDBRANCH  11  13
ENDBRANCH  10  11
ENDBRANCH   9  10
ENDBRANCH   2   9
TORSDOF 5
ENDMDL
MODEL 3
REMARK VINA RESULT:      -4.9      3.170      4.696
REMARK  Name = 
REMARK  5 active torsions:
REMARK  status: ('A' for Active; 'I' for Inactive)
REMARK    1  A    between atoms: O_2  and  C_3
REMARK    2  A    between atoms: C_8  and  O_9
REMARK    3  A    between atoms: O_9  and  C_10
REMARK    4  A    between atoms: C_10  and  C_11
REMARK    5  A    between atoms: C_11  and  C_13
REMARK                            x       y       z     vdW  Elec       q    Type
REMARK                         _______ _______ _______ _____ _____    ______ ____
ROOT
ATOM      1  C   UNL     1      -8.276  18.491  66.469  0.00  0.00    +0.172 A 
ATOM      2  C   UNL     1      -9.586  18.035  66.428  0.00  0.00    +0.172 A 
ATOM      3  C   UNL     1     -10.490  18.632  67.301  0.00  0.00    +0.040 A 
ATOM      4  C   UNL     1     -10.235  19.866  67.887  0.00  0.00    +0.003 A 
ATOM      5  C   UNL     1      -9.105  20.542  67.476  0.00  0.00    +0.003 A 
ATOM      6  C   UNL     1      -8.077  19.760  66.986  0.00  0.00    +0.040 A 
ENDROOT
BRANCH   1   8
ATOM      7  C   UNL     1      -6.143  18.347  65.462  0.00  0.00    +0.253 C 
ATOM      8  O   UNL     1      -7.399  17.921  65.541  0.00  0.00    -0.468 OA
ENDBRANCH   1   8
BRANCH   2   9
ATOM      9  O   UNL     1     -10.035  17.060  65.573  0.00  0.00    -0.470 OA
BRANCH   9  10
ATOM     10  C   UNL     1     -10.664  15.849  65.987  0.00  0.00    +0.241 C 
BRANCH  10  11
ATOM     11  C   UNL     1     -10.914  15.121  64.512  0.00  0.00    +0.228 C 
ATOM     12  O   UNL     1     -11.631  16.358  63.967  0.00  0.00    -0.216 OA
BRANCH  11  13
ATOM     13  C   UNL     1     -12.351  14.448  65.008  0.00  0.00    +0.219 C 
ATOM     14  O   UNL     1     -12.656  13.735  63.854  0.00  0.00    -0.217 OA
ENDBRANCH  11  13
ENDBRANCH  10  11
ENDBRANCH   9  10
ENDBRANCH   2   9
TORSDOF 5
ENDMDL
MODEL 4
REMARK VINA RESULT:      -4.8      1.557      2.072
REMARK  Name = 
REMARK  5 active torsions:
REMARK  status: ('A' for Active; 'I' for Inactive)
REMARK    1  A    between atoms: O_2  and  C_3
REMARK    2  A    between atoms: C_8  and  O_9
REMARK    3  A    between atoms: O_9  and  C_10
REMARK    4  A    between atoms: C_10  and  C_11
REMARK    5  A    between atoms: C_11  and  C_13
REMARK                            x       y       z     vdW  Elec       q    Type
REMARK                         _______ _______ _______ _____ _____    ______ ____
ROOT
ATOM      1  C   UNL     1     -11.804  13.696  69.445  0.00  0.00    +0.172 A 
ATOM      2  C   UNL     1     -11.755  13.318  68.111  0.00  0.00    +0.172 A 
ATOM      3  C   UNL     1     -11.485  11.980  67.843  0.00  0.00    +0.040 A 
ATOM      4  C   UNL     1     -11.653  10.992  68.806  0.00  0.00    +0.003 A 
ATOM      5  C   UNL     1     -12.219  11.367  70.007  0.00  0.00    +0.003 A 
ATOM      6  C   UNL     1     -12.055  12.691  70.365  0.00  0.00    +0.040 A 
ENDROOT
BRANCH   1   8
ATOM      7  C   UNL     1     -12.787  15.360  70.805  0.00  0.00    +0.253 C 
ATOM      8  O   UNL     1     -12.139  15.031  69.693  0.00  0.00    -0.468 OA
ENDBRANCH   1   8
BRANCH   2   9
ATOM      9  O   UNL     1     -11.978  14.173  67.060  0.00  0.00    -0.470 OA
BRANCH   9  10
ATOM     10  C   UNL     1     -12.683  13.824  65.871  0.00  0.00    +0.241 C 
BRANCH  10  11
ATOM     11  C   UNL     1     -11.554  14.242  64.721  0.00  0.00    +0.228 C 
ATOM     12  O   UNL     1     -12.611  14.950  63.870  0.00  0.00    -0.216 OA
BRANCH  11  13
ATOM     13  C   UNL     1     -11.772  12.818  63.889  0.00  0.00    +0.219 C 
ATOM     14  O   UNL     1     -13.013  12.463  64.408  0.00  0.00    -0.217 OA
ENDBRANCH  11  13
ENDBRANCH  10  11
ENDBRANCH   9  10
ENDBRANCH   2   9
TORSDOF 5
ENDMDL
MODEL 5
REMARK VINA RESULT:      -4.8      2.030      4.009
REMARK  Name = 
REMARK  5 active torsions:
REMARK  status: ('A' for Active; 'I' for Inactive)
REMARK    1  A    between atoms: O_2  and  C_3
REMARK    2  A    between atoms: C_8  and  O_9
REMARK    3  A    between atoms: O_9  and  C_10
REMARK    4  A    between atoms: C_10  and  C_11
REMARK    5  A    between atoms: C_11  and  C_13
REMARK                            x       y       z     vdW  Elec       q    Type
REMARK                         _______ _______ _______ _____ _____    ______ ____
ROOT
ATOM      1  C   UNL     1     -10.052  17.504  67.857  0.00  0.00    +0.172 A 
ATOM      2  C   UNL     1     -10.168  17.599  66.478  0.00  0.00    +0.172 A 
ATOM      3  C   UNL     1     -10.481  18.850  65.956  0.00  0.00    +0.040 A 
ATOM      4  C   UNL     1     -10.294  20.016  66.688  0.00  0.00    +0.003 A 
ATOM      5  C   UNL     1      -9.668  19.903  67.912  0.00  0.00    +0.003 A 
ATOM      6  C   UNL     1      -9.785  18.679  68.540  0.00  0.00    +0.040 A 
ENDROOT
BRANCH   1   8
ATOM      7  C   UNL     1     -10.363  15.696  69.349  0.00  0.00    +0.253 C 
ATOM      8  O   UNL     1      -9.676  16.252  68.357  0.00  0.00    -0.468 OA
ENDBRANCH   1   8
BRANCH   2   9
ATOM      9  O   UNL     1      -9.972  16.550  65.615  0.00  0.00    -0.470 OA
BRANCH   9  10
ATOM     10  C   UNL     1     -11.016  15.863  64.928  0.00  0.00    +0.241 C 
BRANCH  10  11
ATOM     11  C   UNL     1     -10.967  14.392  65.705  0.00  0.00    +0.228 C 
ATOM     12  O   UNL     1     -10.402  13.699  64.462  0.00  0.00    -0.216 OA
BRANCH  11  13
ATOM     13  C   UNL     1     -12.526  14.024  65.258  0.00  0.00    +0.219 C 
ATOM     14  O   UNL     1     -12.570  14.730  64.060  0.00  0.00    -0.217 OA
ENDBRANCH  11  13
ENDBRANCH  10  11
ENDBRANCH   9  10
ENDBRANCH   2   9
TORSDOF 5
ENDMDL
MODEL 6
REMARK VINA RESULT:      -4.7      3.199      6.329
REMARK  Name = 
REMARK  5 active torsions:
REMARK  status: ('A' for Active; 'I' for Inactive)
REMARK    1  A    between atoms: O_2  and  C_3
REMARK    2  A    between atoms: C_8  and  O_9
REMARK    3  A    between atoms: O_9  and  C_10
REMARK    4  A    between atoms: C_10  and  C_11
REMARK    5  A    between atoms: C_11  and  C_13
REMARK                            x       y       z     vdW  Elec       q    Type
REMARK                         _______ _______ _______ _____ _____    ______ ____
ROOT
ATOM      1  C   UNL     1     -11.621  12.284  68.968  0.00  0.00    +0.172 A 
ATOM      2  C   UNL     1     -11.925  13.529  69.500  0.00  0.00    +0.172 A 
ATOM      3  C   UNL     1     -11.768  14.629  68.663  0.00  0.00    +0.040 A 
ATOM      4  C   UNL     1     -11.712  14.494  67.281  0.00  0.00    +0.003 A 
ATOM      5  C   UNL     1     -11.941  13.239  66.756  0.00  0.00    +0.003 A 
ATOM      6  C   UNL     1     -11.656  12.174  67.588  0.00  0.00    +0.040 A 
ENDROOT
BRANCH   1   8
ATOM      7  C   UNL     1     -10.923  10.237  69.922  0.00  0.00    +0.253 C 
ATOM      8  O   UNL     1     -11.844  11.187  69.806  0.00  0.00    -0.468 OA
ENDBRANCH   1   8
BRANCH   2   9
ATOM      9  O   UNL     1     -12.385  13.728  70.778  0.00  0.00    -0.470 OA
BRANCH   9  10
ATOM     10  C   UNL     1     -12.493  15.003  71.408  0.00  0.00    +0.241 C 
BRANCH  10  11
ATOM     11  C   UNL     1     -13.504  14.626  72.675  0.00  0.00    +0.228 C 
ATOM     12  O   UNL     1     -14.161  16.007  72.627  0.00  0.00    -0.216 OA
BRANCH  11  13
ATOM     13  C   UNL     1     -12.396  15.141  73.804  0.00  0.00    +0.219 C 
ATOM     14  O   UNL     1     -12.956  16.380  74.094  0.00  0.00    -0.217 OA
ENDBRANCH  11  13
ENDBRANCH  10  11
ENDBRANCH   9  10
ENDBRANCH   2   9
TORSDOF 5
ENDMDL
MODEL 7
REMARK VINA RESULT:      -4.7      3.128      6.193
REMARK  Name = 
REMARK  5 active torsions:
REMARK  status: ('A' for Active; 'I' for Inactive)
REMARK    1  A    between atoms: O_2  and  C_3
REMARK    2  A    between atoms: C_8  and  O_9
REMARK    3  A    between atoms: O_9  and  C_10
REMARK    4  A    between atoms: C_10  and  C_11
REMARK    5  A    between atoms: C_11  and  C_13
REMARK                            x       y       z     vdW  Elec       q    Type
REMARK                         _______ _______ _______ _____ _____    ______ ____
ROOT
ATOM      1  C   UNL     1     -11.858  12.374  69.525  0.00  0.00    +0.172 A 
ATOM      2  C   UNL     1     -12.495  12.512  70.750  0.00  0.00    +0.172 A 
ATOM      3  C   UNL     1     -12.863  11.342  71.406  0.00  0.00    +0.040 A 
ATOM      4  C   UNL     1     -12.290  10.116  71.091  0.00  0.00    +0.003 A 
ATOM      5  C   UNL     1     -11.249  10.116  70.186  0.00  0.00    +0.003 A 
ATOM      6  C   UNL     1     -11.230  11.163  69.286  0.00  0.00    +0.040 A 
ENDROOT
BRANCH   1   8
ATOM      7  C   UNL     1     -11.728  13.788  67.635  0.00  0.00    +0.253 C 
ATOM      8  O   UNL     1     -11.442  13.561  68.913  0.00  0.00    -0.468 OA
ENDBRANCH   1   8
BRANCH   2   9
ATOM      9  O   UNL     1     -12.757  13.719  71.350  0.00  0.00    -0.470 OA
BRANCH   9  10
ATOM     10  C   UNL     1     -13.680  13.905  72.421  0.00  0.00    +0.241 C 
BRANCH  10  11
ATOM     11  C   UNL     1     -13.505  15.538  72.687  0.00  0.00    +0.228 C 
ATOM     12  O   UNL     1     -12.376  15.635  71.658  0.00  0.00    -0.216 OA
BRANCH  11  13
ATOM     13  C   UNL     1     -12.420  15.293  73.923  0.00  0.00    +0.219 C 
ATOM     14  O   UNL     1     -12.614  16.486  74.610  0.00  0.00    -0.217 OA
ENDBRANCH  11  13
ENDBRANCH  10  11
ENDBRANCH   9  10
ENDBRANCH   2   9
TORSDOF 5
ENDMDL
MODEL 8
REMARK VINA RESULT:      -4.6      2.453      5.701
REMARK  Name = 
REMARK  5 active torsions:
REMARK  status: ('A' for Active; 'I' for Inactive)
REMARK    1  A    between atoms: O_2  and  C_3
REMARK    2  A    between atoms: C_8  and  O_9
REMARK    3  A    between atoms: O_9  and  C_10
REMARK    4  A    between atoms: C_10  and  C_11
REMARK    5  A    between atoms: C_11  and  C_13
REMARK                            x       y       z     vdW  Elec       q    Type
REMARK                         _______ _______ _______ _____ _____    ______ ____
ROOT
ATOM      1  C   UNL     1     -11.162  14.964  68.045  0.00  0.00    +0.172 A 
ATOM      2  C   UNL     1     -11.425  15.998  68.931  0.00  0.00    +0.172 A 
ATOM      3  C   UNL     1     -10.558  17.086  68.908  0.00  0.00    +0.040 A 
ATOM      4  C   UNL     1      -9.731  17.338  67.821  0.00  0.00    +0.003 A 
ATOM      5  C   UNL     1      -9.887  16.541  66.706  0.00  0.00    +0.003 A 
ATOM      6  C   UNL     1     -10.400  15.279  66.932  0.00  0.00    +0.040 A 
ENDROOT
BRANCH   1   8
ATOM      7  C   UNL     1     -11.806  12.787  67.386  0.00  0.00    +0.253 C 
ATOM      8  O   UNL     1     -12.081  13.909  68.042  0.00  0.00    -0.468 OA
ENDBRANCH   1   8
BRANCH   2   9
ATOM      9  O   UNL     1     -12.489  16.017  69.798  0.00  0.00    -0.470 OA
BRANCH   9  10
ATOM     10  C   UNL     1     -12.420  15.634  71.170  0.00  0.00    +0.241 C 
BRANCH  10  11
ATOM     11  C   UNL     1     -13.966  15.063  71.401  0.00  0.00    +0.228 C 
ATOM     12  O   UNL     1     -14.196  16.017  72.575  0.00  0.00    -0.216 OA
BRANCH  11  13
ATOM     13  C   UNL     1     -13.444  13.858  72.422  0.00  0.00    +0.219 C 
ATOM     14  O   UNL     1     -12.923  14.656  73.435  0.00  0.00    -0.217 OA
ENDBRANCH  11  13
ENDBRANCH  10  11
ENDBRANCH   9  10
ENDBRANCH   2   9
TORSDOF 5
ENDMDL
MODEL 9
REMARK VINA RESULT:      -4.5      2.358      3.808
REMARK  Name = 
REMARK  5 active torsions:
REMARK  status: ('A' for Active; 'I' for Inactive)
REMARK    1  A    between atoms: O_2  and  C_3
REMARK    2  A    between atoms: C_8  and  O_9
REMARK    3  A    between atoms: O_9  and  C_10
REMARK    4  A    between atoms: C_10  and  C_11
REMARK    5  A    between atoms: C_11  and  C_13
REMARK                            x       y       z     vdW  Elec       q    Type
REMARK                         _______ _______ _______ _____ _____    ______ ____
ROOT
ATOM      1  C   UNL     1     -12.873  13.100  71.163  0.00  0.00    +0.172 A 
ATOM      2  C   UNL     1     -12.297  14.135  70.439  0.00  0.00    +0.172 A 
ATOM      3  C   UNL     1     -12.651  15.431  70.799  0.00  0.00    +0.040 A 
ATOM      4  C   UNL     1     -13.209  15.719  72.039  0.00  0.00    +0.003 A 
ATOM      5  C   UNL     1     -13.287  14.690  72.954  0.00  0.00    +0.003 A 
ATOM      6  C   UNL     1     -13.343  13.414  72.427  0.00  0.00    +0.040 A 
ENDROOT
BRANCH   1   8
ATOM      7  C   UNL     1     -12.932  10.760  71.487  0.00  0.00    +0.253 C 
ATOM      8  O   UNL     1     -12.456  11.808  70.825  0.00  0.00    -0.468 OA
ENDBRANCH   1   8
BRANCH   2   9
ATOM      9  O   UNL     1     -11.396  13.952  69.420  0.00  0.00    -0.470 OA
BRANCH   9  10
ATOM     10  C   UNL     1     -11.698  14.113  68.036  0.00  0.00    +0.241 C 
BRANCH  10  11
ATOM     11  C   UNL     1     -10.524  13.148  67.358  0.00  0.00    +0.228 C 
ATOM     12  O   UNL     1     -10.335  14.116  66.188  0.00  0.00    -0.216 OA
BRANCH  11  13
ATOM     13  C   UNL     1     -11.644  12.263  66.505  0.00  0.00    +0.219 C 
ATOM     14  O   UNL     1     -11.981  11.345  67.495  0.00  0.00    -0.217 OA
ENDBRANCH  11  13
ENDBRANCH  10  11
ENDBRANCH   9  10
ENDBRANCH   2   9
TORSDOF 5
ENDMDL
