MODEL 1
REMARK VINA RESULT:      -4.5      0.000      0.000
REMARK  Name = 
REMARK  20 active torsions:
REMARK  status: ('A' for Active; 'I' for Inactive)
REMARK    1  A    between atoms: C_2  and  C_3
REMARK    2  A    between atoms: C_3  and  C_4
REMARK    3  A    between atoms: C_4  and  C_5
REMARK    4  A    between atoms: C_5  and  C_6
REMARK    5  A    between atoms: C_6  and  C_7
REMARK    6  A    between atoms: C_7  and  C_8
REMARK    7  A    between atoms: C_8  and  C_9
REMARK    8  A    between atoms: C_9  and  C_10
REMARK    9  A    between atoms: C_10  and  C_11
REMARK   10  A    between atoms: C_11  and  C_12
REMARK   11  A    between atoms: C_12  and  C_13
REMARK   12  A    between atoms: C_13  and  C_14
REMARK   13  A    between atoms: C_14  and  C_15
REMARK   14  A    between atoms: C_15  and  C_16
REMARK   15  A    between atoms: C_16  and  O_17
REMARK   16  A    between atoms: O_17  and  P_18
REMARK   17  A    between atoms: P_18  and  O_21
REMARK   18  A    between atoms: O_21  and  C_22
REMARK   19  A    between atoms: C_22  and  C_23
REMARK   20  A    between atoms: C_23  and  N_24
REMARK                            x       y       z     vdW  Elec       q    Type
REMARK                         _______ _______ _______ _____ _____    ______ ____
ROOT
ATOM      1  C   UNL     1      -9.832   9.517  65.612  0.00  0.00    +0.003 C 
ENDROOT
BRANCH   1   2
ATOM      2  C   UNL     1     -10.477   9.900  66.919  0.00  0.00    +0.000 C 
BRANCH   2   3
ATOM      3  C   UNL     1      -9.420   9.780  67.993  0.00  0.00    +0.000 C 
BRANCH   3   4
ATOM      4  C   UNL     1     -10.072  10.136  69.308  0.00  0.00    +0.000 C 
BRANCH   4   5
ATOM      5  C   UNL     1     -11.498  10.548  69.020  0.00  0.00    +0.000 C 
BRANCH   5   6
ATOM      6  C   UNL     1     -12.254  10.543  70.334  0.00  0.00    +0.000 C 
BRANCH   6   7
ATOM      7  C   UNL     1     -11.525   9.703  71.354  0.00  0.00    +0.000 C 
BRANCH   7   8
ATOM      8  C   UNL     1     -12.416   8.583  71.823  0.00  0.00    +0.000 C 
BRANCH   8   9
ATOM      9  C   UNL     1     -11.597   7.364  72.166  0.00  0.00    +0.000 C 
BRANCH   9  10
ATOM     10  C   UNL     1     -11.568   6.404  70.986  0.00  0.00    +0.000 C 
BRANCH  10  11
ATOM     11  C   UNL     1     -10.134   5.994  70.714  0.00  0.00    +0.000 C 
BRANCH  11  12
ATOM     12  C   UNL     1      -9.835   6.272  69.260  0.00  0.00    +0.000 C 
BRANCH  12  14
ATOM     13  C   UNL     1     -10.938   6.226  67.086  0.00  0.00    +0.000 C 
ATOM     14  C   UNL     1     -11.118   6.468  68.494  0.00  0.00    +0.000 C 
ENDBRANCH  12  14
ENDBRANCH  11  12
ENDBRANCH  10  11
ENDBRANCH   9  10
ENDBRANCH   8   9
ENDBRANCH   7   8
ENDBRANCH   6   7
ENDBRANCH   5   6
ENDBRANCH   4   5
ENDBRANCH   3   4
ENDBRANCH   2   3
ENDBRANCH   1   2
BRANCH   1  15
ATOM     15  C   UNL     1      -9.373  10.790  64.924  0.00  0.00    +0.033 C 
BRANCH  15  16
ATOM     16  C   UNL     1     -10.335  11.158  63.818  0.00  0.00    +0.149 C 
BRANCH  16  17
ATOM     17  O   UNL     1     -10.527  12.532  63.818  0.00  0.00    -0.314 OA
BRANCH  17  18
ATOM     18  P   UNL     1     -12.127  12.882  64.229  0.00  0.00    +0.214 P 
ATOM     19  O   UNL     1     -13.180  11.895  63.349  0.00  0.00    -0.437 OA
ATOM     20  O   UNL     1     -12.466  14.324  63.899  0.00  0.00    -0.517 OA
BRANCH  18  21
ATOM     21  O   UNL     1     -12.367  12.648  65.885  0.00  0.00    -0.308 OA
BRANCH  21  22
ATOM     22  C   UNL     1     -11.993  13.771  66.628  0.00  0.00    +0.210 C 
BRANCH  22  23
ATOM     23  C   UNL     1     -10.557  13.583  67.028  0.00  0.00    +0.142 C 
BRANCH  23  24
ATOM     24  N   UNL     1      -9.886  14.825  67.348  0.00  0.00    +0.313 N 
ATOM     25  C   UNL     1      -9.092  15.306  66.240  0.00  0.00    +0.171 C 
ATOM     26  C   UNL     1      -9.085  14.742  68.543  0.00  0.00    +0.171 C 
ATOM     27  C   UNL     1     -10.936  15.815  67.570  0.00  0.00    +0.171 C 
ENDBRANCH  23  24
ENDBRANCH  22  23
ENDBRANCH  21  22
ENDBRANCH  18  21
ENDBRANCH  17  18
ENDBRANCH  16  17
ENDBRANCH  15  16
ENDBRANCH   1  15
TORSDOF 20
ENDMDL
MODEL 2
REMARK VINA RESULT:      -4.5      4.352      6.785
REMARK  Name = 
REMARK  20 active torsions:
REMARK  status: ('A' for Active; 'I' for Inactive)
REMARK    1  A    between atoms: C_2  and  C_3
REMARK    2  A    between atoms: C_3  and  C_4
REMARK    3  A    between atoms: C_4  and  C_5
REMARK    4  A    between atoms: C_5  and  C_6
REMARK    5  A    between atoms: C_6  and  C_7
REMARK    6  A    between atoms: C_7  and  C_8
REMARK    7  A    between atoms: C_8  and  C_9
REMARK    8  A    between atoms: C_9  and  C_10
REMARK    9  A    between atoms: C_10  and  C_11
REMARK   10  A    between atoms: C_11  and  C_12
REMARK   11  A    between atoms: C_12  and  C_13
REMARK   12  A    between atoms: C_13  and  C_14
REMARK   13  A    between atoms: C_14  and  C_15
REMARK   14  A    between atoms: C_15  and  C_16
REMARK   15  A    between atoms: C_16  and  O_17
REMARK   16  A    between atoms: O_17  and  P_18
REMARK   17  A    between atoms: P_18  and  O_21
REMARK   18  A    between atoms: O_21  and  C_22
REMARK   19  A    between atoms: C_22  and  C_23
REMARK   20  A    between atoms: C_23  and  N_24
REMARK                            x       y       z     vdW  Elec       q    Type
REMARK                         _______ _______ _______ _____ _____    ______ ____
ROOT
ATOM      1  C   UNL     1     -10.522  13.857  64.862  0.00  0.00    +0.003 C 
ENDROOT
BRANCH   1   2
ATOM      2  C   UNL     1     -11.448  12.948  64.096  0.00  0.00    +0.000 C 
BRANCH   2   3
ATOM      3  C   UNL     1     -10.803  11.581  64.056  0.00  0.00    +0.000 C 
BRANCH   3   4
ATOM      4  C   UNL     1      -9.911  11.468  65.270  0.00  0.00    +0.000 C 
BRANCH   4   5
ATOM      5  C   UNL     1     -10.649  10.655  66.310  0.00  0.00    +0.000 C 
BRANCH   5   6
ATOM      6  C   UNL     1     -10.343  11.256  67.668  0.00  0.00    +0.000 C 
BRANCH   6   7
ATOM      7  C   UNL     1     -11.555  11.974  68.207  0.00  0.00    +0.000 C 
BRANCH   7   8
ATOM      8  C   UNL     1     -11.212  13.413  68.488  0.00  0.00    +0.000 C 
BRANCH   8   9
ATOM      9  C   UNL     1     -12.186  14.007  69.475  0.00  0.00    +0.000 C 
BRANCH   9  10
ATOM     10  C   UNL     1     -11.902  15.491  69.661  0.00  0.00    +0.000 C 
BRANCH  10  11
ATOM     11  C   UNL     1     -12.177  15.872  71.102  0.00  0.00    +0.000 C 
BRANCH  11  12
ATOM     12  C   UNL     1     -13.413  15.132  71.554  0.00  0.00    +0.000 C 
BRANCH  12  14
ATOM     13  C   UNL     1     -12.530  15.422  73.808  0.00  0.00    +0.000 C 
ATOM     14  C   UNL     1     -13.180  14.508  72.906  0.00  0.00    +0.000 C 
ENDBRANCH  12  14
ENDBRANCH  11  12
ENDBRANCH  10  11
ENDBRANCH   9  10
ENDBRANCH   8   9
ENDBRANCH   7   8
ENDBRANCH   6   7
ENDBRANCH   5   6
ENDBRANCH   4   5
ENDBRANCH   3   4
ENDBRANCH   2   3
ENDBRANCH   1   2
BRANCH   1  15
ATOM     15  C   UNL     1     -11.242  15.174  65.091  0.00  0.00    +0.033 C 
BRANCH  15  16
ATOM     16  C   UNL     1     -10.311  16.166  65.752  0.00  0.00    +0.149 C 
BRANCH  16  17
ATOM     17  O   UNL     1     -10.552  17.432  65.237  0.00  0.00    -0.314 OA
BRANCH  17  18
ATOM     18  P   UNL     1     -10.110  18.600  66.372  0.00  0.00    +0.214 P 
ATOM     19  O   UNL     1     -10.912  18.321  67.834  0.00  0.00    -0.437 OA
ATOM     20  O   UNL     1     -10.493  19.989  65.896  0.00  0.00    -0.517 OA
BRANCH  18  21
ATOM     21  O   UNL     1      -8.438  18.568  66.619  0.00  0.00    -0.308 OA
BRANCH  21  22
ATOM     22  C   UNL     1      -7.966  19.778  67.136  0.00  0.00    +0.210 C 
BRANCH  22  23
ATOM     23  C   UNL     1      -7.611  19.540  68.576  0.00  0.00    +0.142 C 
BRANCH  23  24
ATOM     24  N   UNL     1      -6.212  19.771  68.865  0.00  0.00    +0.313 N 
ATOM     25  C   UNL     1      -5.720  20.965  68.214  0.00  0.00    +0.171 C 
ATOM     26  C   UNL     1      -5.375  18.642  68.546  0.00  0.00    +0.171 C 
ATOM     27  C   UNL     1      -6.123  20.014  70.302  0.00  0.00    +0.171 C 
ENDBRANCH  23  24
ENDBRANCH  22  23
ENDBRANCH  21  22
ENDBRANCH  18  21
ENDBRANCH  17  18
ENDBRANCH  16  17
ENDBRANCH  15  16
ENDBRANCH   1  15
TORSDOF 20
ENDMDL
MODEL 3
REMARK VINA RESULT:      -4.5      3.527      4.608
REMARK  Name = 
REMARK  20 active torsions:
REMARK  status: ('A' for Active; 'I' for Inactive)
REMARK    1  A    between atoms: C_2  and  C_3
REMARK    2  A    between atoms: C_3  and  C_4
REMARK    3  A    between atoms: C_4  and  C_5
REMARK    4  A    between atoms: C_5  and  C_6
REMARK    5  A    between atoms: C_6  and  C_7
REMARK    6  A    between atoms: C_7  and  C_8
REMARK    7  A    between atoms: C_8  and  C_9
REMARK    8  A    between atoms: C_9  and  C_10
REMARK    9  A    between atoms: C_10  and  C_11
REMARK   10  A    between atoms: C_11  and  C_12
REMARK   11  A    between atoms: C_12  and  C_13
REMARK   12  A    between atoms: C_13  and  C_14
REMARK   13  A    between atoms: C_14  and  C_15
REMARK   14  A    between atoms: C_15  and  C_16
REMARK   15  A    between atoms: C_16  and  O_17
REMARK   16  A    between atoms: O_17  and  P_18
REMARK   17  A    between atoms: P_18  and  O_21
REMARK   18  A    between atoms: O_21  and  C_22
REMARK   19  A    between atoms: C_22  and  C_23
REMARK   20  A    between atoms: C_23  and  N_24
REMARK                            x       y       z     vdW  Elec       q    Type
REMARK                         _______ _______ _______ _____ _____    ______ ____
ROOT
ATOM      1  C   UNL     1     -11.688  12.636  67.276  0.00  0.00    +0.003 C 
ENDROOT
BRANCH   1   2
ATOM      2  C   UNL     1     -11.035  12.036  68.493  0.00  0.00    +0.000 C 
BRANCH   2   3
ATOM      3  C   UNL     1     -11.918  10.902  68.963  0.00  0.00    +0.000 C 
BRANCH   3   4
ATOM      4  C   UNL     1     -11.681  10.730  70.444  0.00  0.00    +0.000 C 
BRANCH   4   5
ATOM      5  C   UNL     1     -13.029  10.566  71.111  0.00  0.00    +0.000 C 
BRANCH   5   6
ATOM      6  C   UNL     1     -12.909   9.445  72.125  0.00  0.00    +0.000 C 
BRANCH   6   7
ATOM      7  C   UNL     1     -14.142   8.576  72.093  0.00  0.00    +0.000 C 
BRANCH   7   8
ATOM      8  C   UNL     1     -13.847   7.300  71.351  0.00  0.00    +0.000 C 
BRANCH   8   9
ATOM      9  C   UNL     1     -12.463   6.801  71.686  0.00  0.00    +0.000 C 
BRANCH   9  10
ATOM     10  C   UNL     1     -11.638   6.654  70.415  0.00  0.00    +0.000 C 
BRANCH  10  11
ATOM     11  C   UNL     1     -10.166   6.720  70.769  0.00  0.00    +0.000 C 
BRANCH  11  12
ATOM     12  C   UNL     1     -10.045   7.251  72.177  0.00  0.00    +0.000 C 
BRANCH  12  14
ATOM     13  C   UNL     1      -8.685   8.824  70.906  0.00  0.00    +0.000 C 
ATOM     14  C   UNL     1      -9.039   8.371  72.226  0.00  0.00    +0.000 C 
ENDBRANCH  12  14
ENDBRANCH  11  12
ENDBRANCH  10  11
ENDBRANCH   9  10
ENDBRANCH   8   9
ENDBRANCH   7   8
ENDBRANCH   6   7
ENDBRANCH   5   6
ENDBRANCH   4   5
ENDBRANCH   3   4
ENDBRANCH   2   3
ENDBRANCH   1   2
BRANCH   1  15
ATOM     15  C   UNL     1     -10.607  13.303  66.444  0.00  0.00    +0.033 C 
BRANCH  15  16
ATOM     16  C   UNL     1      -9.994  14.451  67.213  0.00  0.00    +0.149 C 
BRANCH  16  17
ATOM     17  O   UNL     1     -10.845  15.546  67.155  0.00  0.00    -0.314 OA
BRANCH  17  18
ATOM     18  P   UNL     1     -10.801  16.376  68.624  0.00  0.00    +0.214 P 
ATOM     19  O   UNL     1     -10.737  18.042  68.346  0.00  0.00    -0.437 OA
ATOM     20  O   UNL     1      -9.569  15.996  69.423  0.00  0.00    -0.517 OA
BRANCH  18  21
ATOM     21  O   UNL     1     -12.167  15.999  69.546  0.00  0.00    -0.308 OA
BRANCH  21  22
ATOM     22  C   UNL     1     -11.861  15.130  70.596  0.00  0.00    +0.210 C 
BRANCH  22  23
ATOM     23  C   UNL     1     -11.987  15.911  71.873  0.00  0.00    +0.142 C 
BRANCH  23  24
ATOM     24  N   UNL     1     -12.867  15.289  72.839  0.00  0.00    +0.313 N 
ATOM     25  C   UNL     1     -12.482  15.603  74.197  0.00  0.00    +0.171 C 
ATOM     26  C   UNL     1     -12.978  13.862  72.665  0.00  0.00    +0.171 C 
ATOM     27  C   UNL     1     -14.187  15.878  72.633  0.00  0.00    +0.171 C 
ENDBRANCH  23  24
ENDBRANCH  22  23
ENDBRANCH  21  22
ENDBRANCH  18  21
ENDBRANCH  17  18
ENDBRANCH  16  17
ENDBRANCH  15  16
ENDBRANCH   1  15
TORSDOF 20
ENDMDL
MODEL 4
REMARK VINA RESULT:      -4.5      4.203      6.173
REMARK  Name = 
REMARK  20 active torsions:
REMARK  status: ('A' for Active; 'I' for Inactive)
REMARK    1  A    between atoms: C_2  and  C_3
REMARK    2  A    between atoms: C_3  and  C_4
REMARK    3  A    between atoms: C_4  and  C_5
REMARK    4  A    between atoms: C_5  and  C_6
REMARK    5  A    between atoms: C_6  and  C_7
REMARK    6  A    between atoms: C_7  and  C_8
REMARK    7  A    between atoms: C_8  and  C_9
REMARK    8  A    between atoms: C_9  and  C_10
REMARK    9  A    between atoms: C_10  and  C_11
REMARK   10  A    between atoms: C_11  and  C_12
REMARK   11  A    between atoms: C_12  and  C_13
REMARK   12  A    between atoms: C_13  and  C_14
REMARK   13  A    between atoms: C_14  and  C_15
REMARK   14  A    between atoms: C_15  and  C_16
REMARK   15  A    between atoms: C_16  and  O_17
REMARK   16  A    between atoms: O_17  and  P_18
REMARK   17  A    between atoms: P_18  and  O_21
REMARK   18  A    between atoms: O_21  and  C_22
REMARK   19  A    between atoms: C_22  and  C_23
REMARK   20  A    between atoms: C_23  and  N_24
REMARK                            x       y       z     vdW  Elec       q    Type
REMARK                         _______ _______ _______ _____ _____    ______ ____
ROOT
ATOM      1  C   UNL     1     -10.939  15.670  70.358  0.00  0.00    +0.003 C 
ENDROOT
BRANCH   1   2
ATOM      2  C   UNL     1     -11.807  16.166  71.484  0.00  0.00    +0.000 C 
BRANCH   2   3
ATOM      3  C   UNL     1     -12.184  14.965  72.322  0.00  0.00    +0.000 C 
BRANCH   3   4
ATOM      4  C   UNL     1     -13.691  14.875  72.329  0.00  0.00    +0.000 C 
BRANCH   4   5
ATOM      5  C   UNL     1     -14.067  13.410  72.341  0.00  0.00    +0.000 C 
BRANCH   5   6
ATOM      6  C   UNL     1     -13.028  12.661  71.530  0.00  0.00    +0.000 C 
BRANCH   6   7
ATOM      7  C   UNL     1     -13.126  11.179  71.795  0.00  0.00    +0.000 C 
BRANCH   7   8
ATOM      8  C   UNL     1     -12.685  10.413  70.577  0.00  0.00    +0.000 C 
BRANCH   8   9
ATOM      9  C   UNL     1     -11.333   9.786  70.806  0.00  0.00    +0.000 C 
BRANCH   9  10
ATOM     10  C   UNL     1     -10.363  10.222  69.717  0.00  0.00    +0.000 C 
BRANCH  10  11
ATOM     11  C   UNL     1     -11.106  11.060  68.696  0.00  0.00    +0.000 C 
BRANCH  11  12
ATOM     12  C   UNL     1     -10.332  12.340  68.488  0.00  0.00    +0.000 C 
BRANCH  12  14
ATOM     13  C   UNL     1     -11.901  12.873  66.700  0.00  0.00    +0.000 C 
ATOM     14  C   UNL     1     -10.511  12.832  67.075  0.00  0.00    +0.000 C 
ENDBRANCH  12  14
ENDBRANCH  11  12
ENDBRANCH  10  11
ENDBRANCH   9  10
ENDBRANCH   8   9
ENDBRANCH   7   8
ENDBRANCH   6   7
ENDBRANCH   5   6
ENDBRANCH   4   5
ENDBRANCH   3   4
ENDBRANCH   2   3
ENDBRANCH   1   2
BRANCH   1  15
ATOM     15  C   UNL     1     -11.694  15.877  69.057  0.00  0.00    +0.033 C 
BRANCH  15  16
ATOM     16  C   UNL     1     -10.765  16.425  67.998  0.00  0.00    +0.149 C 
BRANCH  16  17
ATOM     17  O   UNL     1     -10.902  17.805  67.940  0.00  0.00    -0.314 OA
BRANCH  17  18
ATOM     18  P   UNL     1     -10.156  18.390  66.543  0.00  0.00    +0.214 P 
ATOM     19  O   UNL     1     -10.812  19.889  66.120  0.00  0.00    -0.437 OA
ATOM     20  O   UNL     1     -10.377  17.446  65.376  0.00  0.00    -0.517 OA
BRANCH  18  21
ATOM     21  O   UNL     1      -8.491  18.542  66.793  0.00  0.00    -0.308 OA
BRANCH  21  22
ATOM     22  C   UNL     1      -8.186  19.632  67.612  0.00  0.00    +0.210 C 
BRANCH  22  23
ATOM     23  C   UNL     1      -7.432  19.102  68.798  0.00  0.00    +0.142 C 
BRANCH  23  24
ATOM     24  N   UNL     1      -6.121  19.696  68.954  0.00  0.00    +0.313 N 
ATOM     25  C   UNL     1      -5.967  20.879  68.136  0.00  0.00    +0.171 C 
ATOM     26  C   UNL     1      -5.047  18.768  68.704  0.00  0.00    +0.171 C 
ATOM     27  C   UNL     1      -6.031  20.136  70.343  0.00  0.00    +0.171 C 
ENDBRANCH  23  24
ENDBRANCH  22  23
ENDBRANCH  21  22
ENDBRANCH  18  21
ENDBRANCH  17  18
ENDBRANCH  16  17
ENDBRANCH  15  16
ENDBRANCH   1  15
TORSDOF 20
ENDMDL
MODEL 5
REMARK VINA RESULT:      -4.4      3.485      8.670
REMARK  Name = 
REMARK  20 active torsions:
REMARK  status: ('A' for Active; 'I' for Inactive)
REMARK    1  A    between atoms: C_2  and  C_3
REMARK    2  A    between atoms: C_3  and  C_4
REMARK    3  A    between atoms: C_4  and  C_5
REMARK    4  A    between atoms: C_5  and  C_6
REMARK    5  A    between atoms: C_6  and  C_7
REMARK    6  A    between atoms: C_7  and  C_8
REMARK    7  A    between atoms: C_8  and  C_9
REMARK    8  A    between atoms: C_9  and  C_10
REMARK    9  A    between atoms: C_10  and  C_11
REMARK   10  A    between atoms: C_11  and  C_12
REMARK   11  A    between atoms: C_12  and  C_13
REMARK   12  A    between atoms: C_13  and  C_14
REMARK   13  A    between atoms: C_14  and  C_15
REMARK   14  A    between atoms: C_15  and  C_16
REMARK   15  A    between atoms: C_16  and  O_17
REMARK   16  A    between atoms: O_17  and  P_18
REMARK   17  A    between atoms: P_18  and  O_21
REMARK   18  A    between atoms: O_21  and  C_22
REMARK   19  A    between atoms: C_22  and  C_23
REMARK   20  A    between atoms: C_23  and  N_24
REMARK                            x       y       z     vdW  Elec       q    Type
REMARK                         _______ _______ _______ _____ _____    ______ ____
ROOT
ATOM      1  C   UNL     1     -10.475  16.005  67.502  0.00  0.00    +0.003 C 
ENDROOT
BRANCH   1   2
ATOM      2  C   UNL     1     -10.516  17.357  68.166  0.00  0.00    +0.000 C 
BRANCH   2   3
ATOM      3  C   UNL     1     -10.480  18.397  67.069  0.00  0.00    +0.000 C 
BRANCH   3   4
ATOM      4  C   UNL     1     -10.307  19.744  67.730  0.00  0.00    +0.000 C 
BRANCH   4   5
ATOM      5  C   UNL     1      -8.951  20.283  67.331  0.00  0.00    +0.000 C 
BRANCH   5   6
ATOM      6  C   UNL     1      -8.496  19.523  66.101  0.00  0.00    +0.000 C 
BRANCH   6   7
ATOM      7  C   UNL     1      -7.034  19.785  65.834  0.00  0.00    +0.000 C 
BRANCH   7   8
ATOM      8  C   UNL     1      -6.324  18.485  65.566  0.00  0.00    +0.000 C 
BRANCH   8   9
ATOM      9  C   UNL     1      -7.012  17.348  66.279  0.00  0.00    +0.000 C 
BRANCH   9  10
ATOM     10  C   UNL     1      -6.172  16.886  67.461  0.00  0.00    +0.000 C 
BRANCH  10  11
ATOM     11  C   UNL     1      -6.810  17.377  68.746  0.00  0.00    +0.000 C 
BRANCH  11  12
ATOM     12  C   UNL     1      -5.821  18.278  69.445  0.00  0.00    +0.000 C 
BRANCH  12  14
ATOM     13  C   UNL     1      -5.565  20.695  69.261  0.00  0.00    +0.000 C 
ATOM     14  C   UNL     1      -6.435  19.632  69.691  0.00  0.00    +0.000 C 
ENDBRANCH  12  14
ENDBRANCH  11  12
ENDBRANCH  10  11
ENDBRANCH   9  10
ENDBRANCH   8   9
ENDBRANCH   7   8
ENDBRANCH   6   7
ENDBRANCH   5   6
ENDBRANCH   4   5
ENDBRANCH   3   4
ENDBRANCH   2   3
ENDBRANCH   1   2
BRANCH   1  15
ATOM     15  C   UNL     1     -10.269  16.220  66.014  0.00  0.00    +0.033 C 
BRANCH  15  16
ATOM     16  C   UNL     1     -11.076  15.213  65.227  0.00  0.00    +0.149 C 
BRANCH  16  17
ATOM     17  O   UNL     1     -11.852  14.466  66.102  0.00  0.00    -0.314 OA
BRANCH  17  18
ATOM     18  P   UNL     1     -11.935  12.868  65.564  0.00  0.00    +0.214 P 
ATOM     19  O   UNL     1     -10.633  12.533  64.539  0.00  0.00    -0.437 OA
ATOM     20  O   UNL     1     -13.211  12.628  64.778  0.00  0.00    -0.517 OA
BRANCH  18  21
ATOM     21  O   UNL     1     -11.918  11.808  66.881  0.00  0.00    -0.308 OA
BRANCH  21  22
ATOM     22  C   UNL     1     -10.732  11.071  66.939  0.00  0.00    +0.210 C 
BRANCH  22  23
ATOM     23  C   UNL     1      -9.859  11.712  67.980  0.00  0.00    +0.142 C 
BRANCH  23  24
ATOM     24  N   UNL     1      -8.469  11.800  67.584  0.00  0.00    +0.313 N 
ATOM     25  C   UNL     1      -8.065  13.168  67.345  0.00  0.00    +0.171 C 
ATOM     26  C   UNL     1      -8.153  10.976  66.445  0.00  0.00    +0.171 C 
ATOM     27  C   UNL     1      -7.686  11.326  68.722  0.00  0.00    +0.171 C 
ENDBRANCH  23  24
ENDBRANCH  22  23
ENDBRANCH  21  22
ENDBRANCH  18  21
ENDBRANCH  17  18
ENDBRANCH  16  17
ENDBRANCH  15  16
ENDBRANCH   1  15
TORSDOF 20
ENDMDL
MODEL 6
REMARK VINA RESULT:      -4.4      3.247      5.492
REMARK  Name = 
REMARK  20 active torsions:
REMARK  status: ('A' for Active; 'I' for Inactive)
REMARK    1  A    between atoms: C_2  and  C_3
REMARK    2  A    between atoms: C_3  and  C_4
REMARK    3  A    between atoms: C_4  and  C_5
REMARK    4  A    between atoms: C_5  and  C_6
REMARK    5  A    between atoms: C_6  and  C_7
REMARK    6  A    between atoms: C_7  and  C_8
REMARK    7  A    between atoms: C_8  and  C_9
REMARK    8  A    between atoms: C_9  and  C_10
REMARK    9  A    between atoms: C_10  and  C_11
REMARK   10  A    between atoms: C_11  and  C_12
REMARK   11  A    between atoms: C_12  and  C_13
REMARK   12  A    between atoms: C_13  and  C_14
REMARK   13  A    between atoms: C_14  and  C_15
REMARK   14  A    between atoms: C_15  and  C_16
REMARK   15  A    between atoms: C_16  and  O_17
REMARK   16  A    between atoms: O_17  and  P_18
REMARK   17  A    between atoms: P_18  and  O_21
REMARK   18  A    between atoms: O_21  and  C_22
REMARK   19  A    between atoms: C_22  and  C_23
REMARK   20  A    between atoms: C_23  and  N_24
REMARK                            x       y       z     vdW  Elec       q    Type
REMARK                         _______ _______ _______ _____ _____    ______ ____
ROOT
ATOM      1  C   UNL     1     -12.476  14.399  65.111  0.00  0.00    +0.003 C 
ENDROOT
BRANCH   1   2
ATOM      2  C   UNL     1     -11.963  12.992  65.278  0.00  0.00    +0.000 C 
BRANCH   2   3
ATOM      3  C   UNL     1     -12.475  12.186  64.106  0.00  0.00    +0.000 C 
BRANCH   3   4
ATOM      4  C   UNL     1     -11.273  11.620  63.388  0.00  0.00    +0.000 C 
BRANCH   4   5
ATOM      5  C   UNL     1     -10.121  11.591  64.369  0.00  0.00    +0.000 C 
BRANCH   5   6
ATOM      6  C   UNL     1      -9.815  10.139  64.677  0.00  0.00    +0.000 C 
BRANCH   6   7
ATOM      7  C   UNL     1      -9.431   9.981  66.127  0.00  0.00    +0.000 C 
BRANCH   7   8
ATOM      8  C   UNL     1     -10.161   8.806  66.722  0.00  0.00    +0.000 C 
BRANCH   8   9
ATOM      9  C   UNL     1     -10.825   9.196  68.019  0.00  0.00    +0.000 C 
BRANCH   9  10
ATOM     10  C   UNL     1     -11.315  10.636  67.943  0.00  0.00    +0.000 C 
BRANCH  10  11
ATOM     11  C   UNL     1     -11.684  11.108  69.335  0.00  0.00    +0.000 C 
BRANCH  11  12
ATOM     12  C   UNL     1     -11.166  10.095  70.327  0.00  0.00    +0.000 C 
BRANCH  12  14
ATOM     13  C   UNL     1     -11.944   8.558  72.052  0.00  0.00    +0.000 C 
ATOM     14  C   UNL     1     -12.223   9.787  71.356  0.00  0.00    +0.000 C 
ENDBRANCH  12  14
ENDBRANCH  11  12
ENDBRANCH  10  11
ENDBRANCH   9  10
ENDBRANCH   8   9
ENDBRANCH   7   8
ENDBRANCH   6   7
ENDBRANCH   5   6
ENDBRANCH   4   5
ENDBRANCH   3   4
ENDBRANCH   2   3
ENDBRANCH   1   2
BRANCH   1  15
ATOM     15  C   UNL     1     -11.286  15.305  64.848  0.00  0.00    +0.033 C 
BRANCH  15  16
ATOM     16  C   UNL     1     -10.330  15.257  66.018  0.00  0.00    +0.149 C 
BRANCH  16  17
ATOM     17  O   UNL     1     -10.629  16.290  66.895  0.00  0.00    -0.314 OA
BRANCH  17  18
ATOM     18  P   UNL     1     -10.511  15.736  68.486  0.00  0.00    +0.214 P 
ATOM     19  O   UNL     1      -9.072  16.282  69.184  0.00  0.00    -0.437 OA
ATOM     20  O   UNL     1     -10.497  14.220  68.530  0.00  0.00    -0.517 OA
BRANCH  18  21
ATOM     21  O   UNL     1     -11.832  16.280  69.390  0.00  0.00    -0.308 OA
BRANCH  21  22
ATOM     22  C   UNL     1     -12.488  15.228  70.034  0.00  0.00    +0.210 C 
BRANCH  22  23
ATOM     23  C   UNL     1     -11.971  15.175  71.444  0.00  0.00    +0.142 C 
BRANCH  23  24
ATOM     24  N   UNL     1     -12.973  14.767  72.405  0.00  0.00    +0.313 N 
ATOM     25  C   UNL     1     -12.584  15.097  73.758  0.00  0.00    +0.171 C 
ATOM     26  C   UNL     1     -13.316  13.371  72.305  0.00  0.00    +0.171 C 
ATOM     27  C   UNL     1     -14.169  15.553  72.112  0.00  0.00    +0.171 C 
ENDBRANCH  23  24
ENDBRANCH  22  23
ENDBRANCH  21  22
ENDBRANCH  18  21
ENDBRANCH  17  18
ENDBRANCH  16  17
ENDBRANCH  15  16
ENDBRANCH   1  15
TORSDOF 20
ENDMDL
MODEL 7
REMARK VINA RESULT:      -4.4      1.935      3.397
REMARK  Name = 
REMARK  20 active torsions:
REMARK  status: ('A' for Active; 'I' for Inactive)
REMARK    1  A    between atoms: C_2  and  C_3
REMARK    2  A    between atoms: C_3  and  C_4
REMARK    3  A    between atoms: C_4  and  C_5
REMARK    4  A    between atoms: C_5  and  C_6
REMARK    5  A    between atoms: C_6  and  C_7
REMARK    6  A    between atoms: C_7  and  C_8
REMARK    7  A    between atoms: C_8  and  C_9
REMARK    8  A    between atoms: C_9  and  C_10
REMARK    9  A    between atoms: C_10  and  C_11
REMARK   10  A    between atoms: C_11  and  C_12
REMARK   11  A    between atoms: C_12  and  C_13
REMARK   12  A    between atoms: C_13  and  C_14
REMARK   13  A    between atoms: C_14  and  C_15
REMARK   14  A    between atoms: C_15  and  C_16
REMARK   15  A    between atoms: C_16  and  O_17
REMARK   16  A    between atoms: O_17  and  P_18
REMARK   17  A    between atoms: P_18  and  O_21
REMARK   18  A    between atoms: O_21  and  C_22
REMARK   19  A    between atoms: C_22  and  C_23
REMARK   20  A    between atoms: C_23  and  N_24
REMARK                            x       y       z     vdW  Elec       q    Type
REMARK                         _______ _______ _______ _____ _____    ______ ____
ROOT
ATOM      1  C   UNL     1     -11.606  11.241  68.509  0.00  0.00    +0.003 C 
ENDROOT
BRANCH   1   2
ATOM      2  C   UNL     1     -10.501  10.512  69.228  0.00  0.00    +0.000 C 
BRANCH   2   3
ATOM      3  C   UNL     1     -11.039  10.104  70.581  0.00  0.00    +0.000 C 
BRANCH   3   4
ATOM      4  C   UNL     1     -12.543  10.226  70.524  0.00  0.00    +0.000 C 
BRANCH   4   5
ATOM      5  C   UNL     1     -13.124   9.254  71.527  0.00  0.00    +0.000 C 
BRANCH   5   6
ATOM      6  C   UNL     1     -11.996   8.367  72.016  0.00  0.00    +0.000 C 
BRANCH   6   7
ATOM      7  C   UNL     1     -12.181   6.958  71.507  0.00  0.00    +0.000 C 
BRANCH   7   8
ATOM      8  C   UNL     1     -10.845   6.269  71.417  0.00  0.00    +0.000 C 
BRANCH   8   9
ATOM      9  C   UNL     1     -10.721   5.522  70.113  0.00  0.00    +0.000 C 
BRANCH   9  10
ATOM     10  C   UNL     1     -11.275   6.365  68.973  0.00  0.00    +0.000 C 
BRANCH  10  11
ATOM     11  C   UNL     1     -10.127   7.059  68.265  0.00  0.00    +0.000 C 
BRANCH  11  12
ATOM     12  C   UNL     1     -10.648   7.613  66.961  0.00  0.00    +0.000 C 
BRANCH  12  14
ATOM     13  C   UNL     1      -9.856   9.546  65.703  0.00  0.00    +0.000 C 
ATOM     14  C   UNL     1      -9.521   8.225  66.170  0.00  0.00    +0.000 C 
ENDBRANCH  12  14
ENDBRANCH  11  12
ENDBRANCH  10  11
ENDBRANCH   9  10
ENDBRANCH   8   9
ENDBRANCH   7   8
ENDBRANCH   6   7
ENDBRANCH   5   6
ENDBRANCH   4   5
ENDBRANCH   3   4
ENDBRANCH   2   3
ENDBRANCH   1   2
BRANCH   1  15
ATOM     15  C   UNL     1     -11.011  12.482  67.868  0.00  0.00    +0.033 C 
BRANCH  15  16
ATOM     16  C   UNL     1     -11.875  12.935  66.713  0.00  0.00    +0.149 C 
BRANCH  16  17
ATOM     17  O   UNL     1     -11.769  14.312  66.577  0.00  0.00    -0.314 OA
BRANCH  17  18
ATOM     18  P   UNL     1     -11.329  14.693  64.992  0.00  0.00    +0.214 P 
ATOM     19  O   UNL     1     -12.695  14.706  63.998  0.00  0.00    -0.437 OA
ATOM     20  O   UNL     1     -10.365  13.661  64.436  0.00  0.00    -0.517 OA
BRANCH  18  21
ATOM     21  O   UNL     1     -10.571  16.204  64.947  0.00  0.00    -0.308 OA
BRANCH  21  22
ATOM     22  C   UNL     1     -10.289  16.682  66.229  0.00  0.00    +0.210 C 
BRANCH  22  23
ATOM     23  C   UNL     1     -10.356  18.181  66.171  0.00  0.00    +0.142 C 
BRANCH  23  24
ATOM     24  N   UNL     1      -9.587  18.828  67.212  0.00  0.00    +0.313 N 
ATOM     25  C   UNL     1      -9.869  18.267  68.515  0.00  0.00    +0.171 C 
ATOM     26  C   UNL     1      -9.756  20.260  67.233  0.00  0.00    +0.171 C 
ATOM     27  C   UNL     1      -8.184  18.539  66.930  0.00  0.00    +0.171 C 
ENDBRANCH  23  24
ENDBRANCH  22  23
ENDBRANCH  21  22
ENDBRANCH  18  21
ENDBRANCH  17  18
ENDBRANCH  16  17
ENDBRANCH  15  16
ENDBRANCH   1  15
TORSDOF 20
ENDMDL
MODEL 8
REMARK VINA RESULT:      -4.4      2.353      4.552
REMARK  Name = 
REMARK  20 active torsions:
REMARK  status: ('A' for Active; 'I' for Inactive)
REMARK    1  A    between atoms: C_2  and  C_3
REMARK    2  A    between atoms: C_3  and  C_4
REMARK    3  A    between atoms: C_4  and  C_5
REMARK    4  A    between atoms: C_5  and  C_6
REMARK    5  A    between atoms: C_6  and  C_7
REMARK    6  A    between atoms: C_7  and  C_8
REMARK    7  A    between atoms: C_8  and  C_9
REMARK    8  A    between atoms: C_9  and  C_10
REMARK    9  A    between atoms: C_10  and  C_11
REMARK   10  A    between atoms: C_11  and  C_12
REMARK   11  A    between atoms: C_12  and  C_13
REMARK   12  A    between atoms: C_13  and  C_14
REMARK   13  A    between atoms: C_14  and  C_15
REMARK   14  A    between atoms: C_15  and  C_16
REMARK   15  A    between atoms: C_16  and  O_17
REMARK   16  A    between atoms: O_17  and  P_18
REMARK   17  A    between atoms: P_18  and  O_21
REMARK   18  A    between atoms: O_21  and  C_22
REMARK   19  A    between atoms: C_22  and  C_23
REMARK   20  A    between atoms: C_23  and  N_24
REMARK                            x       y       z     vdW  Elec       q    Type
REMARK                         _______ _______ _______ _____ _____    ______ ____
ROOT
ATOM      1  C   UNL     1     -10.031  10.041  65.469  0.00  0.00    +0.003 C 
ENDROOT
BRANCH   1   2
ATOM      2  C   UNL     1      -9.770  11.041  66.564  0.00  0.00    +0.000 C 
BRANCH   2   3
ATOM      3  C   UNL     1     -11.000  11.076  67.443  0.00  0.00    +0.000 C 
BRANCH   3   4
ATOM      4  C   UNL     1     -10.932   9.879  68.361  0.00  0.00    +0.000 C 
BRANCH   4   5
ATOM      5  C   UNL     1     -10.936  10.389  69.785  0.00  0.00    +0.000 C 
BRANCH   5   6
ATOM      6  C   UNL     1     -11.866  11.585  69.845  0.00  0.00    +0.000 C 
BRANCH   6   7
ATOM      7  C   UNL     1     -13.012  11.311  70.788  0.00  0.00    +0.000 C 
BRANCH   7   8
ATOM      8  C   UNL     1     -12.815  12.081  72.066  0.00  0.00    +0.000 C 
BRANCH   8   9
ATOM      9  C   UNL     1     -13.772  13.245  72.136  0.00  0.00    +0.000 C 
BRANCH   9  10
ATOM     10  C   UNL     1     -13.148  14.389  72.923  0.00  0.00    +0.000 C 
BRANCH  10  11
ATOM     11  C   UNL     1     -12.162  15.122  72.035  0.00  0.00    +0.000 C 
BRANCH  11  12
ATOM     12  C   UNL     1     -12.904  15.611  70.815  0.00  0.00    +0.000 C 
BRANCH  12  14
ATOM     13  C   UNL     1     -10.755  14.988  69.848  0.00  0.00    +0.000 C 
ATOM     14  C   UNL     1     -11.955  15.759  69.654  0.00  0.00    +0.000 C 
ENDBRANCH  12  14
ENDBRANCH  11  12
ENDBRANCH  10  11
ENDBRANCH   9  10
ENDBRANCH   8   9
ENDBRANCH   7   8
ENDBRANCH   6   7
ENDBRANCH   5   6
ENDBRANCH   4   5
ENDBRANCH   3   4
ENDBRANCH   2   3
ENDBRANCH   1   2
BRANCH   1  15
ATOM     15  C   UNL     1      -9.844  10.744  64.136  0.00  0.00    +0.033 C 
BRANCH  15  16
ATOM     16  C   UNL     1     -11.099  11.503  63.769  0.00  0.00    +0.149 C 
BRANCH  16  17
ATOM     17  O   UNL     1     -10.808  12.858  63.698  0.00  0.00    -0.314 OA
BRANCH  17  18
ATOM     18  P   UNL     1     -11.910  13.725  64.638  0.00  0.00    +0.214 P 
ATOM     19  O   UNL     1     -13.137  12.700  65.186  0.00  0.00    -0.437 OA
ATOM     20  O   UNL     1     -12.563  14.828  63.826  0.00  0.00    -0.517 OA
BRANCH  18  21
ATOM     21  O   UNL     1     -11.122  14.433  65.955  0.00  0.00    -0.308 OA
BRANCH  21  22
ATOM     22  C   UNL     1     -10.117  15.314  65.545  0.00  0.00    +0.210 C 
BRANCH  22  23
ATOM     23  C   UNL     1      -9.028  15.261  66.579  0.00  0.00    +0.142 C 
BRANCH  23  24
ATOM     24  N   UNL     1      -8.633  16.567  67.060  0.00  0.00    +0.313 N 
ATOM     25  C   UNL     1      -7.984  16.490  68.350  0.00  0.00    +0.171 C 
ATOM     26  C   UNL     1      -9.724  17.508  67.102  0.00  0.00    +0.171 C 
ATOM     27  C   UNL     1      -7.634  17.068  66.120  0.00  0.00    +0.171 C 
ENDBRANCH  23  24
ENDBRANCH  22  23
ENDBRANCH  21  22
ENDBRANCH  18  21
ENDBRANCH  17  18
ENDBRANCH  16  17
ENDBRANCH  15  16
ENDBRANCH   1  15
TORSDOF 20
ENDMDL
MODEL 9
REMARK VINA RESULT:      -4.4      3.841      6.261
REMARK  Name = 
REMARK  20 active torsions:
REMARK  status: ('A' for Active; 'I' for Inactive)
REMARK    1  A    between atoms: C_2  and  C_3
REMARK    2  A    between atoms: C_3  and  C_4
REMARK    3  A    between atoms: C_4  and  C_5
REMARK    4  A    between atoms: C_5  and  C_6
REMARK    5  A    between atoms: C_6  and  C_7
REMARK    6  A    between atoms: C_7  and  C_8
REMARK    7  A    between atoms: C_8  and  C_9
REMARK    8  A    between atoms: C_9  and  C_10
REMARK    9  A    between atoms: C_10  and  C_11
REMARK   10  A    between atoms: C_11  and  C_12
REMARK   11  A    between atoms: C_12  and  C_13
REMARK   12  A    between atoms: C_13  and  C_14
REMARK   13  A    between atoms: C_14  and  C_15
REMARK   14  A    between atoms: C_15  and  C_16
REMARK   15  A    between atoms: C_16  and  O_17
REMARK   16  A    between atoms: O_17  and  P_18
REMARK   17  A    between atoms: P_18  and  O_21
REMARK   18  A    between atoms: O_21  and  C_22
REMARK   19  A    between atoms: C_22  and  C_23
REMARK   20  A    between atoms: C_23  and  N_24
REMARK                            x       y       z     vdW  Elec       q    Type
REMARK                         _______ _______ _______ _____ _____    ______ ____
ROOT
ATOM      1  C   UNL     1     -10.568  14.078  66.866  0.00  0.00    +0.003 C 
ENDROOT
BRANCH   1   2
ATOM      2  C   UNL     1     -12.056  13.854  66.794  0.00  0.00    +0.000 C 
BRANCH   2   3
ATOM      3  C   UNL     1     -12.455  13.953  65.339  0.00  0.00    +0.000 C 
BRANCH   3   4
ATOM      4  C   UNL     1     -12.590  12.545  64.811  0.00  0.00    +0.000 C 
BRANCH   4   5
ATOM      5  C   UNL     1     -12.003  12.516  63.417  0.00  0.00    +0.000 C 
BRANCH   5   6
ATOM      6  C   UNL     1     -10.571  12.029  63.531  0.00  0.00    +0.000 C 
BRANCH   6   7
ATOM      7  C   UNL     1     -10.476  10.917  64.546  0.00  0.00    +0.000 C 
BRANCH   7   8
ATOM      8  C   UNL     1      -9.077  10.850  65.097  0.00  0.00    +0.000 C 
BRANCH   8   9
ATOM      9  C   UNL     1      -9.101  10.474  66.558  0.00  0.00    +0.000 C 
BRANCH   9  10
ATOM     10  C   UNL     1     -10.538  10.368  67.047  0.00  0.00    +0.000 C 
BRANCH  10  11
ATOM     11  C   UNL     1     -10.569  10.583  68.547  0.00  0.00    +0.000 C 
BRANCH  11  12
ATOM     12  C   UNL     1     -11.970  10.997  68.932  0.00  0.00    +0.000 C 
BRANCH  12  14
ATOM     13  C   UNL     1     -11.790   9.954  71.128  0.00  0.00    +0.000 C 
ATOM     14  C   UNL     1     -12.066  11.180  70.425  0.00  0.00    +0.000 C 
ENDBRANCH  12  14
ENDBRANCH  11  12
ENDBRANCH  10  11
ENDBRANCH   9  10
ENDBRANCH   8   9
ENDBRANCH   7   8
ENDBRANCH   6   7
ENDBRANCH   5   6
ENDBRANCH   4   5
ENDBRANCH   3   4
ENDBRANCH   2   3
ENDBRANCH   1   2
BRANCH   1  15
ATOM     15  C   UNL     1     -10.214  14.426  68.301  0.00  0.00    +0.033 C 
BRANCH  15  16
ATOM     16  C   UNL     1      -9.675  15.837  68.375  0.00  0.00    +0.149 C 
BRANCH  16  17
ATOM     17  O   UNL     1     -10.705  16.733  68.127  0.00  0.00    -0.314 OA
BRANCH  17  18
ATOM     18  P   UNL     1     -10.172  17.930  67.063  0.00  0.00    +0.214 P 
ATOM     19  O   UNL     1     -10.920  19.402  67.425  0.00  0.00    -0.437 OA
ATOM     20  O   UNL     1     -10.524  17.576  65.631  0.00  0.00    -0.517 OA
BRANCH  18  21
ATOM     21  O   UNL     1      -8.493  18.097  67.170  0.00  0.00    -0.308 OA
BRANCH  21  22
ATOM     22  C   UNL     1      -8.070  19.364  66.758  0.00  0.00    +0.210 C 
BRANCH  22  23
ATOM     23  C   UNL     1      -7.484  20.051  67.959  0.00  0.00    +0.142 C 
BRANCH  23  24
ATOM     24  N   UNL     1      -6.056  20.264  67.855  0.00  0.00    +0.313 N 
ATOM     25  C   UNL     1      -5.737  21.305  66.903  0.00  0.00    +0.171 C 
ATOM     26  C   UNL     1      -5.327  19.059  67.547  0.00  0.00    +0.171 C 
ATOM     27  C   UNL     1      -5.614  20.744  69.161  0.00  0.00    +0.171 C 
ENDBRANCH  23  24
ENDBRANCH  22  23
ENDBRANCH  21  22
ENDBRANCH  18  21
ENDBRANCH  17  18
ENDBRANCH  16  17
ENDBRANCH  15  16
ENDBRANCH   1  15
TORSDOF 20
ENDMDL
