MODEL 1
REMARK VINA RESULT:      -7.5      0.000      0.000
REMARK  Name = 
REMARK  5 active torsions:
REMARK  status: ('A' for Active; 'I' for Inactive)
REMARK    1  A    between atoms: C_2  and  C_4
REMARK    2  A    between atoms: C_4  and  C_5
REMARK    3  A    between atoms: C_16  and  N_17
REMARK    4  A    between atoms: C_16  and  C_38
REMARK    5  A    between atoms: C_18  and  C_20
REMARK                            x       y       z     vdW  Elec       q    Type
REMARK                         _______ _______ _______ _____ _____    ______ ____
ROOT
ATOM      1  C   UNL     1      -9.137  17.468  66.690  0.00  0.00    +0.156 C 
ATOM      2  N   UNL     1      -9.628  15.997  66.865  0.00  0.00    -0.225 N 
ATOM      3  C   UNL     1      -9.182  15.183  67.895  0.00  0.00    +0.307 C 
ATOM      4  O   UNL     1      -9.729  13.984  67.690  0.00  0.00    -0.294 OA
ATOM      5  C   UNL     1     -10.511  13.975  66.557  0.00  0.00    +0.243 C 
ATOM      6  O   UNL     1      -9.134  15.675  69.151  0.00  0.00    -0.172 OA
ATOM      7  C   UNL     1      -7.664  14.858  67.368  0.00  0.00    +0.149 C 
ATOM      8  N   UNL     1      -7.143  16.254  67.844  0.00  0.00    -0.273 N 
ATOM      9  C   UNL     1      -5.880  15.868  68.396  0.00  0.00    +0.094 C 
ATOM     10  C   UNL     1      -6.418  14.956  69.490  0.00  0.00    +0.023 C 
ATOM     11  C   UNL     1      -7.316  14.061  68.757  0.00  0.00    +0.029 C 
ATOM     12  C   UNL     1     -10.860  15.414  66.426  0.00  0.00    +0.274 C 
ATOM     13  O   UNL     1     -11.741  15.945  65.687  0.00  0.00    -0.270 OA
ATOM     14  C   UNL     1      -7.918  17.374  67.743  0.00  0.00    +0.244 C 
ATOM     15  O   UNL     1      -7.300  18.483  67.674  0.00  0.00    -0.273 OA
ENDROOT
BRANCH   5  16
ATOM     16  C   UNL     1      -9.734  13.617  65.305  0.00  0.00    +0.053 C 
ATOM     17  C   UNL     1     -10.786  13.345  64.236  0.00  0.00    +0.005 C 
ATOM     18  C   UNL     1      -8.999  12.305  65.499  0.00  0.00    +0.005 C 
ENDBRANCH   5  16
BRANCH   5  19
ATOM     19  N   UNL     1     -11.595  13.090  66.812  0.00  0.00    -0.173 NA
ATOM     20  C   UNL     1     -11.639  12.642  68.177  0.00  0.00    +0.249 C 
ATOM     21  O   UNL     1     -11.907  13.488  69.007  0.00  0.00    -0.273 OA
BRANCH  20  22
ATOM     22  C   UNL     1     -12.012  11.106  68.391  0.00  0.00    +0.116 C 
ATOM     23  C   UNL     1     -10.489  10.566  68.142  0.00  0.00    +0.086 C 
ATOM     24  N   UNL     1      -9.669  10.822  69.211  0.00  0.00    -0.268 NA
ATOM     25  C   UNL     1      -8.299  10.673  68.890  0.00  0.00    +0.090 C 
ATOM     26  C   UNL     1      -9.859   9.772  70.367  0.00  0.00    +0.084 C 
ATOM     27  C   UNL     1     -11.370  10.249  70.649  0.00  0.00    -0.011 C 
ATOM     28  C   UNL     1     -12.055   9.246  71.472  0.00  0.00    -0.002 A 
ATOM     29  C   UNL     1     -11.716   7.894  71.410  0.00  0.00    +0.015 A 
ATOM     30  C   UNL     1     -12.738   6.950  71.489  0.00  0.00    +0.082 A 
ATOM     31  N   UNL     1     -12.314   5.886  70.792  0.00  0.00    -0.239 NA
ATOM     32  C   UNL     1     -11.205   6.208  70.079  0.00  0.00    +0.111 A 
ATOM     33 BR   UNL     1      -9.942   5.011  69.301  0.00  0.00    -0.028 Br
ATOM     34  C   UNL     1     -13.918   7.344  72.108  0.00  0.00    +0.019 A 
ATOM     35  C   UNL     1     -14.152   8.679  72.419  0.00  0.00    +0.002 A 
ATOM     36  C   UNL     1     -10.937   7.552  70.308  0.00  0.00    +0.005 A 
ATOM     37  C   UNL     1     -13.269   9.670  72.000  0.00  0.00    -0.000 A 
ATOM     38  C   UNL     1     -10.368   8.567  69.368  0.00  0.00    +0.049 C 
ATOM     39  C   UNL     1     -11.870  11.215  69.996  0.00  0.00    -0.019 C 
ENDBRANCH  20  22
ENDBRANCH   5  19
BRANCH   1  40
ATOM     40  C   UNL     1     -10.170  17.993  67.864  0.00  0.00    +0.029 C 
BRANCH  40  42
ATOM     41  C   UNL     1     -10.124  20.308  67.930  0.00  0.00    +0.000 C 
ATOM     42  C   UNL     1     -10.693  19.254  67.219  0.00  0.00    +0.002 C 
ATOM     43  C   UNL     1     -10.331  19.228  65.758  0.00  0.00    +0.000 C 
ENDBRANCH  40  42
ENDBRANCH   1  40
TORSDOF 5
ENDMDL
MODEL 2
REMARK VINA RESULT:      -7.4      3.387      6.548
REMARK  Name = 
REMARK  5 active torsions:
REMARK  status: ('A' for Active; 'I' for Inactive)
REMARK    1  A    between atoms: C_2  and  C_4
REMARK    2  A    between atoms: C_4  and  C_5
REMARK    3  A    between atoms: C_16  and  N_17
REMARK    4  A    between atoms: C_16  and  C_38
REMARK    5  A    between atoms: C_18  and  C_20
REMARK                            x       y       z     vdW  Elec       q    Type
REMARK                         _______ _______ _______ _____ _____    ______ ____
ROOT
ATOM      1  C   UNL     1      -5.050  21.289  67.855  0.00  0.00    +0.156 C 
ATOM      2  N   UNL     1      -6.111  20.153  67.705  0.00  0.00    -0.225 N 
ATOM      3  C   UNL     1      -5.998  19.154  66.750  0.00  0.00    +0.307 C 
ATOM      4  O   UNL     1      -7.107  18.419  66.844  0.00  0.00    -0.294 OA
ATOM      5  C   UNL     1      -7.951  18.903  67.818  0.00  0.00    +0.243 C 
ATOM      6  O   UNL     1      -4.812  18.532  66.583  0.00  0.00    -0.172 OA
ATOM      7  C   UNL     1      -6.375  20.003  65.399  0.00  0.00    +0.149 C 
ATOM      8  N   UNL     1      -4.947  20.637  65.336  0.00  0.00    -0.273 N 
ATOM      9  C   UNL     1      -4.709  20.563  63.927  0.00  0.00    +0.094 C 
ATOM     10  C   UNL     1      -4.763  19.047  63.801  0.00  0.00    +0.023 C 
ATOM     11  C   UNL     1      -6.032  18.711  64.451  0.00  0.00    +0.029 C 
ATOM     12  C   UNL     1      -7.000  19.633  68.698  0.00  0.00    +0.274 C 
ATOM     13  O   UNL     1      -7.198  20.084  69.865  0.00  0.00    -0.270 OA
ATOM     14  C   UNL     1      -4.275  20.992  66.471  0.00  0.00    +0.244 C 
ATOM     15  O   UNL     1      -3.401  21.906  66.347  0.00  0.00    -0.273 OA
ENDROOT
BRANCH   5  16
ATOM     16  C   UNL     1      -8.921  19.945  67.296  0.00  0.00    +0.053 C 
ATOM     17  C   UNL     1      -9.991  20.083  68.372  0.00  0.00    +0.005 C 
ATOM     18  C   UNL     1      -9.642  19.424  66.067  0.00  0.00    +0.005 C 
ENDBRANCH   5  16
BRANCH   5  19
ATOM     19  N   UNL     1      -8.600  17.778  68.397  0.00  0.00    -0.173 NA
ATOM     20  C   UNL     1      -7.684  16.731  68.757  0.00  0.00    +0.249 C 
ATOM     21  O   UNL     1      -6.923  16.980  69.670  0.00  0.00    -0.273 OA
BRANCH  20  22
ATOM     22  C   UNL     1      -8.177  15.244  68.454  0.00  0.00    +0.116 C 
ATOM     23  C   UNL     1      -9.178  15.174  69.745  0.00  0.00    +0.086 C 
ATOM     24  N   UNL     1     -10.320  15.908  69.554  0.00  0.00    -0.268 NA
ATOM     25  C   UNL     1     -11.027  16.133  70.758  0.00  0.00    +0.090 C 
ATOM     26  C   UNL     1     -11.379  15.138  68.682  0.00  0.00    +0.084 C 
ATOM     27  C   UNL     1     -10.432  15.161  67.381  0.00  0.00    -0.011 C 
ATOM     28  C   UNL     1     -10.936  14.203  66.391  0.00  0.00    -0.002 A 
ATOM     29  C   UNL     1     -11.623  13.050  66.772  0.00  0.00    +0.015 A 
ATOM     30  C   UNL     1     -11.389  11.873  66.064  0.00  0.00    +0.082 A 
ATOM     31  N   UNL     1     -11.592  10.872  66.931  0.00  0.00    -0.239 NA
ATOM     32  C   UNL     1     -11.690  11.361  68.193  0.00  0.00    +0.111 A 
ATOM     33 BR   UNL     1     -12.420  10.484  69.721  0.00  0.00    -0.028 Br
ATOM     34  C   UNL     1     -10.911  12.000  64.765  0.00  0.00    +0.019 A 
ATOM     35  C   UNL     1     -10.463  13.226  64.284  0.00  0.00    +0.002 A 
ATOM     36  C   UNL     1     -11.503  12.736  68.123  0.00  0.00    +0.005 A 
ATOM     37  C   UNL     1     -10.362  14.326  65.131  0.00  0.00    -0.000 A 
ATOM     38  C   UNL     1     -10.843  13.642  69.113  0.00  0.00    +0.049 C 
ATOM     39  C   UNL     1      -9.308  15.748  67.417  0.00  0.00    -0.019 C 
ENDBRANCH  20  22
ENDBRANCH   5  19
BRANCH   1  40
ATOM     40  C   UNL     1      -4.039  20.285  68.689  0.00  0.00    +0.029 C 
BRANCH  40  42
ATOM     41  C   UNL     1      -3.985  20.489  70.996  0.00  0.00    +0.000 C 
ATOM     42  C   UNL     1      -3.652  21.186  69.837  0.00  0.00    +0.002 C 
ATOM     43  C   UNL     1      -2.188  21.515  69.713  0.00  0.00    +0.000 C 
ENDBRANCH  40  42
ENDBRANCH   1  40
TORSDOF 5
ENDMDL
MODEL 3
REMARK VINA RESULT:      -7.3      4.401      9.340
REMARK  Name = 
REMARK  5 active torsions:
REMARK  status: ('A' for Active; 'I' for Inactive)
REMARK    1  A    between atoms: C_2  and  C_4
REMARK    2  A    between atoms: C_4  and  C_5
REMARK    3  A    between atoms: C_16  and  N_17
REMARK    4  A    between atoms: C_16  and  C_38
REMARK    5  A    between atoms: C_18  and  C_20
REMARK                            x       y       z     vdW  Elec       q    Type
REMARK                         _______ _______ _______ _____ _____    ______ ____
ROOT
ATOM      1  C   UNL     1      -8.977   4.266  69.294  0.00  0.00    +0.156 C 
ATOM      2  N   UNL     1      -9.200   5.796  69.507  0.00  0.00    -0.225 N 
ATOM      3  C   UNL     1      -8.152   6.672  69.749  0.00  0.00    +0.307 C 
ATOM      4  O   UNL     1      -8.704   7.866  69.969  0.00  0.00    -0.294 OA
ATOM      5  C   UNL     1     -10.078   7.807  69.891  0.00  0.00    +0.243 C 
ATOM      6  O   UNL     1      -7.039   6.595  68.989  0.00  0.00    -0.172 OA
ATOM      7  C   UNL     1      -7.795   6.273  71.299  0.00  0.00    +0.149 C 
ATOM      8  N   UNL     1      -7.017   4.994  70.845  0.00  0.00    -0.273 N 
ATOM      9  C   UNL     1      -5.898   5.061  71.735  0.00  0.00    +0.094 C 
ATOM     10  C   UNL     1      -5.336   6.387  71.239  0.00  0.00    +0.023 C 
ATOM     11  C   UNL     1      -6.499   7.275  71.294  0.00  0.00    +0.029 C 
ATOM     12  C   UNL     1     -10.275   6.611  69.030  0.00  0.00    +0.274 C 
ATOM     13  O   UNL     1     -11.334   6.226  68.451  0.00  0.00    -0.270 OA
ATOM     14  C   UNL     1      -7.442   4.239  69.789  0.00  0.00    +0.244 C 
ATOM     15  O   UNL     1      -7.087   3.019  69.790  0.00  0.00    -0.273 OA
ENDROOT
BRANCH   5  16
ATOM     16  C   UNL     1     -10.732   7.478  71.219  0.00  0.00    +0.053 C 
ATOM     17  C   UNL     1     -12.208   7.815  71.042  0.00  0.00    +0.005 C 
ATOM     18  C   UNL     1     -10.226   8.413  72.300  0.00  0.00    +0.005 C 
ENDBRANCH   5  16
BRANCH   5  19
ATOM     19  N   UNL     1     -10.513   9.047  69.348  0.00  0.00    -0.173 NA
ATOM     20  C   UNL     1      -9.485   9.718  68.599  0.00  0.00    +0.249 C 
ATOM     21  O   UNL     1      -9.147   9.184  67.562  0.00  0.00    -0.273 OA
BRANCH  20  22
ATOM     22  C   UNL     1      -9.404  11.299  68.797  0.00  0.00    +0.116 C 
ATOM     23  C   UNL     1      -9.540  11.637  67.203  0.00  0.00    +0.086 C 
ATOM     24  N   UNL     1     -10.820  11.462  66.745  0.00  0.00    -0.268 NA
ATOM     25  C   UNL     1     -10.889  11.420  65.333  0.00  0.00    +0.090 C 
ATOM     26  C   UNL     1     -11.744  12.688  67.090  0.00  0.00    +0.084 C 
ATOM     27  C   UNL     1     -11.636  12.416  68.673  0.00  0.00    -0.011 C 
ATOM     28  C   UNL     1     -12.106  13.596  69.406  0.00  0.00    -0.002 A 
ATOM     29  C   UNL     1     -11.988  14.881  68.877  0.00  0.00    +0.015 A 
ATOM     30  C   UNL     1     -11.661  15.926  69.739  0.00  0.00    +0.082 A 
ATOM     31  N   UNL     1     -10.996  16.824  68.999  0.00  0.00    -0.239 NA
ATOM     32  C   UNL     1     -10.672  16.287  67.796  0.00  0.00    +0.111 A 
ATOM     33 BR   UNL     1     -10.153  17.218  66.215  0.00  0.00    -0.028 Br
ATOM     34  C   UNL     1     -11.959  15.753  71.086  0.00  0.00    +0.019 A 
ATOM     35  C   UNL     1     -12.342  14.511  71.580  0.00  0.00    +0.002 A 
ATOM     36  C   UNL     1     -11.122  14.973  67.790  0.00  0.00    +0.005 A 
ATOM     37  C   UNL     1     -12.311  13.383  70.765  0.00  0.00    -0.000 A 
ATOM     38  C   UNL     1     -10.509  13.775  67.137  0.00  0.00    +0.049 C 
ATOM     39  C   UNL     1     -10.984  11.419  69.109  0.00  0.00    -0.019 C 
ENDBRANCH  20  22
ENDBRANCH   5  19
BRANCH   1  40
ATOM     40  C   UNL     1      -8.515   4.512  67.729  0.00  0.00    +0.029 C 
BRANCH  40  42
ATOM     41  C   UNL     1      -9.961   4.280  65.933  0.00  0.00    +0.000 C 
ATOM     42  C   UNL     1      -9.455   3.568  67.019  0.00  0.00    +0.002 C 
ATOM     43  C   UNL     1      -8.690   2.327  66.641  0.00  0.00    +0.000 C 
ENDBRANCH  40  42
ENDBRANCH   1  40
TORSDOF 5
ENDMDL
MODEL 4
REMARK VINA RESULT:      -7.2      4.529      7.709
REMARK  Name = 
REMARK  5 active torsions:
REMARK  status: ('A' for Active; 'I' for Inactive)
REMARK    1  A    between atoms: C_2  and  C_4
REMARK    2  A    between atoms: C_4  and  C_5
REMARK    3  A    between atoms: C_16  and  N_17
REMARK    4  A    between atoms: C_16  and  C_38
REMARK    5  A    between atoms: C_18  and  C_20
REMARK                            x       y       z     vdW  Elec       q    Type
REMARK                         _______ _______ _______ _____ _____    ______ ____
ROOT
ATOM      1  C   UNL     1      -2.440  20.612  65.881  0.00  0.00    +0.156 C 
ATOM      2  N   UNL     1      -3.157  19.351  66.457  0.00  0.00    -0.225 N 
ATOM      3  C   UNL     1      -3.895  19.389  67.631  0.00  0.00    +0.307 C 
ATOM      4  O   UNL     1      -4.284  18.136  67.870  0.00  0.00    -0.294 OA
ATOM      5  C   UNL     1      -3.821  17.272  66.903  0.00  0.00    +0.243 C 
ATOM      6  O   UNL     1      -4.772  20.396  67.827  0.00  0.00    -0.172 OA
ATOM      7  C   UNL     1      -2.682  19.487  68.730  0.00  0.00    +0.149 C 
ATOM      8  N   UNL     1      -2.485  21.014  68.453  0.00  0.00    -0.273 N 
ATOM      9  C   UNL     1      -2.292  21.483  69.792  0.00  0.00    +0.094 C 
ATOM     10  C   UNL     1      -3.656  21.081  70.335  0.00  0.00    +0.023 C 
ATOM     11  C   UNL     1      -3.759  19.671  69.952  0.00  0.00    +0.029 C 
ATOM     12  C   UNL     1      -3.620  18.194  65.754  0.00  0.00    +0.274 C 
ATOM     13  O   UNL     1      -3.418  17.902  64.538  0.00  0.00    -0.270 OA
ATOM     14  C   UNL     1      -2.613  21.531  67.195  0.00  0.00    +0.244 C 
ATOM     15  O   UNL     1      -1.984  22.611  66.963  0.00  0.00    -0.273 OA
ENDROOT
BRANCH   5  16
ATOM     16  C   UNL     1      -2.453  16.701  67.225  0.00  0.00    +0.053 C 
ATOM     17  C   UNL     1      -2.242  15.563  66.233  0.00  0.00    +0.005 C 
ATOM     18  C   UNL     1      -2.464  16.052  68.596  0.00  0.00    +0.005 C 
ENDBRANCH   5  16
BRANCH   5  19
ATOM     19  N   UNL     1      -4.817  16.271  66.734  0.00  0.00    -0.173 NA
ATOM     20  C   UNL     1      -6.152  16.797  66.803  0.00  0.00    +0.249 C 
ATOM     21  O   UNL     1      -6.485  17.528  65.891  0.00  0.00    -0.273 OA
BRANCH  20  22
ATOM     22  C   UNL     1      -7.211  15.901  67.592  0.00  0.00    +0.116 C 
ATOM     23  C   UNL     1      -7.753  17.130  68.524  0.00  0.00    +0.086 C 
ATOM     24  N   UNL     1      -8.559  17.992  67.826  0.00  0.00    -0.268 NA
ATOM     25  C   UNL     1      -8.758  19.217  68.505  0.00  0.00    +0.090 C 
ATOM     26  C   UNL     1     -10.026  17.445  67.683  0.00  0.00    +0.084 C 
ATOM     27  C   UNL     1      -9.552  16.205  66.772  0.00  0.00    -0.011 C 
ATOM     28  C   UNL     1     -10.628  15.210  66.700  0.00  0.00    -0.002 A 
ATOM     29  C   UNL     1     -11.542  15.044  67.740  0.00  0.00    +0.015 A 
ATOM     30  C   UNL     1     -11.961  13.753  68.055  0.00  0.00    +0.082 A 
ATOM     31  N   UNL     1     -12.251  13.765  69.363  0.00  0.00    -0.239 NA
ATOM     32  C   UNL     1     -11.798  14.913  69.929  0.00  0.00    +0.111 A 
ATOM     33 BR   UNL     1     -12.320  15.662  71.604  0.00  0.00    -0.028 Br
ATOM     34  C   UNL     1     -11.865  12.794  67.054  0.00  0.00    +0.019 A 
ATOM     35  C   UNL     1     -11.167  13.053  65.879  0.00  0.00    +0.002 A 
ATOM     36  C   UNL     1     -11.159  15.644  68.937  0.00  0.00    +0.005 A 
ATOM     37  C   UNL     1     -10.438  14.230  65.732  0.00  0.00    -0.000 A 
ATOM     38  C   UNL     1      -9.962  16.534  69.053  0.00  0.00    +0.049 C 
ATOM     39  C   UNL     1      -8.333  16.080  66.444  0.00  0.00    -0.019 C 
ENDBRANCH  20  22
ENDBRANCH   5  19
BRANCH   1  40
ATOM     40  C   UNL     1      -3.856  21.174  65.246  0.00  0.00    +0.029 C 
BRANCH  40  42
ATOM     41  C   UNL     1      -4.576  20.953  63.055  0.00  0.00    +0.000 C 
ATOM     42  C   UNL     1      -3.460  21.331  63.798  0.00  0.00    +0.002 C 
ATOM     43  C   UNL     1      -3.021  22.753  63.574  0.00  0.00    +0.000 C 
ENDBRANCH  40  42
ENDBRANCH   1  40
TORSDOF 5
ENDMDL
MODEL 5
REMARK VINA RESULT:      -7.2      4.230      9.723
REMARK  Name = 
REMARK  5 active torsions:
REMARK  status: ('A' for Active; 'I' for Inactive)
REMARK    1  A    between atoms: C_2  and  C_4
REMARK    2  A    between atoms: C_4  and  C_5
REMARK    3  A    between atoms: C_16  and  N_17
REMARK    4  A    between atoms: C_16  and  C_38
REMARK    5  A    between atoms: C_18  and  C_20
REMARK                            x       y       z     vdW  Elec       q    Type
REMARK                         _______ _______ _______ _____ _____    ______ ____
ROOT
ATOM      1  C   UNL     1      -9.904   4.229  71.529  0.00  0.00    +0.156 C 
ATOM      2  N   UNL     1     -10.177   5.759  71.393  0.00  0.00    -0.225 N 
ATOM      3  C   UNL     1      -9.377   6.713  72.002  0.00  0.00    +0.307 C 
ATOM      4  O   UNL     1      -9.944   7.894  71.753  0.00  0.00    -0.294 OA
ATOM      5  C   UNL     1     -11.096   7.752  71.011  0.00  0.00    +0.243 C 
ATOM      6  O   UNL     1      -8.034   6.601  71.915  0.00  0.00    -0.172 OA
ATOM      7  C   UNL     1      -9.850   6.533  73.561  0.00  0.00    +0.149 C 
ATOM      8  N   UNL     1      -8.970   5.251  73.734  0.00  0.00    -0.273 N 
ATOM      9  C   UNL     1      -8.445   5.490  75.044  0.00  0.00    +0.094 C 
ATOM     10  C   UNL     1      -7.688   6.770  74.719  0.00  0.00    +0.023 C 
ATOM     11  C   UNL     1      -8.708   7.595  74.066  0.00  0.00    +0.029 C 
ATOM     12  C   UNL     1     -10.856   6.449  70.337  0.00  0.00    +0.274 C 
ATOM     13  O   UNL     1     -11.490   5.937  69.368  0.00  0.00    -0.270 OA
ATOM     14  C   UNL     1      -8.823   4.347  72.721  0.00  0.00    +0.244 C 
ATOM     15  O   UNL     1      -8.537   3.157  73.064  0.00  0.00    -0.273 OA
ENDROOT
BRANCH   5  16
ATOM     16  C   UNL     1     -12.331   7.559  71.868  0.00  0.00    +0.053 C 
ATOM     17  C   UNL     1     -13.467   7.280  70.890  0.00  0.00    +0.005 C 
ATOM     18  C   UNL     1     -12.699   8.857  72.561  0.00  0.00    +0.005 C 
ENDBRANCH   5  16
BRANCH   5  19
ATOM     19  N   UNL     1     -11.179   8.890  70.160  0.00  0.00    -0.173 NA
ATOM     20  C   UNL     1      -9.902   9.286  69.634  0.00  0.00    +0.249 C 
ATOM     21  O   UNL     1      -9.389   8.518  68.846  0.00  0.00    -0.273 OA
BRANCH  20  22
ATOM     22  C   UNL     1      -9.637  10.858  69.571  0.00  0.00    +0.116 C 
ATOM     23  C   UNL     1      -9.599  10.918  67.937  0.00  0.00    +0.086 C 
ATOM     24  N   UNL     1     -10.849  10.808  67.387  0.00  0.00    -0.268 NA
ATOM     25  C   UNL     1     -10.809  10.522  66.002  0.00  0.00    +0.090 C 
ATOM     26  C   UNL     1     -11.634  12.171  67.425  0.00  0.00    +0.084 C 
ATOM     27  C   UNL     1     -11.691  12.176  69.034  0.00  0.00    -0.011 C 
ATOM     28  C   UNL     1     -12.065  13.513  69.507  0.00  0.00    -0.002 A 
ATOM     29  C   UNL     1     -11.741  14.662  68.785  0.00  0.00    +0.015 A 
ATOM     30  C   UNL     1     -11.355  15.801  69.488  0.00  0.00    +0.082 A 
ATOM     31  N   UNL     1     -10.524  16.472  68.680  0.00  0.00    -0.239 NA
ATOM     32  C   UNL     1     -10.174  15.696  67.623  0.00  0.00    +0.111 A 
ATOM     33 BR   UNL     1      -9.414  16.266  65.969  0.00  0.00    -0.028 Br
ATOM     34  C   UNL     1     -11.781  15.905  70.807  0.00  0.00    +0.019 A 
ATOM     35  C   UNL     1     -12.358  14.822  71.461  0.00  0.00    +0.002 A 
ATOM     36  C   UNL     1     -10.786  14.461  67.792  0.00  0.00    +0.005 A 
ATOM     37  C   UNL     1     -12.404  13.570  70.854  0.00  0.00    -0.000 A 
ATOM     38  C   UNL     1     -10.279  13.104  67.415  0.00  0.00    +0.049 C 
ATOM     39  C   UNL     1     -11.209  11.206  69.696  0.00  0.00    -0.019 C 
ENDBRANCH  20  22
ENDBRANCH   5  19
BRANCH   1  40
ATOM     40  C   UNL     1      -8.717   4.300  70.384  0.00  0.00    +0.029 C 
BRANCH  40  42
ATOM     41  C   UNL     1      -9.396   3.359  68.379  0.00  0.00    +0.000 C 
ATOM     42  C   UNL     1      -8.968   3.001  69.655  0.00  0.00    +0.002 C 
ATOM     43  C   UNL     1      -7.700   2.190  69.676  0.00  0.00    +0.000 C 
ENDBRANCH  40  42
ENDBRANCH   1  40
TORSDOF 5
ENDMDL
MODEL 6
REMARK VINA RESULT:      -6.9      2.256      4.196
REMARK  Name = 
REMARK  5 active torsions:
REMARK  status: ('A' for Active; 'I' for Inactive)
REMARK    1  A    between atoms: C_2  and  C_4
REMARK    2  A    between atoms: C_4  and  C_5
REMARK    3  A    between atoms: C_16  and  N_17
REMARK    4  A    between atoms: C_16  and  C_38
REMARK    5  A    between atoms: C_18  and  C_20
REMARK                            x       y       z     vdW  Elec       q    Type
REMARK                         _______ _______ _______ _____ _____    ______ ____
ROOT
ATOM      1  C   UNL     1     -10.532  15.799  66.499  0.00  0.00    +0.156 C 
ATOM      2  N   UNL     1     -10.425  14.353  67.076  0.00  0.00    -0.225 N 
ATOM      3  C   UNL     1     -10.385  13.231  66.263  0.00  0.00    +0.307 C 
ATOM      4  O   UNL     1     -10.384  12.176  67.079  0.00  0.00    -0.294 OA
ATOM      5  C   UNL     1     -10.433  12.561  68.400  0.00  0.00    +0.243 C 
ATOM      6  O   UNL     1      -9.572  13.226  65.185  0.00  0.00    -0.172 OA
ATOM      7  C   UNL     1     -11.950  13.170  65.778  0.00  0.00    +0.149 C 
ATOM      8  N   UNL     1     -11.723  14.308  64.728  0.00  0.00    -0.273 N 
ATOM      9  C   UNL     1     -12.483  13.785  63.634  0.00  0.00    +0.094 C 
ATOM     10  C   UNL     1     -11.667  12.517  63.420  0.00  0.00    +0.023 C 
ATOM     11  C   UNL     1     -11.622  11.928  64.761  0.00  0.00    +0.029 C 
ATOM     12  C   UNL     1      -9.871  13.936  68.329  0.00  0.00    +0.274 C 
ATOM     13  O   UNL     1      -9.478  14.674  69.280  0.00  0.00    -0.270 OA
ATOM     14  C   UNL     1     -10.895  15.362  64.989  0.00  0.00    +0.244 C 
ATOM     15  O   UNL     1     -11.131  16.436  64.352  0.00  0.00    -0.273 OA
ENDROOT
BRANCH   5  16
ATOM     16  C   UNL     1     -11.849  12.715  68.919  0.00  0.00    +0.053 C 
ATOM     17  C   UNL     1     -11.729  13.538  70.197  0.00  0.00    +0.005 C 
ATOM     18  C   UNL     1     -12.401  11.369  69.349  0.00  0.00    +0.005 C 
ENDBRANCH   5  16
BRANCH   5  19
ATOM     19  N   UNL     1      -9.670  11.611  69.134  0.00  0.00    -0.173 NA
ATOM     20  C   UNL     1      -8.850  10.785  68.292  0.00  0.00    +0.249 C 
ATOM     21  O   UNL     1      -7.932  11.346  67.728  0.00  0.00    -0.273 OA
BRANCH  20  22
ATOM     22  C   UNL     1      -8.774   9.243  68.695  0.00  0.00    +0.116 C 
ATOM     23  C   UNL     1      -7.219   9.317  69.197  0.00  0.00    +0.086 C 
ATOM     24  N   UNL     1      -7.096   9.945  70.409  0.00  0.00    -0.268 NA
ATOM     25  C   UNL     1      -5.761  10.314  70.695  0.00  0.00    +0.090 C 
ATOM     26  C   UNL     1      -7.446   8.989  71.609  0.00  0.00    +0.084 C 
ATOM     27  C   UNL     1      -8.985   8.865  71.156  0.00  0.00    -0.011 C 
ATOM     28  C   UNL     1      -9.612   7.738  71.854  0.00  0.00    -0.002 A 
ATOM     29  C   UNL     1      -8.876   6.621  72.248  0.00  0.00    +0.015 A 
ATOM     30  C   UNL     1      -9.467   5.364  72.139  0.00  0.00    +0.082 A 
ATOM     31  N   UNL     1      -8.464   4.499  71.934  0.00  0.00    -0.239 NA
ATOM     32  C   UNL     1      -7.318   5.171  71.659  0.00  0.00    +0.111 A 
ATOM     33 BR   UNL     1      -5.535   4.501  71.741  0.00  0.00    -0.028 Br
ATOM     34  C   UNL     1     -10.856   5.315  72.136  0.00  0.00    +0.019 A 
ATOM     35  C   UNL     1     -11.612   6.476  72.008  0.00  0.00    +0.002 A 
ATOM     36  C   UNL     1      -7.621   6.527  71.653  0.00  0.00    +0.005 A 
ATOM     37  C   UNL     1     -10.998   7.697  71.749  0.00  0.00    -0.000 A 
ATOM     38  C   UNL     1      -7.041   7.612  70.802  0.00  0.00    +0.049 C 
ATOM     39  C   UNL     1      -9.413   9.514  70.153  0.00  0.00    -0.019 C 
ENDBRANCH  20  22
ENDBRANCH   5  19
BRANCH   1  40
ATOM     40  C   UNL     1      -8.918  15.822  66.153  0.00  0.00    +0.029 C 
BRANCH  40  42
ATOM     41  C   UNL     1      -7.523  17.671  66.180  0.00  0.00    +0.000 C 
ATOM     42  C   UNL     1      -8.488  17.029  66.952  0.00  0.00    +0.002 C 
ATOM     43  C   UNL     1      -9.705  17.868  67.242  0.00  0.00    +0.000 C 
ENDBRANCH  40  42
ENDBRANCH   1  40
TORSDOF 5
ENDMDL
MODEL 7
REMARK VINA RESULT:      -6.8      3.796      6.973
REMARK  Name = 
REMARK  5 active torsions:
REMARK  status: ('A' for Active; 'I' for Inactive)
REMARK    1  A    between atoms: C_2  and  C_4
REMARK    2  A    between atoms: C_4  and  C_5
REMARK    3  A    between atoms: C_16  and  N_17
REMARK    4  A    between atoms: C_16  and  C_38
REMARK    5  A    between atoms: C_18  and  C_20
REMARK                            x       y       z     vdW  Elec       q    Type
REMARK                         _______ _______ _______ _____ _____    ______ ____
ROOT
ATOM      1  C   UNL     1     -12.434  14.330  69.360  0.00  0.00    +0.156 C 
ATOM      2  N   UNL     1     -11.471  13.721  68.294  0.00  0.00    -0.225 N 
ATOM      3  C   UNL     1     -10.171  14.173  68.123  0.00  0.00    +0.307 C 
ATOM      4  O   UNL     1      -9.674  13.503  67.083  0.00  0.00    -0.294 OA
ATOM      5  C   UNL     1     -10.602  12.634  66.554  0.00  0.00    +0.243 C 
ATOM      6  O   UNL     1      -9.393  14.368  69.209  0.00  0.00    -0.172 OA
ATOM      7  C   UNL     1     -10.459  15.607  67.382  0.00  0.00    +0.149 C 
ATOM      8  N   UNL     1     -10.837  16.290  68.737  0.00  0.00    -0.273 N 
ATOM      9  C   UNL     1     -10.186  17.553  68.564  0.00  0.00    +0.094 C 
ATOM     10  C   UNL     1      -8.762  17.024  68.466  0.00  0.00    +0.023 C 
ATOM     11  C   UNL     1      -8.867  15.992  67.433  0.00  0.00    +0.029 C 
ATOM     12  C   UNL     1     -11.496  12.409  67.721  0.00  0.00    +0.274 C 
ATOM     13  O   UNL     1     -12.390  11.524  67.867  0.00  0.00    -0.270 OA
ATOM     14  C   UNL     1     -11.524  15.616  69.707  0.00  0.00    +0.244 C 
ATOM     15  O   UNL     1     -12.201  16.327  70.515  0.00  0.00    -0.273 OA
ENDROOT
BRANCH   5  16
ATOM     16  C   UNL     1     -11.465  13.270  65.483  0.00  0.00    +0.053 C 
ATOM     17  C   UNL     1     -11.994  12.112  64.644  0.00  0.00    +0.005 C 
ATOM     18  C   UNL     1     -10.611  14.099  64.543  0.00  0.00    +0.005 C 
ENDBRANCH   5  16
BRANCH   5  19
ATOM     19  N   UNL     1      -9.884  11.497  66.090  0.00  0.00    -0.173 NA
ATOM     20  C   UNL     1      -8.678  11.258  66.835  0.00  0.00    +0.249 C 
ATOM     21  O   UNL     1      -8.826  10.910  67.989  0.00  0.00    -0.273 OA
BRANCH  20  22
ATOM     22  C   UNL     1      -7.410  10.810  65.976  0.00  0.00    +0.116 C 
ATOM     23  C   UNL     1      -7.480   9.246  66.447  0.00  0.00    +0.086 C 
ATOM     24  N   UNL     1      -8.504   8.567  65.838  0.00  0.00    -0.268 NA
ATOM     25  C   UNL     1      -8.788   7.335  66.470  0.00  0.00    +0.090 C 
ATOM     26  C   UNL     1      -8.129   8.118  64.378  0.00  0.00    +0.084 C 
ATOM     27  C   UNL     1      -8.029   9.637  63.857  0.00  0.00    -0.011 C 
ATOM     28  C   UNL     1      -7.339   9.668  62.564  0.00  0.00    -0.002 A 
ATOM     29  C   UNL     1      -6.376   8.718  62.225  0.00  0.00    +0.015 A 
ATOM     30  C   UNL     1      -5.255   9.134  61.511  0.00  0.00    +0.082 A 
ATOM     31  N   UNL     1      -4.262   8.306  61.863  0.00  0.00    -0.239 NA
ATOM     32  C   UNL     1      -4.634   7.563  62.937  0.00  0.00    +0.111 A 
ATOM     33 BR   UNL     1      -3.834   5.948  63.560  0.00  0.00    -0.028 Br
ATOM     34  C   UNL     1      -5.378  10.297  60.760  0.00  0.00    +0.019 A 
ATOM     35  C   UNL     1      -6.484  11.128  60.903  0.00  0.00    +0.002 A 
ATOM     36  C   UNL     1      -5.910   7.970  63.303  0.00  0.00    +0.005 A 
ATOM     37  C   UNL     1      -7.430  10.884  61.894  0.00  0.00    -0.000 A 
ATOM     38  C   UNL     1      -6.510   8.055  64.671  0.00  0.00    +0.049 C 
ATOM     39  C   UNL     1      -8.293  10.601  64.639  0.00  0.00    -0.019 C 
ENDBRANCH  20  22
ENDBRANCH   5  19
BRANCH   1  40
ATOM     40  C   UNL     1     -11.723  13.448  70.561  0.00  0.00    +0.029 C 
BRANCH  40  42
ATOM     41  C   UNL     1     -12.620  11.479  71.389  0.00  0.00    +0.000 C 
ATOM     42  C   UNL     1     -12.942  12.820  71.192  0.00  0.00    +0.002 C 
ATOM     43  C   UNL     1     -13.265  13.570  72.457  0.00  0.00    +0.000 C 
ENDBRANCH  40  42
ENDBRANCH   1  40
TORSDOF 5
ENDMDL
MODEL 8
REMARK VINA RESULT:      -6.8      2.606      5.092
REMARK  Name = 
REMARK  5 active torsions:
REMARK  status: ('A' for Active; 'I' for Inactive)
REMARK    1  A    between atoms: C_2  and  C_4
REMARK    2  A    between atoms: C_4  and  C_5
REMARK    3  A    between atoms: C_16  and  N_17
REMARK    4  A    between atoms: C_16  and  C_38
REMARK    5  A    between atoms: C_18  and  C_20
REMARK                            x       y       z     vdW  Elec       q    Type
REMARK                         _______ _______ _______ _____ _____    ______ ____
ROOT
ATOM      1  C   UNL     1      -6.029  19.420  67.628  0.00  0.00    +0.156 C 
ATOM      2  N   UNL     1      -6.632  17.988  67.484  0.00  0.00    -0.225 N 
ATOM      3  C   UNL     1      -7.804  17.742  66.785  0.00  0.00    +0.307 C 
ATOM      4  O   UNL     1      -8.069  16.445  66.941  0.00  0.00    -0.294 OA
ATOM      5  C   UNL     1      -7.120  15.828  67.725  0.00  0.00    +0.243 C 
ATOM      6  O   UNL     1      -7.977  18.306  65.571  0.00  0.00    -0.172 OA
ATOM      7  C   UNL     1      -8.901  18.350  67.841  0.00  0.00    +0.149 C 
ATOM      8  N   UNL     1      -8.592  19.818  67.399  0.00  0.00    -0.273 N 
ATOM      9  C   UNL     1      -9.921  20.349  67.371  0.00  0.00    +0.094 C 
ATOM     10  C   UNL     1     -10.472  19.435  66.285  0.00  0.00    +0.023 C 
ATOM     11  C   UNL     1     -10.118  18.100  66.772  0.00  0.00    +0.029 C 
ATOM     12  C   UNL     1      -5.952  16.729  67.542  0.00  0.00    +0.274 C 
ATOM     13  O   UNL     1      -4.743  16.522  67.857  0.00  0.00    -0.270 OA
ATOM     14  C   UNL     1      -7.324  20.213  67.082  0.00  0.00    +0.244 C 
ATOM     15  O   UNL     1      -7.069  21.451  67.217  0.00  0.00    -0.273 OA
ENDROOT
BRANCH   5  16
ATOM     16  C   UNL     1      -7.455  15.873  69.203  0.00  0.00    +0.053 C 
ATOM     17  C   UNL     1      -6.662  14.735  69.836  0.00  0.00    +0.005 C 
ATOM     18  C   UNL     1      -8.915  15.526  69.423  0.00  0.00    +0.005 C 
ENDBRANCH   5  16
BRANCH   5  19
ATOM     19  N   UNL     1      -6.972  14.504  67.227  0.00  0.00    -0.173 NA
ATOM     20  C   UNL     1      -8.224  13.805  67.123  0.00  0.00    +0.249 C 
ATOM     21  O   UNL     1      -8.997  14.220  66.283  0.00  0.00    -0.273 OA
BRANCH  20  22
ATOM     22  C   UNL     1      -8.199  12.270  67.558  0.00  0.00    +0.116 C 
ATOM     23  C   UNL     1      -9.533  12.380  68.498  0.00  0.00    +0.086 C 
ATOM     24  N   UNL     1     -10.683  12.458  67.755  0.00  0.00    -0.268 NA
ATOM     25  C   UNL     1     -11.793  12.886  68.520  0.00  0.00    +0.090 C 
ATOM     26  C   UNL     1     -11.152  11.047  67.243  0.00  0.00    +0.084 C 
ATOM     27  C   UNL     1      -9.852  10.873  66.310  0.00  0.00    -0.011 C 
ATOM     28  C   UNL     1      -9.731   9.472  65.894  0.00  0.00    -0.002 A 
ATOM     29  C   UNL     1     -10.200   8.428  66.692  0.00  0.00    +0.015 A 
ATOM     30  C   UNL     1      -9.454   7.253  66.755  0.00  0.00    +0.082 A 
ATOM     31  N   UNL     1      -9.689   6.728  67.965  0.00  0.00    -0.239 NA
ATOM     32  C   UNL     1     -10.333   7.631  68.747  0.00  0.00    +0.111 A 
ATOM     33 BR   UNL     1     -11.303   7.288  70.352  0.00  0.00    -0.028 Br
ATOM     34  C   UNL     1      -8.605   6.985  65.687  0.00  0.00    +0.019 A 
ATOM     35  C   UNL     1      -8.337   7.953  64.725  0.00  0.00    +0.002 A 
ATOM     36  C   UNL     1     -10.478   8.797  68.005  0.00  0.00    +0.005 A 
ATOM     37  C   UNL     1      -8.808   9.253  64.877  0.00  0.00    -0.000 A 
ATOM     38  C   UNL     1     -10.445  10.217  68.476  0.00  0.00    +0.049 C 
ATOM     39  C   UNL     1      -8.991  11.801  66.231  0.00  0.00    -0.019 C 
ENDBRANCH  20  22
ENDBRANCH   5  19
BRANCH   1  40
ATOM     40  C   UNL     1      -5.382  19.342  66.112  0.00  0.00    +0.029 C 
BRANCH  40  42
ATOM     41  C   UNL     1      -3.881  21.054  65.686  0.00  0.00    +0.000 C 
ATOM     42  C   UNL     1      -3.989  19.855  66.386  0.00  0.00    +0.002 C 
ATOM     43  C   UNL     1      -3.815  19.992  67.876  0.00  0.00    +0.000 C 
ENDBRANCH  40  42
ENDBRANCH   1  40
TORSDOF 5
ENDMDL
MODEL 9
REMARK VINA RESULT:      -6.7      3.574      5.744
REMARK  Name = 
REMARK  5 active torsions:
REMARK  status: ('A' for Active; 'I' for Inactive)
REMARK    1  A    between atoms: C_2  and  C_4
REMARK    2  A    between atoms: C_4  and  C_5
REMARK    3  A    between atoms: C_16  and  N_17
REMARK    4  A    between atoms: C_16  and  C_38
REMARK    5  A    between atoms: C_18  and  C_20
REMARK                            x       y       z     vdW  Elec       q    Type
REMARK                         _______ _______ _______ _____ _____    ______ ____
ROOT
ATOM      1  C   UNL     1      -9.956  12.393  66.059  0.00  0.00    +0.156 C 
ATOM      2  N   UNL     1      -9.835  11.136  66.976  0.00  0.00    -0.225 N 
ATOM      3  C   UNL     1     -10.738  10.871  67.995  0.00  0.00    +0.307 C 
ATOM      4  O   UNL     1     -10.287   9.784  68.623  0.00  0.00    -0.294 OA
ATOM      5  C   UNL     1      -9.115   9.329  68.062  0.00  0.00    +0.243 C 
ATOM      6  O   UNL     1     -12.061  10.985  67.750  0.00  0.00    -0.172 OA
ATOM      7  C   UNL     1     -10.276  12.001  69.089  0.00  0.00    +0.149 C 
ATOM      8  N   UNL     1     -11.025  13.134  68.313  0.00  0.00    -0.273 N 
ATOM      9  C   UNL     1     -11.594  13.850  69.415  0.00  0.00    +0.094 C 
ATOM     10  C   UNL     1     -12.470  12.723  69.946  0.00  0.00    +0.023 C 
ATOM     11  C   UNL     1     -11.527  11.609  70.073  0.00  0.00    +0.029 C 
ATOM     12  C   UNL     1      -9.211   9.881  66.685  0.00  0.00    +0.274 C 
ATOM     13  O   UNL     1      -8.513   9.587  65.670  0.00  0.00    -0.270 OA
ATOM     14  C   UNL     1     -11.063  13.156  66.948  0.00  0.00    +0.244 C 
ATOM     15  O   UNL     1     -11.235  14.294  66.408  0.00  0.00    -0.273 OA
ENDROOT
BRANCH   5  16
ATOM     16  C   UNL     1      -7.881   9.958  68.679  0.00  0.00    +0.053 C 
ATOM     17  C   UNL     1      -6.699   9.185  68.105  0.00  0.00    +0.005 C 
ATOM     18  C   UNL     1      -7.851   9.700  70.174  0.00  0.00    +0.005 C 
ENDBRANCH   5  16
BRANCH   5  19
ATOM     19  N   UNL     1      -9.131   7.911  68.170  0.00  0.00    -0.173 NA
ATOM     20  C   UNL     1     -10.429   7.348  67.916  0.00  0.00    +0.249 C 
ATOM     21  O   UNL     1     -10.835   7.440  66.775  0.00  0.00    -0.273 OA
BRANCH  20  22
ATOM     22  C   UNL     1     -10.861   6.143  68.868  0.00  0.00    +0.116 C 
ATOM     23  C   UNL     1      -9.975   5.023  68.071  0.00  0.00    +0.086 C 
ATOM     24  N   UNL     1      -8.635   5.141  68.334  0.00  0.00    -0.268 NA
ATOM     25  C   UNL     1      -7.837   4.421  67.414  0.00  0.00    +0.090 C 
ATOM     26  C   UNL     1      -8.241   4.484  69.707  0.00  0.00    +0.084 C 
ATOM     27  C   UNL     1      -9.108   5.548  70.548  0.00  0.00    -0.011 C 
ATOM     28  C   UNL     1      -9.289   5.060  71.919  0.00  0.00    -0.002 A 
ATOM     29  C   UNL     1      -9.326   3.696  72.211  0.00  0.00    +0.015 A 
ATOM     30  C   UNL     1     -10.219   3.250  73.182  0.00  0.00    +0.082 A 
ATOM     31  N   UNL     1     -10.541   1.994  72.842  0.00  0.00    -0.239 NA
ATOM     32  C   UNL     1     -10.100   1.725  71.587  0.00  0.00    +0.111 A 
ATOM     33 BR   UNL     1      -9.868   0.011  70.785  0.00  0.00    -0.028 Br
ATOM     34  C   UNL     1     -10.640   4.176  74.130  0.00  0.00    +0.019 A 
ATOM     35  C   UNL     1     -10.370   5.531  73.975  0.00  0.00    +0.002 A 
ATOM     36  C   UNL     1      -9.503   2.880  71.098  0.00  0.00    +0.005 A 
ATOM     37  C   UNL     1      -9.787   6.009  72.805  0.00  0.00    -0.000 A 
ATOM     38  C   UNL     1      -9.481   3.401  69.695  0.00  0.00    +0.049 C 
ATOM     39  C   UNL     1      -9.717   6.490  69.954  0.00  0.00    -0.019 C 
ENDBRANCH  20  22
ENDBRANCH   5  19
BRANCH   1  40
ATOM     40  C   UNL     1     -11.124  11.663  65.149  0.00  0.00    +0.029 C 
BRANCH  40  42
ATOM     41  C   UNL     1     -10.225  11.200  63.065  0.00  0.00    +0.000 C 
ATOM     42  C   UNL     1     -10.805  12.238  63.789  0.00  0.00    +0.002 C 
ATOM     43  C   UNL     1     -12.076  12.776  63.188  0.00  0.00    +0.000 C 
ENDBRANCH  40  42
ENDBRANCH   1  40
TORSDOF 5
ENDMDL
