MODEL 1
REMARK VINA RESULT:      -6.3      0.000      0.000
REMARK  Name = 
REMARK  2 active torsions:
REMARK  status: ('A' for Active; 'I' for Inactive)
REMARK    1  A    between atoms: N_2  and  C_3
REMARK    2  A    between atoms: C_6  and  C_7
REMARK                            x       y       z     vdW  Elec       q    Type
REMARK                         _______ _______ _______ _____ _____    ______ ____
ROOT
ATOM      1  C   UNL     1      -9.688  15.872  66.041  0.00  0.00    +0.095 C 
ATOM      2  C   UNL     1     -10.746  14.674  65.698  0.00  0.00    -0.010 A 
ATOM      3  C   UNL     1     -11.267  14.005  66.762  0.00  0.00    -0.021 A 
ATOM      4  C   UNL     1     -11.913  12.834  66.358  0.00  0.00    -0.004 A 
ATOM      5  C   UNL     1     -12.183  12.529  65.035  0.00  0.00    -0.000 A 
ATOM      6  C   UNL     1     -12.086  13.602  64.155  0.00  0.00    -0.000 A 
ATOM      7  C   UNL     1     -10.164  13.525  67.882  0.00  0.00    +0.044 C 
ATOM      8  C   UNL     1      -9.557  15.040  68.218  0.00  0.00    +0.010 C 
ATOM      9  C   UNL     1     -11.223  14.664  64.419  0.00  0.00    -0.003 A 
ATOM     10  C   UNL     1     -10.371  16.058  67.563  0.00  0.00    +0.023 C 
ENDROOT
BRANCH   7  11
ATOM     11  C   UNL     1     -11.238  13.676  69.103  0.00  0.00    -0.018 A 
ATOM     12  C   UNL     1     -10.827  14.623  70.039  0.00  0.00    +0.008 A 
ATOM     13  C   UNL     1     -11.678  14.787  71.127  0.00  0.00    +0.068 A 
ATOM     14 CL   UNL     1     -11.846  16.421  71.757  0.00  0.00    -0.081 Cl
ATOM     15  C   UNL     1     -12.630  13.818  71.414  0.00  0.00    +0.068 A 
ATOM     16 CL   UNL     1     -13.873  14.266  72.538  0.00  0.00    -0.081 Cl
ATOM     17  C   UNL     1     -12.623  12.654  70.669  0.00  0.00    +0.012 A 
ATOM     18  C   UNL     1     -11.749  12.522  69.596  0.00  0.00    -0.003 A 
ENDBRANCH   7  11
BRANCH   1  20
ATOM     19  C   UNL     1     -10.244  18.041  66.256  0.00  0.00    +0.108 C 
ATOM     20  N   UNL     1     -10.646  17.008  65.430  0.00  0.00    -0.214 NA
ENDBRANCH   1  20
TORSDOF 2
ENDMDL
MODEL 2
REMARK VINA RESULT:      -6.2      4.905      7.354
REMARK  Name = 
REMARK  2 active torsions:
REMARK  status: ('A' for Active; 'I' for Inactive)
REMARK    1  A    between atoms: N_2  and  C_3
REMARK    2  A    between atoms: C_6  and  C_7
REMARK                            x       y       z     vdW  Elec       q    Type
REMARK                         _______ _______ _______ _____ _____    ______ ____
ROOT
ATOM      1  C   UNL     1     -10.307   8.106  70.039  0.00  0.00    +0.095 C 
ATOM      2  C   UNL     1     -11.335   9.315  70.431  0.00  0.00    -0.010 A 
ATOM      3  C   UNL     1     -11.475  10.310  69.513  0.00  0.00    -0.021 A 
ATOM      4  C   UNL     1     -12.129  11.417  70.061  0.00  0.00    -0.004 A 
ATOM      5  C   UNL     1     -12.754  11.400  71.296  0.00  0.00    -0.000 A 
ATOM      6  C   UNL     1     -12.992  10.131  71.814  0.00  0.00    -0.000 A 
ATOM      7  C   UNL     1     -10.062  10.898  68.913  0.00  0.00    +0.044 C 
ATOM      8  C   UNL     1      -9.488   9.452  68.318  0.00  0.00    +0.010 C 
ATOM      9  C   UNL     1     -12.164   9.060  71.485  0.00  0.00    -0.003 A 
ATOM     10  C   UNL     1     -10.525   8.431  68.407  0.00  0.00    +0.023 C 
ENDROOT
BRANCH   7  11
ATOM     11  C   UNL     1     -10.739  11.235  67.466  0.00  0.00    -0.018 A 
ATOM     12  C   UNL     1      -9.862  10.979  66.413  0.00  0.00    +0.008 A 
ATOM     13  C   UNL     1     -10.358  11.270  65.147  0.00  0.00    +0.068 A 
ATOM     14 CL   UNL     1      -9.879  10.188  63.844  0.00  0.00    -0.081 Cl
ATOM     15  C   UNL     1     -11.469  12.092  65.010  0.00  0.00    +0.068 A 
ATOM     16 CL   UNL     1     -12.234  12.102  63.453  0.00  0.00    -0.081 Cl
ATOM     17  C   UNL     1     -11.980  12.693  66.144  0.00  0.00    +0.012 A 
ATOM     18  C   UNL     1     -11.451  12.385  67.392  0.00  0.00    -0.003 A 
ENDBRANCH   7  11
BRANCH   1  20
ATOM     19  C   UNL     1     -10.911   6.165  69.076  0.00  0.00    +0.108 C 
ATOM     20  N   UNL     1     -11.477   7.005  70.016  0.00  0.00    -0.214 NA
ENDBRANCH   1  20
TORSDOF 2
ENDMDL
MODEL 3
REMARK VINA RESULT:      -6.2      3.548      5.617
REMARK  Name = 
REMARK  2 active torsions:
REMARK  status: ('A' for Active; 'I' for Inactive)
REMARK    1  A    between atoms: N_2  and  C_3
REMARK    2  A    between atoms: C_6  and  C_7
REMARK                            x       y       z     vdW  Elec       q    Type
REMARK                         _______ _______ _______ _____ _____    ______ ____
ROOT
ATOM      1  C   UNL     1     -13.278  14.893  71.682  0.00  0.00    +0.095 C 
ATOM      2  C   UNL     1     -12.870  13.372  71.243  0.00  0.00    -0.010 A 
ATOM      3  C   UNL     1     -11.890  13.256  70.306  0.00  0.00    -0.021 A 
ATOM      4  C   UNL     1     -11.828  11.957  69.794  0.00  0.00    -0.004 A 
ATOM      5  C   UNL     1     -12.515  10.888  70.343  0.00  0.00    -0.000 A 
ATOM      6  C   UNL     1     -13.000  11.101  71.629  0.00  0.00    -0.000 A 
ATOM      7  C   UNL     1     -12.073  14.228  68.993  0.00  0.00    +0.044 C 
ATOM      8  C   UNL     1     -12.100  15.672  69.824  0.00  0.00    +0.010 C 
ATOM      9  C   UNL     1     -13.331  12.383  72.063  0.00  0.00    -0.003 A 
ATOM     10  C   UNL     1     -11.761  15.447  71.224  0.00  0.00    +0.023 C 
ENDROOT
BRANCH   7  11
ATOM     11  C   UNL     1     -10.458  14.368  68.788  0.00  0.00    -0.018 A 
ATOM     12  C   UNL     1     -10.098  15.653  68.386  0.00  0.00    +0.008 A 
ATOM     13  C   UNL     1      -8.739  15.842  68.161  0.00  0.00    +0.068 A 
ATOM     14 CL   UNL     1      -8.075  17.407  68.615  0.00  0.00    -0.081 Cl
ATOM     15  C   UNL     1      -7.905  14.744  67.990  0.00  0.00    +0.068 A 
ATOM     16 CL   UNL     1      -6.200  15.047  68.086  0.00  0.00    -0.081 Cl
ATOM     17  C   UNL     1      -8.481  13.490  67.932  0.00  0.00    +0.012 A 
ATOM     18  C   UNL     1      -9.846  13.341  68.150  0.00  0.00    -0.003 A 
ENDBRANCH   7  11
BRANCH   1  20
ATOM     19  C   UNL     1     -12.819  16.005  73.582  0.00  0.00    +0.108 C 
ATOM     20  N   UNL     1     -12.785  14.679  73.196  0.00  0.00    -0.214 NA
ENDBRANCH   1  20
TORSDOF 2
ENDMDL
MODEL 4
REMARK VINA RESULT:      -6.1      3.603      5.233
REMARK  Name = 
REMARK  2 active torsions:
REMARK  status: ('A' for Active; 'I' for Inactive)
REMARK    1  A    between atoms: N_2  and  C_3
REMARK    2  A    between atoms: C_6  and  C_7
REMARK                            x       y       z     vdW  Elec       q    Type
REMARK                         _______ _______ _______ _____ _____    ______ ____
ROOT
ATOM      1  C   UNL     1     -10.385  16.896  66.534  0.00  0.00    +0.095 C 
ATOM      2  C   UNL     1     -10.886  15.987  67.797  0.00  0.00    -0.010 A 
ATOM      3  C   UNL     1     -11.070  14.661  67.552  0.00  0.00    -0.021 A 
ATOM      4  C   UNL     1     -11.770  14.046  68.593  0.00  0.00    -0.004 A 
ATOM      5  C   UNL     1     -12.027  14.659  69.808  0.00  0.00    -0.000 A 
ATOM      6  C   UNL     1     -11.261  15.790  70.066  0.00  0.00    -0.000 A 
ATOM      7  C   UNL     1     -11.933  14.325  66.194  0.00  0.00    +0.044 C 
ATOM      8  C   UNL     1     -10.930  15.116  65.126  0.00  0.00    +0.010 C 
ATOM      9  C   UNL     1     -10.781  16.580  69.022  0.00  0.00    -0.003 A 
ATOM     10  C   UNL     1      -9.712  15.540  65.808  0.00  0.00    +0.023 C 
ENDROOT
BRANCH   7  11
ATOM     11  C   UNL     1     -11.118  12.932  65.941  0.00  0.00    -0.018 A 
ATOM     12  C   UNL     1     -11.084  12.592  64.590  0.00  0.00    +0.008 A 
ATOM     13  C   UNL     1     -10.431  11.400  64.296  0.00  0.00    +0.068 A 
ATOM     14 CL   UNL     1      -9.505  11.354  62.801  0.00  0.00    -0.081 Cl
ATOM     15  C   UNL     1     -10.189  10.476  65.305  0.00  0.00    +0.068 A 
ATOM     16 CL   UNL     1      -9.062   9.210  64.938  0.00  0.00    -0.081 Cl
ATOM     17  C   UNL     1     -10.714  10.726  66.559  0.00  0.00    +0.012 A 
ATOM     18  C   UNL     1     -11.371  11.925  66.811  0.00  0.00    -0.003 A 
ENDBRANCH   7  11
BRANCH   1  20
ATOM     19  C   UNL     1      -8.704  18.389  66.500  0.00  0.00    +0.108 C 
ATOM     20  N   UNL     1      -8.988  17.258  67.241  0.00  0.00    -0.214 NA
ENDBRANCH   1  20
TORSDOF 2
ENDMDL
MODEL 5
REMARK VINA RESULT:      -6.0      2.901      4.830
REMARK  Name = 
REMARK  2 active torsions:
REMARK  status: ('A' for Active; 'I' for Inactive)
REMARK    1  A    between atoms: N_2  and  C_3
REMARK    2  A    between atoms: C_6  and  C_7
REMARK                            x       y       z     vdW  Elec       q    Type
REMARK                         _______ _______ _______ _____ _____    ______ ____
ROOT
ATOM      1  C   UNL     1     -10.788  10.229  67.315  0.00  0.00    +0.095 C 
ATOM      2  C   UNL     1     -10.439  10.794  65.821  0.00  0.00    -0.010 A 
ATOM      3  C   UNL     1     -10.534  12.140  65.647  0.00  0.00    -0.021 A 
ATOM      4  C   UNL     1     -10.509  12.479  64.292  0.00  0.00    -0.004 A 
ATOM      5  C   UNL     1     -10.191  11.582  63.286  0.00  0.00    -0.000 A 
ATOM      6  C   UNL     1      -9.568  10.415  63.718  0.00  0.00    -0.000 A 
ATOM      7  C   UNL     1     -11.914  12.815  66.234  0.00  0.00    +0.044 C 
ATOM      8  C   UNL     1     -11.721  12.310  67.810  0.00  0.00    +0.010 C 
ATOM      9  C   UNL     1      -9.807   9.911  64.995  0.00  0.00    -0.003 A 
ATOM     10  C   UNL     1     -10.399  11.719  67.984  0.00  0.00    +0.023 C 
ENDROOT
BRANCH   7  11
ATOM     11  C   UNL     1     -11.157  14.220  66.583  0.00  0.00    -0.018 A 
ATOM     12  C   UNL     1     -11.664  14.806  67.741  0.00  0.00    +0.008 A 
ATOM     13  C   UNL     1     -11.089  16.024  68.088  0.00  0.00    +0.068 A 
ATOM     14 CL   UNL     1     -10.880  16.337  69.806  0.00  0.00    -0.081 Cl
ATOM     15  C   UNL     1     -10.360  16.740  67.146  0.00  0.00    +0.068 A 
ATOM     16 CL   UNL     1      -9.382  18.038  67.751  0.00  0.00    -0.081 Cl
ATOM     17  C   UNL     1     -10.329  16.266  65.848  0.00  0.00    +0.012 A 
ATOM     18  C   UNL     1     -10.925  15.050  65.537  0.00  0.00    -0.003 A 
ENDBRANCH   7  11
BRANCH   1  20
ATOM     19  C   UNL     1      -9.264   9.848  68.924  0.00  0.00    +0.108 C 
ATOM     20  N   UNL     1      -9.294   9.689  67.552  0.00  0.00    -0.214 NA
ENDBRANCH   1  20
TORSDOF 2
ENDMDL
MODEL 6
REMARK VINA RESULT:      -5.9      2.589      4.595
REMARK  Name = 
REMARK  2 active torsions:
REMARK  status: ('A' for Active; 'I' for Inactive)
REMARK    1  A    between atoms: N_2  and  C_3
REMARK    2  A    between atoms: C_6  and  C_7
REMARK                            x       y       z     vdW  Elec       q    Type
REMARK                         _______ _______ _______ _____ _____    ______ ____
ROOT
ATOM      1  C   UNL     1      -7.236  17.327  66.130  0.00  0.00    +0.095 C 
ATOM      2  C   UNL     1      -8.418  18.309  66.686  0.00  0.00    -0.010 A 
ATOM      3  C   UNL     1      -9.528  17.698  67.184  0.00  0.00    -0.021 A 
ATOM      4  C   UNL     1     -10.575  18.607  67.351  0.00  0.00    -0.004 A 
ATOM      5  C   UNL     1     -10.419  19.979  67.247  0.00  0.00    -0.000 A 
ATOM      6  C   UNL     1      -9.103  20.425  67.304  0.00  0.00    -0.000 A 
ATOM      7  C   UNL     1     -10.141  16.504  66.234  0.00  0.00    +0.044 C 
ATOM      8  C   UNL     1      -8.765  15.565  66.192  0.00  0.00    +0.010 C 
ATOM      9  C   UNL     1      -8.056  19.612  66.872  0.00  0.00    -0.003 A 
ATOM     10  C   UNL     1      -7.776  16.089  67.127  0.00  0.00    +0.023 C 
ENDROOT
BRANCH   7  11
ATOM     11  C   UNL     1     -10.684  15.665  67.525  0.00  0.00    -0.018 A 
ATOM     12  C   UNL     1     -11.334  14.492  67.143  0.00  0.00    +0.008 A 
ATOM     13  C   UNL     1     -11.852  13.736  68.188  0.00  0.00    +0.068 A 
ATOM     14 CL   UNL     1     -11.775  11.987  68.010  0.00  0.00    -0.081 Cl
ATOM     15  C   UNL     1     -12.026  14.311  69.441  0.00  0.00    +0.068 A 
ATOM     16 CL   UNL     1     -12.319  13.221  70.757  0.00  0.00    -0.081 Cl
ATOM     17  C   UNL     1     -11.782  15.665  69.576  0.00  0.00    +0.012 A 
ATOM     18  C   UNL     1     -11.275  16.391  68.505  0.00  0.00    -0.003 A 
ENDBRANCH   7  11
BRANCH   1  20
ATOM     19  C   UNL     1      -5.034  17.524  66.540  0.00  0.00    +0.108 C 
ATOM     20  N   UNL     1      -6.187  17.818  67.243  0.00  0.00    -0.214 NA
ENDBRANCH   1  20
TORSDOF 2
ENDMDL
MODEL 7
REMARK VINA RESULT:      -5.9      3.756      4.716
REMARK  Name = 
REMARK  2 active torsions:
REMARK  status: ('A' for Active; 'I' for Inactive)
REMARK    1  A    between atoms: N_2  and  C_3
REMARK    2  A    between atoms: C_6  and  C_7
REMARK                            x       y       z     vdW  Elec       q    Type
REMARK                         _______ _______ _______ _____ _____    ______ ____
ROOT
ATOM      1  C   UNL     1     -11.064  12.716  66.501  0.00  0.00    +0.095 C 
ATOM      2  C   UNL     1     -10.421  11.312  65.964  0.00  0.00    -0.010 A 
ATOM      3  C   UNL     1     -10.304  10.312  66.880  0.00  0.00    -0.021 A 
ATOM      4  C   UNL     1      -9.487   9.282  66.405  0.00  0.00    -0.004 A 
ATOM      5  C   UNL     1      -9.056   9.194  65.092  0.00  0.00    -0.000 A 
ATOM      6  C   UNL     1      -9.754   9.992  64.192  0.00  0.00    -0.000 A 
ATOM      7  C   UNL     1      -9.638  10.765  68.313  0.00  0.00    +0.044 C 
ATOM      8  C   UNL     1     -10.754  11.944  68.681  0.00  0.00    +0.010 C 
ATOM      9  C   UNL     1     -10.348  11.183  64.607  0.00  0.00    -0.003 A 
ATOM     10  C   UNL     1     -11.860  11.897  67.731  0.00  0.00    +0.023 C 
ENDROOT
BRANCH   7  11
ATOM     11  C   UNL     1     -10.513   9.664  69.144  0.00  0.00    -0.018 A 
ATOM     12  C   UNL     1     -11.056  10.208  70.306  0.00  0.00    +0.008 A 
ATOM     13  C   UNL     1     -11.793   9.322  71.085  0.00  0.00    +0.068 A 
ATOM     14 CL   UNL     1     -13.211   9.975  71.895  0.00  0.00    -0.081 Cl
ATOM     15  C   UNL     1     -11.657   7.953  70.894  0.00  0.00    +0.068 A 
ATOM     16 CL   UNL     1     -12.862   6.947  71.631  0.00  0.00    -0.081 Cl
ATOM     17  C   UNL     1     -10.696   7.511  70.004  0.00  0.00    +0.012 A 
ATOM     18  C   UNL     1      -9.971   8.427  69.251  0.00  0.00    -0.003 A 
ENDBRANCH   7  11
BRANCH   1  20
ATOM     19  C   UNL     1     -12.691  13.933  65.537  0.00  0.00    +0.108 C 
ATOM     20  N   UNL     1     -12.345  12.595  65.539  0.00  0.00    -0.214 NA
ENDBRANCH   1  20
TORSDOF 2
ENDMDL
MODEL 8
REMARK VINA RESULT:      -5.8      4.465      6.225
REMARK  Name = 
REMARK  2 active torsions:
REMARK  status: ('A' for Active; 'I' for Inactive)
REMARK    1  A    between atoms: N_2  and  C_3
REMARK    2  A    between atoms: C_6  and  C_7
REMARK                            x       y       z     vdW  Elec       q    Type
REMARK                         _______ _______ _______ _____ _____    ______ ____
ROOT
ATOM      1  C   UNL     1     -11.403  14.864  66.172  0.00  0.00    +0.095 C 
ATOM      2  C   UNL     1     -11.456  13.609  67.218  0.00  0.00    -0.010 A 
ATOM      3  C   UNL     1     -11.059  12.400  66.734  0.00  0.00    -0.021 A 
ATOM      4  C   UNL     1     -11.419  11.364  67.599  0.00  0.00    -0.004 A 
ATOM      5  C   UNL     1     -11.900  11.572  68.881  0.00  0.00    -0.000 A 
ATOM      6  C   UNL     1     -11.687  12.851  69.386  0.00  0.00    -0.000 A 
ATOM      7  C   UNL     1     -11.711  11.994  65.280  0.00  0.00    +0.044 C 
ATOM      8  C   UNL     1     -11.152  13.319  64.440  0.00  0.00    +0.010 C 
ATOM      9  C   UNL     1     -11.601  13.949  68.532  0.00  0.00    -0.003 A 
ATOM     10  C   UNL     1     -10.224  14.079  65.270  0.00  0.00    +0.023 C 
ENDROOT
BRANCH   7  11
ATOM     11  C   UNL     1     -10.383  11.148  64.846  0.00  0.00    -0.018 A 
ATOM     12  C   UNL     1     -10.205  11.139  63.464  0.00  0.00    +0.008 A 
ATOM     13  C   UNL     1      -9.108  10.412  63.014  0.00  0.00    +0.068 A 
ATOM     14 CL   UNL     1      -8.246  11.062  61.625  0.00  0.00    -0.081 Cl
ATOM     15  C   UNL     1      -8.500   9.485  63.852  0.00  0.00    +0.068 A 
ATOM     16 CL   UNL     1      -6.942   8.904  63.358  0.00  0.00    -0.081 Cl
ATOM     17  C   UNL     1      -9.084   9.232  65.078  0.00  0.00    +0.012 A 
ATOM     18  C   UNL     1     -10.187   9.971  65.488  0.00  0.00    -0.003 A 
ENDBRANCH   7  11
BRANCH   1  20
ATOM     19  C   UNL     1     -10.187  16.755  66.218  0.00  0.00    +0.108 C 
ATOM     20  N   UNL     1     -10.286  15.640  67.028  0.00  0.00    -0.214 NA
ENDBRANCH   1  20
TORSDOF 2
ENDMDL
MODEL 9
REMARK VINA RESULT:      -5.8      3.518      5.225
REMARK  Name = 
REMARK  2 active torsions:
REMARK  status: ('A' for Active; 'I' for Inactive)
REMARK    1  A    between atoms: N_2  and  C_3
REMARK    2  A    between atoms: C_6  and  C_7
REMARK                            x       y       z     vdW  Elec       q    Type
REMARK                         _______ _______ _______ _____ _____    ______ ____
ROOT
ATOM      1  C   UNL     1     -11.697  15.045  68.874  0.00  0.00    +0.095 C 
ATOM      2  C   UNL     1     -12.433  14.546  70.245  0.00  0.00    -0.010 A 
ATOM      3  C   UNL     1     -12.233  13.247  70.600  0.00  0.00    -0.021 A 
ATOM      4  C   UNL     1     -13.126  12.851  71.599  0.00  0.00    -0.004 A 
ATOM      5  C   UNL     1     -13.938  13.734  72.291  0.00  0.00    -0.000 A 
ATOM      6  C   UNL     1     -13.576  15.073  72.180  0.00  0.00    -0.000 A 
ATOM      7  C   UNL     1     -12.438  12.161  69.384  0.00  0.00    +0.044 C 
ATOM      8  C   UNL     1     -11.296  12.805  68.355  0.00  0.00    +0.010 C 
ATOM      9  C   UNL     1     -12.917  15.541  71.045  0.00  0.00    -0.003 A 
ATOM     10  C   UNL     1     -10.537  13.844  69.042  0.00  0.00    +0.023 C 
ENDROOT
BRANCH   7  11
ATOM     11  C   UNL     1     -11.317  11.150  70.007  0.00  0.00    -0.018 A 
ATOM     12  C   UNL     1     -10.370  10.777  69.055  0.00  0.00    +0.008 A 
ATOM     13  C   UNL     1      -9.397   9.891  69.505  0.00  0.00    +0.068 A 
ATOM     14 CL   UNL     1      -7.774  10.108  68.862  0.00  0.00    -0.081 Cl
ATOM     15  C   UNL     1      -9.602   9.172  70.676  0.00  0.00    +0.068 A 
ATOM     16 CL   UNL     1      -8.212   8.386  71.352  0.00  0.00    -0.081 Cl
ATOM     17  C   UNL     1     -10.831   9.277  71.299  0.00  0.00    +0.012 A 
ATOM     18  C   UNL     1     -11.783  10.166  70.814  0.00  0.00    -0.003 A 
ENDBRANCH   7  11
BRANCH   1  20
ATOM     19  C   UNL     1     -10.461  16.899  68.569  0.00  0.00    +0.108 C 
ATOM     20  N   UNL     1     -10.772  16.102  69.654  0.00  0.00    -0.214 NA
ENDBRANCH   1  20
TORSDOF 2
ENDMDL
