MODEL 1
REMARK VINA RESULT:      -7.2      0.000      0.000
REMARK  Name = 
REMARK  5 active torsions:
REMARK  status: ('A' for Active; 'I' for Inactive)
REMARK    1  A    between atoms: C_6  and  C_7
REMARK    2  A    between atoms: C_7  and  N_8
REMARK    3  A    between atoms: N_11  and  C_12
REMARK    4  A    between atoms: C_12  and  C_13
REMARK    5  A    between atoms: C_12  and  C_19
REMARK                            x       y       z     vdW  Elec       q    Type
REMARK                         _______ _______ _______ _____ _____    ______ ____
ROOT
ATOM      1  N   UNL     1      -7.587  17.193  67.991  0.00  0.00    -0.267 NA
ATOM      2  C   UNL     1      -7.755  16.098  68.924  0.00  0.00    +0.090 C 
ATOM      3  C   UNL     1      -9.223  15.744  69.132  0.00  0.00    +0.090 C 
ATOM      4  N   UNL     1      -9.647  15.284  67.837  0.00  0.00    -0.264 NA
ATOM      5  C   UNL     1      -9.638  16.463  66.971  0.00  0.00    +0.090 C 
ATOM      6  C   UNL     1      -8.205  16.850  66.723  0.00  0.00    +0.090 C 
ENDROOT
BRANCH   1   7
ATOM      7  C   UNL     1      -8.285  18.355  68.477  0.00  0.00    +0.099 C 
BRANCH   7  11
ATOM      8  C   UNL     1      -4.610  21.102  70.379  0.00  0.00    +0.031 C 
ATOM      9  C   UNL     1      -5.498  20.761  69.328  0.00  0.00    -0.022 A 
ATOM     10  C   UNL     1      -6.411  19.723  69.476  0.00  0.00    -0.007 A 
ATOM     11  C   UNL     1      -7.366  19.535  68.514  0.00  0.00    -0.006 A 
ATOM     12  C   UNL     1      -7.280  20.206  67.300  0.00  0.00    -0.003 A 
ATOM     13  C   UNL     1      -6.279  21.119  67.136  0.00  0.00    -0.001 A 
ATOM     14  C   UNL     1      -5.332  21.372  68.102  0.00  0.00    -0.004 A 
ENDBRANCH   7  11
ENDBRANCH   1   7
BRANCH   4  15
ATOM     15  C   UNL     1     -11.209  15.072  67.932  0.00  0.00    +0.103 C 
BRANCH  15  16
ATOM     16  C   UNL     1     -11.287  14.152  66.607  0.00  0.00    -0.004 A 
ATOM     17  C   UNL     1     -12.559  13.998  66.083  0.00  0.00    -0.002 A 
ATOM     18  C   UNL     1     -12.644  13.173  64.966  0.00  0.00    +0.011 A 
ATOM     19  C   UNL     1     -11.498  12.717  64.328  0.00  0.00    +0.058 A 
ATOM     20 CL   UNL     1     -11.435  11.198  63.446  0.00  0.00    -0.082 Cl
ATOM     21  C   UNL     1     -10.361  13.466  64.540  0.00  0.00    +0.011 A 
ATOM     22  C   UNL     1     -10.265  14.137  65.738  0.00  0.00    -0.002 A 
ENDBRANCH  15  16
BRANCH  15  23
ATOM     23  C   UNL     1     -11.108  13.806  68.926  0.00  0.00    -0.004 A 
ATOM     24  C   UNL     1     -12.132  13.930  69.854  0.00  0.00    -0.003 A 
ATOM     25  C   UNL     1     -12.432  12.882  70.713  0.00  0.00    -0.000 A 
ATOM     26  C   UNL     1     -12.018  11.631  70.276  0.00  0.00    -0.000 A 
ATOM     27  C   UNL     1     -11.203  11.459  69.171  0.00  0.00    -0.000 A 
ATOM     28  C   UNL     1     -10.748  12.599  68.516  0.00  0.00    -0.003 A 
ENDBRANCH  15  23
ENDBRANCH   4  15
TORSDOF 5
ENDMDL
MODEL 2
REMARK VINA RESULT:      -7.1      1.685      3.728
REMARK  Name = 
REMARK  5 active torsions:
REMARK  status: ('A' for Active; 'I' for Inactive)
REMARK    1  A    between atoms: C_6  and  C_7
REMARK    2  A    between atoms: C_7  and  N_8
REMARK    3  A    between atoms: N_11  and  C_12
REMARK    4  A    between atoms: C_12  and  C_13
REMARK    5  A    between atoms: C_12  and  C_19
REMARK                            x       y       z     vdW  Elec       q    Type
REMARK                         _______ _______ _______ _____ _____    ______ ____
ROOT
ATOM      1  N   UNL     1      -9.382  17.821  67.545  0.00  0.00    -0.267 NA
ATOM      2  C   UNL     1     -10.319  17.389  66.528  0.00  0.00    +0.090 C 
ATOM      3  C   UNL     1      -9.955  16.021  65.960  0.00  0.00    +0.090 C 
ATOM      4  N   UNL     1     -10.096  15.139  67.086  0.00  0.00    -0.264 NA
ATOM      5  C   UNL     1      -9.015  15.490  68.007  0.00  0.00    +0.090 C 
ATOM      6  C   UNL     1      -9.331  16.833  68.607  0.00  0.00    +0.090 C 
ENDROOT
BRANCH   1   7
ATOM      7  C   UNL     1      -8.056  17.883  66.988  0.00  0.00    +0.099 C 
BRANCH   7  11
ATOM      8  C   UNL     1      -5.358  20.758  70.007  0.00  0.00    +0.031 C 
ATOM      9  C   UNL     1      -5.952  20.480  68.751  0.00  0.00    -0.022 A 
ATOM     10  C   UNL     1      -6.680  19.312  68.551  0.00  0.00    -0.007 A 
ATOM     11  C   UNL     1      -7.383  19.158  67.388  0.00  0.00    -0.006 A 
ATOM     12  C   UNL     1      -7.184  20.033  66.326  0.00  0.00    -0.003 A 
ATOM     13  C   UNL     1      -6.347  21.094  66.512  0.00  0.00    -0.001 A 
ATOM     14  C   UNL     1      -5.663  21.309  67.687  0.00  0.00    -0.004 A 
ENDBRANCH   7  11
ENDBRANCH   1   7
BRANCH   4  15
ATOM     15  C   UNL     1      -9.556  13.731  66.615  0.00  0.00    +0.103 C 
BRANCH  15  16
ATOM     16  C   UNL     1     -10.399  12.904  67.717  0.00  0.00    -0.004 A 
ATOM     17  C   UNL     1      -9.792  11.741  68.158  0.00  0.00    -0.002 A 
ATOM     18  C   UNL     1     -10.529  10.999  69.076  0.00  0.00    +0.011 A 
ATOM     19  C   UNL     1     -11.689  11.513  69.640  0.00  0.00    +0.058 A 
ATOM     20 CL   UNL     1     -13.015  10.498  70.189  0.00  0.00    -0.082 Cl
ATOM     21  C   UNL     1     -11.801  12.886  69.624  0.00  0.00    +0.011 A 
ATOM     22  C   UNL     1     -11.178  13.554  68.595  0.00  0.00    -0.002 A 
ENDBRANCH  15  16
BRANCH  15  23
ATOM     23  C   UNL     1     -10.676  13.541  65.470  0.00  0.00    -0.004 A 
ATOM     24  C   UNL     1     -10.143  12.690  64.512  0.00  0.00    -0.003 A 
ATOM     25  C   UNL     1     -10.947  12.171  63.508  0.00  0.00    -0.000 A 
ATOM     26  C   UNL     1     -12.304  12.150  63.798  0.00  0.00    -0.000 A 
ATOM     27  C   UNL     1     -12.838  12.771  64.913  0.00  0.00    -0.000 A 
ATOM     28  C   UNL     1     -11.972  13.484  65.736  0.00  0.00    -0.003 A 
ENDBRANCH  15  23
ENDBRANCH   4  15
TORSDOF 5
ENDMDL
MODEL 3
REMARK VINA RESULT:      -6.7      2.883      5.269
REMARK  Name = 
REMARK  5 active torsions:
REMARK  status: ('A' for Active; 'I' for Inactive)
REMARK    1  A    between atoms: C_6  and  C_7
REMARK    2  A    between atoms: C_7  and  N_8
REMARK    3  A    between atoms: N_11  and  C_12
REMARK    4  A    between atoms: C_12  and  C_13
REMARK    5  A    between atoms: C_12  and  C_19
REMARK                            x       y       z     vdW  Elec       q    Type
REMARK                         _______ _______ _______ _____ _____    ______ ____
ROOT
ATOM      1  N   UNL     1     -11.297  14.907  66.858  0.00  0.00    -0.267 NA
ATOM      2  C   UNL     1     -11.498  13.632  66.200  0.00  0.00    +0.090 C 
ATOM      3  C   UNL     1     -10.531  12.569  66.708  0.00  0.00    +0.090 C 
ATOM      4  N   UNL     1     -10.900  12.410  68.089  0.00  0.00    -0.264 NA
ATOM      5  C   UNL     1     -10.510  13.654  68.753  0.00  0.00    +0.090 C 
ATOM      6  C   UNL     1     -11.443  14.740  68.293  0.00  0.00    +0.090 C 
ENDROOT
BRANCH   1   7
ATOM      7  C   UNL     1      -9.947  15.358  66.641  0.00  0.00    +0.099 C 
BRANCH   7  11
ATOM      8  C   UNL     1      -7.796  19.307  68.748  0.00  0.00    +0.031 C 
ATOM      9  C   UNL     1      -8.704  18.722  67.830  0.00  0.00    -0.022 A 
ATOM     10  C   UNL     1      -8.823  17.341  67.728  0.00  0.00    -0.007 A 
ATOM     11  C   UNL     1      -9.827  16.814  66.963  0.00  0.00    -0.006 A 
ATOM     12  C   UNL     1     -10.562  17.630  66.111  0.00  0.00    -0.003 A 
ATOM     13  C   UNL     1     -10.318  18.973  66.133  0.00  0.00    -0.001 A 
ATOM     14  C   UNL     1      -9.351  19.543  66.930  0.00  0.00    -0.004 A 
ENDBRANCH   7  11
ENDBRANCH   1   7
BRANCH   4  15
ATOM     15  C   UNL     1      -9.818  11.452  68.728  0.00  0.00    +0.103 C 
BRANCH  15  16
ATOM     16  C   UNL     1     -10.881  10.677  69.665  0.00  0.00    -0.004 A 
ATOM     17  C   UNL     1     -10.330   9.707  70.485  0.00  0.00    -0.002 A 
ATOM     18  C   UNL     1     -11.243   9.004  71.266  0.00  0.00    +0.011 A 
ATOM     19  C   UNL     1     -12.570   9.404  71.345  0.00  0.00    +0.058 A 
ATOM     20 CL   UNL     1     -13.889   8.284  71.657  0.00  0.00    -0.082 Cl
ATOM     21  C   UNL     1     -12.814  10.723  71.030  0.00  0.00    +0.011 A 
ATOM     22  C   UNL     1     -11.965  11.319  70.125  0.00  0.00    -0.002 A 
ENDBRANCH  15  16
BRANCH  15  23
ATOM     23  C   UNL     1      -9.905  10.354  67.550  0.00  0.00    -0.004 A 
ATOM     24  C   UNL     1      -8.604  10.055  67.171  0.00  0.00    -0.003 A 
ATOM     25  C   UNL     1      -8.347   8.988  66.323  0.00  0.00    -0.000 A 
ATOM     26  C   UNL     1      -9.337   8.015  66.291  0.00  0.00    -0.000 A 
ATOM     27  C   UNL     1     -10.566   8.181  66.903  0.00  0.00    -0.000 A 
ATOM     28  C   UNL     1     -10.822   9.399  67.526  0.00  0.00    -0.003 A 
ENDBRANCH  15  23
ENDBRANCH   4  15
TORSDOF 5
ENDMDL
MODEL 4
REMARK VINA RESULT:      -6.6      2.238      3.871
REMARK  Name = 
REMARK  5 active torsions:
REMARK  status: ('A' for Active; 'I' for Inactive)
REMARK    1  A    between atoms: C_6  and  C_7
REMARK    2  A    between atoms: C_7  and  N_8
REMARK    3  A    between atoms: N_11  and  C_12
REMARK    4  A    between atoms: C_12  and  C_13
REMARK    5  A    between atoms: C_12  and  C_19
REMARK                            x       y       z     vdW  Elec       q    Type
REMARK                         _______ _______ _______ _____ _____    ______ ____
ROOT
ATOM      1  N   UNL     1      -9.396  18.021  66.685  0.00  0.00    -0.267 NA
ATOM      2  C   UNL     1      -9.903  16.967  65.831  0.00  0.00    +0.090 C 
ATOM      3  C   UNL     1      -9.713  15.587  66.452  0.00  0.00    +0.090 C 
ATOM      4  N   UNL     1     -10.538  15.630  67.629  0.00  0.00    -0.264 NA
ATOM      5  C   UNL     1      -9.886  16.572  68.540  0.00  0.00    +0.090 C 
ATOM      6  C   UNL     1     -10.054  17.957  67.977  0.00  0.00    +0.090 C 
ENDROOT
BRANCH   1   7
ATOM      7  C   UNL     1      -7.994  17.809  66.936  0.00  0.00    +0.099 C 
BRANCH   7  11
ATOM      8  C   UNL     1      -5.505  20.509  70.279  0.00  0.00    +0.031 C 
ATOM      9  C   UNL     1      -6.027  20.308  68.977  0.00  0.00    -0.022 A 
ATOM     10  C   UNL     1      -6.725  19.147  68.661  0.00  0.00    -0.007 A 
ATOM     11  C   UNL     1      -7.364  19.063  67.455  0.00  0.00    -0.006 A 
ATOM     12  C   UNL     1      -7.122  20.009  66.465  0.00  0.00    -0.003 A 
ATOM     13  C   UNL     1      -6.312  21.065  66.766  0.00  0.00    -0.001 A 
ATOM     14  C   UNL     1      -5.696  21.210  67.988  0.00  0.00    -0.004 A 
ENDBRANCH   7  11
ENDBRANCH   1   7
BRANCH   4  15
ATOM     15  C   UNL     1     -10.247  14.295  68.422  0.00  0.00    +0.103 C 
BRANCH  15  16
ATOM     16  C   UNL     1     -11.482  14.489  69.444  0.00  0.00    -0.004 A 
ATOM     17  C   UNL     1     -11.923  13.324  70.047  0.00  0.00    -0.002 A 
ATOM     18  C   UNL     1     -13.015  13.474  70.897  0.00  0.00    +0.011 A 
ATOM     19  C   UNL     1     -13.476  14.735  71.249  0.00  0.00    +0.058 A 
ATOM     20 CL   UNL     1     -15.153  15.057  71.667  0.00  0.00    -0.082 Cl
ATOM     21  C   UNL     1     -12.564  15.759  71.122  0.00  0.00    +0.011 A 
ATOM     22  C   UNL     1     -11.598  15.623  70.151  0.00  0.00    -0.002 A 
ENDBRANCH  15  16
BRANCH  15  23
ATOM     23  C   UNL     1     -11.094  13.361  67.417  0.00  0.00    -0.004 A 
ATOM     24  C   UNL     1     -12.043  14.169  66.807  0.00  0.00    -0.003 A 
ATOM     25  C   UNL     1     -12.784  13.695  65.734  0.00  0.00    -0.000 A 
ATOM     26  C   UNL     1     -12.207  12.637  65.046  0.00  0.00    -0.000 A 
ATOM     27  C   UNL     1     -11.079  11.977  65.503  0.00  0.00    -0.000 A 
ATOM     28  C   UNL     1     -10.548  12.370  66.727  0.00  0.00    -0.003 A 
ENDBRANCH  15  23
ENDBRANCH   4  15
TORSDOF 5
ENDMDL
MODEL 5
REMARK VINA RESULT:      -6.6      2.589      4.477
REMARK  Name = 
REMARK  5 active torsions:
REMARK  status: ('A' for Active; 'I' for Inactive)
REMARK    1  A    between atoms: C_6  and  C_7
REMARK    2  A    between atoms: C_7  and  N_8
REMARK    3  A    between atoms: N_11  and  C_12
REMARK    4  A    between atoms: C_12  and  C_13
REMARK    5  A    between atoms: C_12  and  C_19
REMARK                            x       y       z     vdW  Elec       q    Type
REMARK                         _______ _______ _______ _____ _____    ______ ____
ROOT
ATOM      1  N   UNL     1      -8.151  18.501  67.311  0.00  0.00    -0.267 NA
ATOM      2  C   UNL     1      -9.239  18.014  66.488  0.00  0.00    +0.090 C 
ATOM      3  C   UNL     1      -9.404  16.502  66.596  0.00  0.00    +0.090 C 
ATOM      4  N   UNL     1      -9.771  16.299  67.971  0.00  0.00    -0.264 NA
ATOM      5  C   UNL     1      -8.581  16.628  68.756  0.00  0.00    +0.090 C 
ATOM      6  C   UNL     1      -8.378  18.118  68.693  0.00  0.00    +0.090 C 
ENDROOT
BRANCH   1   7
ATOM      7  C   UNL     1      -6.922  17.866  66.914  0.00  0.00    +0.099 C 
BRANCH   7  11
ATOM      8  C   UNL     1      -5.192  19.312  62.488  0.00  0.00    +0.031 C 
ATOM      9  C   UNL     1      -5.461  19.547  63.860  0.00  0.00    -0.022 A 
ATOM     10  C   UNL     1      -6.063  18.569  64.645  0.00  0.00    -0.007 A 
ATOM     11  C   UNL     1      -6.148  18.760  65.996  0.00  0.00    -0.006 A 
ATOM     12  C   UNL     1      -5.864  20.004  66.548  0.00  0.00    -0.003 A 
ATOM     13  C   UNL     1      -5.410  20.990  65.720  0.00  0.00    -0.001 A 
ATOM     14  C   UNL     1      -5.262  20.815  64.363  0.00  0.00    -0.004 A 
ENDBRANCH   7  11
ENDBRANCH   1   7
BRANCH   4  15
ATOM     15  C   UNL     1      -9.780  14.736  68.201  0.00  0.00    +0.103 C 
BRANCH  15  16
ATOM     16  C   UNL     1     -11.045  14.769  69.205  0.00  0.00    -0.004 A 
ATOM     17  C   UNL     1     -11.359  13.549  69.779  0.00  0.00    -0.002 A 
ATOM     18  C   UNL     1     -12.474  13.557  70.614  0.00  0.00    +0.011 A 
ATOM     19  C   UNL     1     -13.080  14.751  70.980  0.00  0.00    +0.058 A 
ATOM     20 CL   UNL     1     -14.789  14.872  71.376  0.00  0.00    -0.082 Cl
ATOM     21  C   UNL     1     -12.289  15.874  70.888  0.00  0.00    +0.011 A 
ATOM     22  C   UNL     1     -11.299  15.867  69.931  0.00  0.00    -0.002 A 
ENDBRANCH  15  16
BRANCH  15  23
ATOM     23  C   UNL     1     -10.689  14.421  66.906  0.00  0.00    -0.004 A 
ATOM     24  C   UNL     1     -10.107  13.347  66.247  0.00  0.00    -0.003 A 
ATOM     25  C   UNL     1     -10.776  12.711  65.212  0.00  0.00    -0.000 A 
ATOM     26  C   UNL     1     -12.155  12.876  65.219  0.00  0.00    -0.000 A 
ATOM     27  C   UNL     1     -12.796  13.758  66.071  0.00  0.00    -0.000 A 
ATOM     28  C   UNL     1     -12.008  14.540  66.909  0.00  0.00    -0.003 A 
ENDBRANCH  15  23
ENDBRANCH   4  15
TORSDOF 5
ENDMDL
MODEL 6
REMARK VINA RESULT:      -6.4      4.984     10.026
REMARK  Name = 
REMARK  5 active torsions:
REMARK  status: ('A' for Active; 'I' for Inactive)
REMARK    1  A    between atoms: C_6  and  C_7
REMARK    2  A    between atoms: C_7  and  N_8
REMARK    3  A    between atoms: N_11  and  C_12
REMARK    4  A    between atoms: C_12  and  C_13
REMARK    5  A    between atoms: C_12  and  C_19
REMARK                            x       y       z     vdW  Elec       q    Type
REMARK                         _______ _______ _______ _____ _____    ______ ____
ROOT
ATOM      1  N   UNL     1     -11.534   8.652  72.008  0.00  0.00    -0.267 NA
ATOM      2  C   UNL     1     -10.297   9.163  71.453  0.00  0.00    +0.090 C 
ATOM      3  C   UNL     1     -10.449   9.560  69.989  0.00  0.00    +0.090 C 
ATOM      4  N   UNL     1     -11.390  10.646  70.029  0.00  0.00    -0.264 NA
ATOM      5  C   UNL     1     -12.670  10.052  70.416  0.00  0.00    +0.090 C 
ATOM      6  C   UNL     1     -12.579   9.650  71.863  0.00  0.00    +0.090 C 
ENDROOT
BRANCH   1   7
ATOM      7  C   UNL     1     -11.967   7.505  71.253  0.00  0.00    +0.099 C 
BRANCH   7  11
ATOM      8  C   UNL     1     -10.523   3.785  74.210  0.00  0.00    +0.031 C 
ATOM      9  C   UNL     1     -10.569   4.431  72.949  0.00  0.00    -0.022 A 
ATOM     10  C   UNL     1     -11.262   5.626  72.786  0.00  0.00    -0.007 A 
ATOM     11  C   UNL     1     -11.140   6.309  71.607  0.00  0.00    -0.006 A 
ATOM     12  C   UNL     1     -10.539   5.709  70.507  0.00  0.00    -0.003 A 
ATOM     13  C   UNL     1      -9.993   4.468  70.667  0.00  0.00    -0.001 A 
ATOM     14  C   UNL     1     -10.050   3.774  71.853  0.00  0.00    -0.004 A 
ENDBRANCH   7  11
ENDBRANCH   1   7
BRANCH   4  15
ATOM     15  C   UNL     1     -11.734  10.989  68.525  0.00  0.00    +0.103 C 
BRANCH  15  16
ATOM     16  C   UNL     1     -11.615  12.585  68.735  0.00  0.00    -0.004 A 
ATOM     17  C   UNL     1     -11.919  13.340  67.615  0.00  0.00    -0.002 A 
ATOM     18  C   UNL     1     -11.779  14.716  67.772  0.00  0.00    +0.011 A 
ATOM     19  C   UNL     1     -11.547  15.270  69.024  0.00  0.00    +0.058 A 
ATOM     20 CL   UNL     1     -10.675  16.779  69.254  0.00  0.00    -0.082 Cl
ATOM     21  C   UNL     1     -11.926  14.495  70.098  0.00  0.00    +0.011 A 
ATOM     22  C   UNL     1     -11.892  13.130  69.929  0.00  0.00    -0.002 A 
ENDBRANCH  15  16
BRANCH  15  23
ATOM     23  C   UNL     1     -10.214  10.842  68.008  0.00  0.00    -0.004 A 
ATOM     24  C   UNL     1     -10.261  10.240  66.759  0.00  0.00    -0.003 A 
ATOM     25  C   UNL     1      -9.123  10.173  65.968  0.00  0.00    -0.000 A 
ATOM     26  C   UNL     1      -8.148  11.115  66.265  0.00  0.00    -0.000 A 
ATOM     27  C   UNL     1      -8.215  11.932  67.379  0.00  0.00    -0.000 A 
ATOM     28  C   UNL     1      -9.282  11.751  68.254  0.00  0.00    -0.003 A 
ENDBRANCH  15  23
ENDBRANCH   4  15
TORSDOF 5
ENDMDL
MODEL 7
REMARK VINA RESULT:      -6.3      3.308      8.701
REMARK  Name = 
REMARK  5 active torsions:
REMARK  status: ('A' for Active; 'I' for Inactive)
REMARK    1  A    between atoms: C_6  and  C_7
REMARK    2  A    between atoms: C_7  and  N_8
REMARK    3  A    between atoms: N_11  and  C_12
REMARK    4  A    between atoms: C_12  and  C_13
REMARK    5  A    between atoms: C_12  and  C_19
REMARK                            x       y       z     vdW  Elec       q    Type
REMARK                         _______ _______ _______ _____ _____    ______ ____
ROOT
ATOM      1  N   UNL     1      -9.839  15.599  68.073  0.00  0.00    -0.267 NA
ATOM      2  C   UNL     1      -8.556  15.364  67.443  0.00  0.00    +0.090 C 
ATOM      3  C   UNL     1      -8.119  16.543  66.580  0.00  0.00    +0.090 C 
ATOM      4  N   UNL     1      -7.950  17.611  67.528  0.00  0.00    -0.264 NA
ATOM      5  C   UNL     1      -9.295  17.940  68.003  0.00  0.00    +0.090 C 
ATOM      6  C   UNL     1      -9.773  16.809  68.872  0.00  0.00    +0.090 C 
ENDROOT
BRANCH   1   7
ATOM      7  C   UNL     1     -10.838  15.838  67.064  0.00  0.00    +0.099 C 
BRANCH   7  11
ATOM      8  C   UNL     1     -11.805  12.574  63.448  0.00  0.00    +0.031 C 
ATOM      9  C   UNL     1     -11.657  12.913  64.816  0.00  0.00    -0.022 A 
ATOM     10  C   UNL     1     -11.313  14.205  65.196  0.00  0.00    -0.007 A 
ATOM     11  C   UNL     1     -11.350  14.540  66.522  0.00  0.00    -0.006 A 
ATOM     12  C   UNL     1     -11.489  13.554  67.492  0.00  0.00    -0.003 A 
ATOM     13  C   UNL     1     -11.683  12.267  67.081  0.00  0.00    -0.001 A 
ATOM     14  C   UNL     1     -11.704  11.902  65.754  0.00  0.00    -0.004 A 
ENDBRANCH   7  11
ENDBRANCH   1   7
BRANCH   4  15
ATOM     15  C   UNL     1      -7.674  18.915  66.680  0.00  0.00    +0.103 C 
BRANCH  15  16
ATOM     16  C   UNL     1      -6.692  19.570  67.783  0.00  0.00    -0.004 A 
ATOM     17  C   UNL     1      -6.299  20.868  67.510  0.00  0.00    -0.002 A 
ATOM     18  C   UNL     1      -5.418  21.427  68.432  0.00  0.00    +0.011 A 
ATOM     19  C   UNL     1      -5.134  20.782  69.627  0.00  0.00    +0.058 A 
ATOM     20 CL   UNL     1      -3.607  20.973  70.477  0.00  0.00    -0.082 Cl
ATOM     21  C   UNL     1      -6.075  19.867  70.048  0.00  0.00    +0.011 A 
ATOM     22  C   UNL     1      -6.808  19.228  69.075  0.00  0.00    -0.002 A 
ENDBRANCH  15  16
BRANCH  15  23
ATOM     23  C   UNL     1      -6.460  18.266  65.838  0.00  0.00    -0.004 A 
ATOM     24  C   UNL     1      -6.268  19.060  64.717  0.00  0.00    -0.003 A 
ATOM     25  C   UNL     1      -5.156  18.877  63.909  0.00  0.00    -0.000 A 
ATOM     26  C   UNL     1      -4.082  18.248  64.525  0.00  0.00    -0.000 A 
ATOM     27  C   UNL     1      -4.174  17.676  65.781  0.00  0.00    -0.000 A 
ATOM     28  C   UNL     1      -5.413  17.695  66.414  0.00  0.00    -0.003 A 
ENDBRANCH  15  23
ENDBRANCH   4  15
TORSDOF 5
ENDMDL
MODEL 8
REMARK VINA RESULT:      -6.3      3.219      8.093
REMARK  Name = 
REMARK  5 active torsions:
REMARK  status: ('A' for Active; 'I' for Inactive)
REMARK    1  A    between atoms: C_6  and  C_7
REMARK    2  A    between atoms: C_7  and  N_8
REMARK    3  A    between atoms: N_11  and  C_12
REMARK    4  A    between atoms: C_12  and  C_13
REMARK    5  A    between atoms: C_12  and  C_19
REMARK                            x       y       z     vdW  Elec       q    Type
REMARK                         _______ _______ _______ _____ _____    ______ ____
ROOT
ATOM      1  N   UNL     1     -10.234  15.034  68.585  0.00  0.00    -0.267 NA
ATOM      2  C   UNL     1     -10.004  15.383  67.198  0.00  0.00    +0.090 C 
ATOM      3  C   UNL     1      -9.759  16.877  67.018  0.00  0.00    +0.090 C 
ATOM      4  N   UNL     1      -8.534  17.107  67.735  0.00  0.00    -0.264 NA
ATOM      5  C   UNL     1      -8.857  16.922  69.150  0.00  0.00    +0.090 C 
ATOM      6  C   UNL     1      -9.099  15.456  69.386  0.00  0.00    +0.090 C 
ENDROOT
BRANCH   1   7
ATOM      7  C   UNL     1     -11.372  15.759  69.085  0.00  0.00    +0.099 C 
BRANCH   7  11
ATOM      8  C   UNL     1     -12.528  16.129  73.901  0.00  0.00    +0.031 C 
ATOM      9  C   UNL     1     -12.506  15.420  72.674  0.00  0.00    -0.022 A 
ATOM     10  C   UNL     1     -11.953  15.990  71.532  0.00  0.00    -0.007 A 
ATOM     11  C   UNL     1     -11.790  15.217  70.416  0.00  0.00    -0.006 A 
ATOM     12  C   UNL     1     -12.384  13.962  70.338  0.00  0.00    -0.003 A 
ATOM     13  C   UNL     1     -13.045  13.492  71.435  0.00  0.00    -0.001 A 
ATOM     14  C   UNL     1     -13.183  14.221  72.594  0.00  0.00    -0.004 A 
ENDBRANCH   7  11
ENDBRANCH   1   7
BRANCH   4  15
ATOM     15  C   UNL     1      -8.314  18.671  67.745  0.00  0.00    +0.103 C 
BRANCH  15  16
ATOM     16  C   UNL     1      -6.888  18.588  68.499  0.00  0.00    -0.004 A 
ATOM     17  C   UNL     1      -6.679  19.570  69.452  0.00  0.00    -0.002 A 
ATOM     18  C   UNL     1      -5.436  19.533  70.078  0.00  0.00    +0.011 A 
ATOM     19  C   UNL     1      -4.574  18.462  69.886  0.00  0.00    +0.058 A 
ATOM     20 CL   UNL     1      -2.825  18.612  69.994  0.00  0.00    -0.082 Cl
ATOM     21  C   UNL     1      -5.164  17.289  69.470  0.00  0.00    +0.011 A 
ATOM     22  C   UNL     1      -6.310  17.397  68.716  0.00  0.00    -0.002 A 
ENDBRANCH  15  16
BRANCH  15  23
ATOM     23  C   UNL     1      -7.648  18.718  66.277  0.00  0.00    -0.004 A 
ATOM     24  C   UNL     1      -7.437  20.053  65.964  0.00  0.00    -0.003 A 
ATOM     25  C   UNL     1      -6.684  20.403  64.853  0.00  0.00    -0.000 A 
ATOM     26  C   UNL     1      -5.807  19.423  64.408  0.00  0.00    -0.000 A 
ATOM     27  C   UNL     1      -5.815  18.133  64.907  0.00  0.00    -0.000 A 
ATOM     28  C   UNL     1      -6.782  17.809  65.853  0.00  0.00    -0.003 A 
ENDBRANCH  15  23
ENDBRANCH   4  15
TORSDOF 5
ENDMDL
MODEL 9
REMARK VINA RESULT:      -6.2      2.668      4.482
REMARK  Name = 
REMARK  5 active torsions:
REMARK  status: ('A' for Active; 'I' for Inactive)
REMARK    1  A    between atoms: C_6  and  C_7
REMARK    2  A    between atoms: C_7  and  N_8
REMARK    3  A    between atoms: N_11  and  C_12
REMARK    4  A    between atoms: C_12  and  C_13
REMARK    5  A    between atoms: C_12  and  C_19
REMARK                            x       y       z     vdW  Elec       q    Type
REMARK                         _______ _______ _______ _____ _____    ______ ____
ROOT
ATOM      1  N   UNL     1     -10.616  16.225  68.496  0.00  0.00    -0.267 NA
ATOM      2  C   UNL     1     -10.902  15.979  67.098  0.00  0.00    +0.090 C 
ATOM      3  C   UNL     1     -10.061  14.838  66.536  0.00  0.00    +0.090 C 
ATOM      4  N   UNL     1     -10.507  13.691  67.280  0.00  0.00    -0.264 NA
ATOM      5  C   UNL     1     -10.036  13.897  68.650  0.00  0.00    +0.090 C 
ATOM      6  C   UNL     1     -10.844  15.011  69.259  0.00  0.00    +0.090 C 
ENDROOT
BRANCH   1   7
ATOM      7  C   UNL     1      -9.222  16.546  68.657  0.00  0.00    +0.099 C 
BRANCH   7  11
ATOM      8  C   UNL     1      -7.135  19.843  65.585  0.00  0.00    +0.031 C 
ATOM      9  C   UNL     1      -8.083  19.488  66.578  0.00  0.00    -0.022 A 
ATOM     10  C   UNL     1      -8.142  18.190  67.074  0.00  0.00    -0.007 A 
ATOM     11  C   UNL     1      -8.944  17.926  68.149  0.00  0.00    -0.006 A 
ATOM     12  C   UNL     1      -9.865  18.871  68.588  0.00  0.00    -0.003 A 
ATOM     13  C   UNL     1      -9.876  20.092  67.979  0.00  0.00    -0.001 A 
ATOM     14  C   UNL     1      -9.046  20.411  66.928  0.00  0.00    -0.004 A 
ENDBRANCH   7  11
ENDBRANCH   1   7
BRANCH   4  15
ATOM     15  C   UNL     1      -9.548  12.502  66.877  0.00  0.00    +0.103 C 
BRANCH  15  16
ATOM     16  C   UNL     1     -10.059  11.529  68.060  0.00  0.00    -0.004 A 
ATOM     17  C   UNL     1     -11.433  11.368  68.124  0.00  0.00    -0.002 A 
ATOM     18  C   UNL     1     -11.887  10.565  69.166  0.00  0.00    +0.011 A 
ATOM     19  C   UNL     1     -10.998   9.833  69.941  0.00  0.00    +0.058 A 
ATOM     20 CL   UNL     1     -11.319   9.404  71.616  0.00  0.00    -0.082 Cl
ATOM     21  C   UNL     1      -9.777   9.571  69.359  0.00  0.00    +0.011 A 
ATOM     22  C   UNL     1      -9.306  10.489  68.449  0.00  0.00    -0.002 A 
ENDBRANCH  15  16
BRANCH  15  23
ATOM     23  C   UNL     1     -10.564  11.880  65.790  0.00  0.00    -0.004 A 
ATOM     24  C   UNL     1     -11.618  12.772  65.656  0.00  0.00    -0.003 A 
ATOM     25  C   UNL     1     -12.547  12.615  64.638  0.00  0.00    -0.000 A 
ATOM     26  C   UNL     1     -12.103  11.874  63.551  0.00  0.00    -0.000 A 
ATOM     27  C   UNL     1     -10.903  11.184  63.559  0.00  0.00    -0.000 A 
ATOM     28  C   UNL     1     -10.151  11.202  64.729  0.00  0.00    -0.003 A 
ENDBRANCH  15  23
ENDBRANCH   4  15
TORSDOF 5
ENDMDL
