MODEL 1
REMARK VINA RESULT:      -7.0      0.000      0.000
REMARK  Name = 
REMARK  9 active torsions:
REMARK  status: ('A' for Active; 'I' for Inactive)
REMARK    1  A    between atoms: O_2  and  C_3
REMARK    2  A    between atoms: C_8  and  O_9
REMARK    3  A    between atoms: O_9  and  C_10
REMARK    4  A    between atoms: C_10  and  C_11
REMARK    5  A    between atoms: C_11  and  C_13
REMARK    6  A    between atoms: C_13  and  N_14
REMARK    7  A    between atoms: N_17  and  C_18
REMARK    8  A    between atoms: C_18  and  C_19
REMARK    9  A    between atoms: N_21  and  C_22
REMARK                            x       y       z     vdW  Elec       q    Type
REMARK                         _______ _______ _______ _____ _____    ______ ____
ROOT
ATOM      1  N   UNL     1     -10.959  12.547  65.263  0.00  0.00    -0.268 NA
ATOM      2  C   UNL     1      -9.806  11.713  65.533  0.00  0.00    +0.090 C 
ATOM      3  C   UNL     1      -9.265  12.265  66.855  0.00  0.00    +0.090 C 
ATOM      4  N   UNL     1     -10.139  11.607  67.828  0.00  0.00    -0.263 NA
ATOM      5  C   UNL     1     -11.522  11.879  67.587  0.00  0.00    +0.090 C 
ATOM      6  C   UNL     1     -11.873  12.608  66.359  0.00  0.00    +0.090 C 
ENDROOT
BRANCH   4   7
ATOM      7  C   UNL     1      -9.792  10.208  67.563  0.00  0.00    +0.161 C 
BRANCH   7   8
ATOM      8  C   UNL     1     -10.216   9.378  68.698  0.00  0.00    +0.262 C 
ATOM      9  N   UNL     1     -10.167  10.037  69.951  0.00  0.00    -0.179 NA
ATOM     10  O   UNL     1     -10.624   8.216  68.514  0.00  0.00    -0.271 OA
BRANCH   9  11
ATOM     11  C   UNL     1     -10.361   9.276  71.119  0.00  0.00    +0.065 A 
ATOM     12  C   UNL     1     -11.635   9.190  71.618  0.00  0.00    -0.007 A 
ATOM     13  C   UNL     1     -12.521  10.373  71.415  0.00  0.00    +0.032 C 
ATOM     14  C   UNL     1     -11.987   8.098  72.368  0.00  0.00    -0.003 A 
ATOM     15  C   UNL     1     -10.954   7.347  72.915  0.00  0.00    -0.001 A 
ATOM     16  C   UNL     1      -9.629   7.596  72.575  0.00  0.00    -0.003 A 
ATOM     17  C   UNL     1      -9.313   8.495  71.561  0.00  0.00    -0.007 A 
ATOM     18  C   UNL     1      -7.901   8.913  71.291  0.00  0.00    +0.032 C 
ENDBRANCH   9  11
ENDBRANCH   7   8
ENDBRANCH   4   7
BRANCH   1  19
ATOM     19  C   UNL     1     -10.582  13.856  64.795  0.00  0.00    +0.109 C 
BRANCH  19  20
ATOM     20  C   UNL     1     -11.825  14.858  65.211  0.00  0.00    +0.211 C 
ATOM     21  O   UNL     1     -12.545  14.621  63.895  0.00  0.00    -0.218 OA
BRANCH  20  22
ATOM     22  C   UNL     1     -11.034  16.183  64.630  0.00  0.00    +0.240 C 
BRANCH  22  23
ATOM     23  O   UNL     1     -10.028  16.440  65.600  0.00  0.00    -0.470 OA
BRANCH  23  25
ATOM     24  C   UNL     1     -10.191  17.277  67.819  0.00  0.00    +0.172 A 
ATOM     25  C   UNL     1     -10.320  17.507  66.457  0.00  0.00    +0.172 A 
ATOM     26  C   UNL     1     -10.492  18.803  65.991  0.00  0.00    +0.040 A 
ATOM     27  C   UNL     1     -10.254  19.889  66.781  0.00  0.00    +0.003 A 
ATOM     28  C   UNL     1      -9.749  19.633  68.051  0.00  0.00    +0.003 A 
ATOM     29  C   UNL     1      -9.921  18.377  68.620  0.00  0.00    +0.040 A 
BRANCH  24  31
ATOM     30  C   UNL     1     -10.527  15.264  68.754  0.00  0.00    +0.253 C 
ATOM     31  O   UNL     1     -10.196  15.979  68.260  0.00  0.00    -0.468 OA
ENDBRANCH  24  31
ENDBRANCH  23  25
ENDBRANCH  22  23
ENDBRANCH  20  22
ENDBRANCH  19  20
ENDBRANCH   1  19
TORSDOF 9
ENDMDL
MODEL 2
REMARK VINA RESULT:      -6.8      1.091      1.661
REMARK  Name = 
REMARK  9 active torsions:
REMARK  status: ('A' for Active; 'I' for Inactive)
REMARK    1  A    between atoms: O_2  and  C_3
REMARK    2  A    between atoms: C_8  and  O_9
REMARK    3  A    between atoms: O_9  and  C_10
REMARK    4  A    between atoms: C_10  and  C_11
REMARK    5  A    between atoms: C_11  and  C_13
REMARK    6  A    between atoms: C_13  and  N_14
REMARK    7  A    between atoms: N_17  and  C_18
REMARK    8  A    between atoms: C_18  and  C_19
REMARK    9  A    between atoms: N_21  and  C_22
REMARK                            x       y       z     vdW  Elec       q    Type
REMARK                         _______ _______ _______ _____ _____    ______ ____
ROOT
ATOM      1  N   UNL     1     -10.780  12.593  65.475  0.00  0.00    -0.268 NA
ATOM      2  C   UNL     1      -9.581  11.827  65.746  0.00  0.00    +0.090 C 
ATOM      3  C   UNL     1      -9.092  12.387  67.085  0.00  0.00    +0.090 C 
ATOM      4  N   UNL     1      -9.935  11.658  68.034  0.00  0.00    -0.263 NA
ATOM      5  C   UNL     1     -11.329  11.848  67.779  0.00  0.00    +0.090 C 
ATOM      6  C   UNL     1     -11.710  12.577  66.560  0.00  0.00    +0.090 C 
ENDROOT
BRANCH   4   7
ATOM      7  C   UNL     1      -9.499  10.289  67.749  0.00  0.00    +0.161 C 
BRANCH   7   8
ATOM      8  C   UNL     1      -9.610   9.478  68.969  0.00  0.00    +0.262 C 
ATOM      9  N   UNL     1     -10.809   8.730  69.063  0.00  0.00    -0.179 NA
ATOM     10  O   UNL     1      -8.678   9.446  69.794  0.00  0.00    -0.271 OA
BRANCH   9  11
ATOM     11  C   UNL     1     -11.101   8.079  70.276  0.00  0.00    +0.065 A 
ATOM     12  C   UNL     1     -10.772   6.752  70.382  0.00  0.00    -0.007 A 
ATOM     13  C   UNL     1     -10.838   5.938  69.133  0.00  0.00    +0.032 C 
ATOM     14  C   UNL     1     -10.522   6.222  71.621  0.00  0.00    -0.003 A 
ATOM     15  C   UNL     1     -10.997   6.929  72.719  0.00  0.00    -0.001 A 
ATOM     16  C   UNL     1     -11.548   8.197  72.571  0.00  0.00    -0.003 A 
ATOM     17  C   UNL     1     -11.496   8.855  71.346  0.00  0.00    -0.007 A 
ATOM     18  C   UNL     1     -12.229  10.139  71.109  0.00  0.00    +0.032 C 
ENDBRANCH   9  11
ENDBRANCH   7   8
ENDBRANCH   4   7
BRANCH   1  19
ATOM     19  C   UNL     1     -10.479  13.931  65.036  0.00  0.00    +0.109 C 
BRANCH  19  20
ATOM     20  C   UNL     1     -11.877  14.788  65.216  0.00  0.00    +0.211 C 
ATOM     21  O   UNL     1     -12.386  14.375  63.846  0.00  0.00    -0.218 OA
BRANCH  20  22
ATOM     22  C   UNL     1     -11.182  16.164  64.630  0.00  0.00    +0.240 C 
BRANCH  22  23
ATOM     23  O   UNL     1     -10.128  16.437  65.543  0.00  0.00    -0.470 OA
BRANCH  23  25
ATOM     24  C   UNL     1     -10.242  17.295  67.758  0.00  0.00    +0.172 A 
ATOM     25  C   UNL     1     -10.376  17.520  66.395  0.00  0.00    +0.172 A 
ATOM     26  C   UNL     1     -10.509  18.817  65.922  0.00  0.00    +0.040 A 
ATOM     27  C   UNL     1     -10.227  19.900  66.701  0.00  0.00    +0.003 A 
ATOM     28  C   UNL     1      -9.719  19.637  67.968  0.00  0.00    +0.003 A 
ATOM     29  C   UNL     1      -9.928  18.391  68.548  0.00  0.00    +0.040 A 
BRANCH  24  31
ATOM     30  C   UNL     1     -10.551  15.326  68.790  0.00  0.00    +0.253 C 
ATOM     31  O   UNL     1     -10.287  16.002  68.208  0.00  0.00    -0.468 OA
ENDBRANCH  24  31
ENDBRANCH  23  25
ENDBRANCH  22  23
ENDBRANCH  20  22
ENDBRANCH  19  20
ENDBRANCH   1  19
TORSDOF 9
ENDMDL
MODEL 3
REMARK VINA RESULT:      -6.6      2.162      7.969
REMARK  Name = 
REMARK  9 active torsions:
REMARK  status: ('A' for Active; 'I' for Inactive)
REMARK    1  A    between atoms: O_2  and  C_3
REMARK    2  A    between atoms: C_8  and  O_9
REMARK    3  A    between atoms: O_9  and  C_10
REMARK    4  A    between atoms: C_10  and  C_11
REMARK    5  A    between atoms: C_11  and  C_13
REMARK    6  A    between atoms: C_13  and  N_14
REMARK    7  A    between atoms: N_17  and  C_18
REMARK    8  A    between atoms: C_18  and  C_19
REMARK    9  A    between atoms: N_21  and  C_22
REMARK                            x       y       z     vdW  Elec       q    Type
REMARK                         _______ _______ _______ _____ _____    ______ ____
ROOT
ATOM      1  N   UNL     1      -9.483  10.960  65.800  0.00  0.00    -0.268 NA
ATOM      2  C   UNL     1     -10.277  11.818  64.945  0.00  0.00    +0.090 C 
ATOM      3  C   UNL     1     -11.207  12.540  65.924  0.00  0.00    +0.090 C 
ATOM      4  N   UNL     1     -10.339  13.610  66.419  0.00  0.00    -0.263 NA
ATOM      5  C   UNL     1      -9.132  13.106  66.999  0.00  0.00    +0.090 C 
ATOM      6  C   UNL     1      -8.864  11.665  66.877  0.00  0.00    +0.090 C 
ENDROOT
BRANCH   4   7
ATOM      7  C   UNL     1     -10.094  14.328  65.166  0.00  0.00    +0.161 C 
BRANCH   7   8
ATOM      8  C   UNL     1     -10.044  15.772  65.434  0.00  0.00    +0.262 C 
ATOM      9  N   UNL     1      -9.088  16.150  66.407  0.00  0.00    -0.179 NA
ATOM     10  O   UNL     1     -10.767  16.559  64.794  0.00  0.00    -0.271 OA
BRANCH   9  11
ATOM     11  C   UNL     1      -9.096  17.476  66.878  0.00  0.00    +0.065 A 
ATOM     12  C   UNL     1      -8.192  18.351  66.334  0.00  0.00    -0.007 A 
ATOM     13  C   UNL     1      -6.881  17.785  65.901  0.00  0.00    +0.032 C 
ATOM     14  C   UNL     1      -8.480  19.691  66.324  0.00  0.00    -0.003 A 
ATOM     15  C   UNL     1      -9.459  20.134  67.205  0.00  0.00    -0.001 A 
ATOM     16  C   UNL     1     -10.225  19.233  67.936  0.00  0.00    -0.003 A 
ATOM     17  C   UNL     1     -10.141  17.866  67.690  0.00  0.00    -0.007 A 
ATOM     18  C   UNL     1     -10.818  16.863  68.572  0.00  0.00    +0.032 C 
ENDBRANCH   9  11
ENDBRANCH   7   8
ENDBRANCH   4   7
BRANCH   1  19
ATOM     19  C   UNL     1     -10.226   9.813  66.255  0.00  0.00    +0.109 C 
BRANCH  19  20
ATOM     20  C   UNL     1      -9.746   9.556  67.812  0.00  0.00    +0.211 C 
ATOM     21  O   UNL     1     -10.006   8.062  67.717  0.00  0.00    -0.218 OA
BRANCH  20  22
ATOM     22  C   UNL     1     -11.257   9.863  68.395  0.00  0.00    +0.240 C 
BRANCH  22  23
ATOM     23  O   UNL     1     -11.030  10.366  69.704  0.00  0.00    -0.470 OA
BRANCH  23  25
ATOM     24  C   UNL     1     -12.713  11.129  71.200  0.00  0.00    +0.172 A 
ATOM     25  C   UNL     1     -11.917  11.376  70.090  0.00  0.00    +0.172 A 
ATOM     26  C   UNL     1     -11.853  12.658  69.562  0.00  0.00    +0.040 A 
ATOM     27  C   UNL     1     -12.307  13.744  70.251  0.00  0.00    +0.003 A 
ATOM     28  C   UNL     1     -12.760  13.512  71.544  0.00  0.00    +0.003 A 
ATOM     29  C   UNL     1     -13.152  12.231  71.918  0.00  0.00    +0.040 A 
BRANCH  24  31
ATOM     30  C   UNL     1     -13.365   9.127  71.976  0.00  0.00    +0.253 C 
ATOM     31  O   UNL     1     -12.891   9.828  71.591  0.00  0.00    -0.468 OA
ENDBRANCH  24  31
ENDBRANCH  23  25
ENDBRANCH  22  23
ENDBRANCH  20  22
ENDBRANCH  19  20
ENDBRANCH   1  19
TORSDOF 9
ENDMDL
MODEL 4
REMARK VINA RESULT:      -6.5      3.072      9.288
REMARK  Name = 
REMARK  9 active torsions:
REMARK  status: ('A' for Active; 'I' for Inactive)
REMARK    1  A    between atoms: O_2  and  C_3
REMARK    2  A    between atoms: C_8  and  O_9
REMARK    3  A    between atoms: O_9  and  C_10
REMARK    4  A    between atoms: C_10  and  C_11
REMARK    5  A    between atoms: C_11  and  C_13
REMARK    6  A    between atoms: C_13  and  N_14
REMARK    7  A    between atoms: N_17  and  C_18
REMARK    8  A    between atoms: C_18  and  C_19
REMARK    9  A    between atoms: N_21  and  C_22
REMARK                            x       y       z     vdW  Elec       q    Type
REMARK                         _______ _______ _______ _____ _____    ______ ____
ROOT
ATOM      1  N   UNL     1     -12.286  14.679  69.670  0.00  0.00    -0.268 NA
ATOM      2  C   UNL     1     -11.817  16.036  69.859  0.00  0.00    +0.090 C 
ATOM      3  C   UNL     1     -10.295  15.908  69.755  0.00  0.00    +0.090 C 
ATOM      4  N   UNL     1     -10.099  15.899  68.304  0.00  0.00    -0.263 NA
ATOM      5  C   UNL     1     -10.834  14.853  67.663  0.00  0.00    +0.090 C 
ATOM      6  C   UNL     1     -11.769  14.070  68.484  0.00  0.00    +0.090 C 
ENDROOT
BRANCH   4   7
ATOM      7  C   UNL     1     -10.624  17.227  67.977  0.00  0.00    +0.161 C 
BRANCH   7   8
ATOM      8  C   UNL     1      -9.576  18.234  68.198  0.00  0.00    +0.262 C 
ATOM      9  N   UNL     1      -8.340  17.931  67.576  0.00  0.00    -0.179 NA
ATOM     10  O   UNL     1      -9.821  19.271  68.841  0.00  0.00    -0.271 OA
BRANCH   9  11
ATOM     11  C   UNL     1      -7.220  18.725  67.886  0.00  0.00    +0.065 A 
ATOM     12  C   UNL     1      -7.035  19.876  67.165  0.00  0.00    -0.007 A 
ATOM     13  C   UNL     1      -7.496  19.864  65.745  0.00  0.00    +0.032 C 
ATOM     14  C   UNL     1      -6.344  20.916  67.729  0.00  0.00    -0.003 A 
ATOM     15  C   UNL     1      -5.534  20.619  68.819  0.00  0.00    -0.001 A 
ATOM     16  C   UNL     1      -5.559  19.360  69.408  0.00  0.00    -0.003 A 
ATOM     17  C   UNL     1      -6.507  18.415  69.026  0.00  0.00    -0.007 A 
ATOM     18  C   UNL     1      -6.451  17.001  69.513  0.00  0.00    +0.032 C 
ENDBRANCH   9  11
ENDBRANCH   7   8
ENDBRANCH   4   7
BRANCH   1  19
ATOM     19  C   UNL     1     -12.073  13.865  70.838  0.00  0.00    +0.109 C 
BRANCH  19  20
ATOM     20  C   UNL     1     -13.558  13.667  71.527  0.00  0.00    +0.211 C 
ATOM     21  O   UNL     1     -13.091  14.233  72.857  0.00  0.00    -0.218 OA
BRANCH  20  22
ATOM     22  C   UNL     1     -13.214  12.118  71.974  0.00  0.00    +0.240 C 
BRANCH  22  23
ATOM     23  O   UNL     1     -12.651  11.536  70.807  0.00  0.00    -0.470 OA
BRANCH  23  25
ATOM     24  C   UNL     1     -10.921   9.937  70.484  0.00  0.00    +0.172 A 
ATOM     25  C   UNL     1     -12.179  10.231  70.990  0.00  0.00    +0.172 A 
ATOM     26  C   UNL     1     -12.806   9.331  71.840  0.00  0.00    +0.040 A 
ATOM     27  C   UNL     1     -12.127   8.306  72.430  0.00  0.00    +0.003 A 
ATOM     28  C   UNL     1     -10.757   8.258  72.203  0.00  0.00    +0.003 A 
ATOM     29  C   UNL     1     -10.218   8.913  71.101  0.00  0.00    +0.040 A 
BRANCH  24  31
ATOM     30  C   UNL     1      -9.982  10.938  68.708  0.00  0.00    +0.253 C 
ATOM     31  O   UNL     1     -10.404  10.759  69.517  0.00  0.00    -0.468 OA
ENDBRANCH  24  31
ENDBRANCH  23  25
ENDBRANCH  22  23
ENDBRANCH  20  22
ENDBRANCH  19  20
ENDBRANCH   1  19
TORSDOF 9
ENDMDL
MODEL 5
REMARK VINA RESULT:      -6.5      3.007      8.782
REMARK  Name = 
REMARK  9 active torsions:
REMARK  status: ('A' for Active; 'I' for Inactive)
REMARK    1  A    between atoms: O_2  and  C_3
REMARK    2  A    between atoms: C_8  and  O_9
REMARK    3  A    between atoms: O_9  and  C_10
REMARK    4  A    between atoms: C_10  and  C_11
REMARK    5  A    between atoms: C_11  and  C_13
REMARK    6  A    between atoms: C_13  and  N_14
REMARK    7  A    between atoms: N_17  and  C_18
REMARK    8  A    between atoms: C_18  and  C_19
REMARK    9  A    between atoms: N_21  and  C_22
REMARK                            x       y       z     vdW  Elec       q    Type
REMARK                         _______ _______ _______ _____ _____    ______ ____
ROOT
ATOM      1  N   UNL     1     -11.207  15.220  67.363  0.00  0.00    -0.268 NA
ATOM      2  C   UNL     1     -10.427  15.036  68.568  0.00  0.00    +0.090 C 
ATOM      3  C   UNL     1      -9.239  14.189  68.101  0.00  0.00    +0.090 C 
ATOM      4  N   UNL     1      -8.359  15.208  67.526  0.00  0.00    -0.263 NA
ATOM      5  C   UNL     1      -9.002  15.960  66.493  0.00  0.00    +0.090 C 
ATOM      6  C   UNL     1     -10.437  15.733  66.273  0.00  0.00    +0.090 C 
ENDROOT
BRANCH   4   7
ATOM      7  C   UNL     1      -8.102  16.015  68.722  0.00  0.00    +0.161 C 
BRANCH   7   8
ATOM      8  C   UNL     1      -7.247  17.156  68.366  0.00  0.00    +0.262 C 
ATOM      9  N   UNL     1      -7.795  18.419  68.700  0.00  0.00    -0.179 NA
ATOM     10  O   UNL     1      -6.123  16.971  67.863  0.00  0.00    -0.271 OA
BRANCH   9  11
ATOM     11  C   UNL     1      -7.151  19.577  68.226  0.00  0.00    +0.065 A 
ATOM     12  C   UNL     1      -6.159  20.117  69.003  0.00  0.00    -0.007 A 
ATOM     13  C   UNL     1      -6.301  19.967  70.481  0.00  0.00    +0.032 C 
ATOM     14  C   UNL     1      -5.170  20.856  68.407  0.00  0.00    -0.003 A 
ATOM     15  C   UNL     1      -5.431  21.352  67.136  0.00  0.00    -0.001 A 
ATOM     16  C   UNL     1      -6.573  20.973  66.439  0.00  0.00    -0.003 A 
ATOM     17  C   UNL     1      -7.402  19.968  66.927  0.00  0.00    -0.007 A 
ATOM     18  C   UNL     1      -8.723  19.659  66.293  0.00  0.00    +0.032 C 
ENDBRANCH   9  11
ENDBRANCH   7   8
ENDBRANCH   4   7
BRANCH   1  19
ATOM     19  C   UNL     1     -11.936  14.032  67.003  0.00  0.00    +0.109 C 
BRANCH  19  20
ATOM     20  C   UNL     1     -12.044  14.051  65.357  0.00  0.00    +0.211 C 
ATOM     21  O   UNL     1     -13.561  14.092  65.389  0.00  0.00    -0.218 OA
BRANCH  20  22
ATOM     22  C   UNL     1     -12.011  12.404  65.274  0.00  0.00    +0.240 C 
BRANCH  22  23
ATOM     23  O   UNL     1     -11.886  11.990  66.627  0.00  0.00    -0.470 OA
BRANCH  23  25
ATOM     24  C   UNL     1     -10.994  10.310  68.053  0.00  0.00    +0.172 A 
ATOM     25  C   UNL     1     -10.967  10.953  66.824  0.00  0.00    +0.172 A 
ATOM     26  C   UNL     1     -10.227  10.413  65.782  0.00  0.00    +0.040 A 
ATOM     27  C   UNL     1      -9.758   9.133  65.819  0.00  0.00    +0.003 A 
ATOM     28  C   UNL     1     -10.130   8.369  66.919  0.00  0.00    +0.003 A 
ATOM     29  C   UNL     1     -10.543   8.999  68.088  0.00  0.00    +0.040 A 
BRANCH  24  31
ATOM     30  C   UNL     1     -11.989  10.993  69.945  0.00  0.00    +0.253 C 
ATOM     31  O   UNL     1     -11.588  10.953  69.107  0.00  0.00    -0.468 OA
ENDBRANCH  24  31
ENDBRANCH  23  25
ENDBRANCH  22  23
ENDBRANCH  20  22
ENDBRANCH  19  20
ENDBRANCH   1  19
TORSDOF 9
ENDMDL
MODEL 6
REMARK VINA RESULT:      -6.4      3.236      8.156
REMARK  Name = 
REMARK  9 active torsions:
REMARK  status: ('A' for Active; 'I' for Inactive)
REMARK    1  A    between atoms: O_2  and  C_3
REMARK    2  A    between atoms: C_8  and  O_9
REMARK    3  A    between atoms: O_9  and  C_10
REMARK    4  A    between atoms: C_10  and  C_11
REMARK    5  A    between atoms: C_11  and  C_13
REMARK    6  A    between atoms: C_13  and  N_14
REMARK    7  A    between atoms: N_17  and  C_18
REMARK    8  A    between atoms: C_18  and  C_19
REMARK    9  A    between atoms: N_21  and  C_22
REMARK                            x       y       z     vdW  Elec       q    Type
REMARK                         _______ _______ _______ _____ _____    ______ ____
ROOT
ATOM      1  N   UNL     1     -10.323  12.977  66.044  0.00  0.00    -0.268 NA
ATOM      2  C   UNL     1     -10.647  14.316  65.599  0.00  0.00    +0.090 C 
ATOM      3  C   UNL     1     -10.729  15.117  66.902  0.00  0.00    +0.090 C 
ATOM      4  N   UNL     1      -9.316  15.400  67.162  0.00  0.00    -0.263 NA
ATOM      5  C   UNL     1      -8.529  14.209  67.240  0.00  0.00    +0.090 C 
ATOM      6  C   UNL     1      -9.179  12.935  66.900  0.00  0.00    +0.090 C 
ENDROOT
BRANCH   4   7
ATOM      7  C   UNL     1      -9.002  16.197  65.973  0.00  0.00    +0.161 C 
BRANCH   7   8
ATOM      8  C   UNL     1      -7.986  17.203  66.315  0.00  0.00    +0.262 C 
ATOM      9  N   UNL     1      -8.122  17.747  67.616  0.00  0.00    -0.179 NA
ATOM     10  O   UNL     1      -7.074  17.479  65.514  0.00  0.00    -0.271 OA
BRANCH   9  11
ATOM     11  C   UNL     1      -7.326  18.853  67.968  0.00  0.00    +0.065 A 
ATOM     12  C   UNL     1      -6.120  18.604  68.569  0.00  0.00    -0.007 A 
ATOM     13  C   UNL     1      -6.035  17.394  69.438  0.00  0.00    +0.032 C 
ATOM     14  C   UNL     1      -5.108  19.521  68.445  0.00  0.00    -0.003 A 
ATOM     15  C   UNL     1      -5.466  20.810  68.070  0.00  0.00    -0.001 A 
ATOM     16  C   UNL     1      -6.766  21.107  67.678  0.00  0.00    -0.003 A 
ATOM     17  C   UNL     1      -7.703  20.094  67.497  0.00  0.00    -0.007 A 
ATOM     18  C   UNL     1      -9.149  20.393  67.246  0.00  0.00    +0.032 C 
ENDBRANCH   9  11
ENDBRANCH   7   8
ENDBRANCH   4   7
BRANCH   1  19
ATOM     19  C   UNL     1     -11.460  12.308  66.620  0.00  0.00    +0.109 C 
BRANCH  19  20
ATOM     20  C   UNL     1     -10.912  11.603  68.007  0.00  0.00    +0.211 C 
ATOM     21  O   UNL     1     -11.752  10.357  67.786  0.00  0.00    -0.218 OA
BRANCH  20  22
ATOM     22  C   UNL     1     -12.084  12.329  68.913  0.00  0.00    +0.240 C 
BRANCH  22  23
ATOM     23  O   UNL     1     -11.364  13.162  69.810  0.00  0.00    -0.470 OA
BRANCH  23  25
ATOM     24  C   UNL     1     -12.252  15.072  70.915  0.00  0.00    +0.172 A 
ATOM     25  C   UNL     1     -12.141  13.690  70.848  0.00  0.00    +0.172 A 
ATOM     26  C   UNL     1     -12.965  12.895  71.632  0.00  0.00    +0.040 A 
ATOM     27  C   UNL     1     -14.072  13.397  72.250  0.00  0.00    +0.003 A 
ATOM     28  C   UNL     1     -14.381  14.726  71.986  0.00  0.00    +0.003 A 
ATOM     29  C   UNL     1     -13.391  15.583  71.518  0.00  0.00    +0.040 A 
BRANCH  24  31
ATOM     30  C   UNL     1     -10.896  16.626  70.029  0.00  0.00    +0.253 C 
ATOM     31  O   UNL     1     -11.313  15.828  70.263  0.00  0.00    -0.468 OA
ENDBRANCH  24  31
ENDBRANCH  23  25
ENDBRANCH  22  23
ENDBRANCH  20  22
ENDBRANCH  19  20
ENDBRANCH   1  19
TORSDOF 9
ENDMDL
MODEL 7
REMARK VINA RESULT:      -6.4      2.191      9.062
REMARK  Name = 
REMARK  9 active torsions:
REMARK  status: ('A' for Active; 'I' for Inactive)
REMARK    1  A    between atoms: O_2  and  C_3
REMARK    2  A    between atoms: C_8  and  O_9
REMARK    3  A    between atoms: O_9  and  C_10
REMARK    4  A    between atoms: C_10  and  C_11
REMARK    5  A    between atoms: C_11  and  C_13
REMARK    6  A    between atoms: C_13  and  N_14
REMARK    7  A    between atoms: N_17  and  C_18
REMARK    8  A    between atoms: C_18  and  C_19
REMARK    9  A    between atoms: N_21  and  C_22
REMARK                            x       y       z     vdW  Elec       q    Type
REMARK                         _______ _______ _______ _____ _____    ______ ____
ROOT
ATOM      1  N   UNL     1     -11.720  12.078  67.587  0.00  0.00    -0.268 NA
ATOM      2  C   UNL     1     -11.210  13.116  68.458  0.00  0.00    +0.090 C 
ATOM      3  C   UNL     1     -10.090  13.758  67.634  0.00  0.00    +0.090 C 
ATOM      4  N   UNL     1     -10.845  14.667  66.770  0.00  0.00    -0.263 NA
ATOM      5  C   UNL     1     -11.839  13.985  66.001  0.00  0.00    +0.090 C 
ATOM      6  C   UNL     1     -12.069  12.562  66.288  0.00  0.00    +0.090 C 
ENDROOT
BRANCH   4   7
ATOM      7  C   UNL     1     -11.434  15.542  67.787  0.00  0.00    +0.161 C 
BRANCH   7   8
ATOM      8  C   UNL     1     -10.611  16.752  67.925  0.00  0.00    +0.262 C 
ATOM      9  N   UNL     1      -9.941  17.138  66.739  0.00  0.00    -0.179 NA
ATOM     10  O   UNL     1     -10.580  17.376  69.002  0.00  0.00    -0.271 OA
BRANCH   9  11
ATOM     11  C   UNL     1      -8.978  18.161  66.813  0.00  0.00    +0.065 A 
ATOM     12  C   UNL     1      -9.417  19.457  66.723  0.00  0.00    -0.007 A 
ATOM     13  C   UNL     1     -10.617  19.705  65.871  0.00  0.00    +0.032 C 
ATOM     14  C   UNL     1      -8.680  20.455  67.304  0.00  0.00    -0.003 A 
ATOM     15  C   UNL     1      -7.352  20.171  67.600  0.00  0.00    -0.001 A 
ATOM     16  C   UNL     1      -6.849  18.881  67.466  0.00  0.00    -0.003 A 
ATOM     17  C   UNL     1      -7.696  17.814  67.186  0.00  0.00    -0.007 A 
ATOM     18  C   UNL     1      -7.166  16.450  66.865  0.00  0.00    +0.032 C 
ENDBRANCH   9  11
ENDBRANCH   7   8
ENDBRANCH   4   7
BRANCH   1  19
ATOM     19  C   UNL     1     -10.838  10.941  67.525  0.00  0.00    +0.109 C 
BRANCH  19  20
ATOM     20  C   UNL     1     -10.066  10.891  68.983  0.00  0.00    +0.211 C 
ATOM     21  O   UNL     1      -8.873  10.152  68.402  0.00  0.00    -0.218 OA
BRANCH  20  22
ATOM     22  C   UNL     1     -10.827   9.492  69.408  0.00  0.00    +0.240 C 
BRANCH  22  23
ATOM     23  O   UNL     1     -10.729   9.459  70.825  0.00  0.00    -0.470 OA
BRANCH  23  25
ATOM     24  C   UNL     1     -12.945   9.501  71.684  0.00  0.00    +0.172 A 
ATOM     25  C   UNL     1     -11.780   8.784  71.456  0.00  0.00    +0.172 A 
ATOM     26  C   UNL     1     -11.774   7.407  71.632  0.00  0.00    +0.040 A 
ATOM     27  C   UNL     1     -12.929   6.691  71.739  0.00  0.00    +0.003 A 
ATOM     28  C   UNL     1     -14.115   7.399  71.579  0.00  0.00    +0.003 A 
ATOM     29  C   UNL     1     -14.125   8.777  71.766  0.00  0.00    +0.040 A 
BRANCH  24  31
ATOM     30  C   UNL     1     -13.185  11.726  71.861  0.00  0.00    +0.253 C 
ATOM     31  O   UNL     1     -12.875  10.870  71.671  0.00  0.00    -0.468 OA
ENDBRANCH  24  31
ENDBRANCH  23  25
ENDBRANCH  22  23
ENDBRANCH  20  22
ENDBRANCH  19  20
ENDBRANCH   1  19
TORSDOF 9
ENDMDL
MODEL 8
REMARK VINA RESULT:      -6.4      1.845      8.915
REMARK  Name = 
REMARK  9 active torsions:
REMARK  status: ('A' for Active; 'I' for Inactive)
REMARK    1  A    between atoms: O_2  and  C_3
REMARK    2  A    between atoms: C_8  and  O_9
REMARK    3  A    between atoms: O_9  and  C_10
REMARK    4  A    between atoms: C_10  and  C_11
REMARK    5  A    between atoms: C_11  and  C_13
REMARK    6  A    between atoms: C_13  and  N_14
REMARK    7  A    between atoms: N_17  and  C_18
REMARK    8  A    between atoms: C_18  and  C_19
REMARK    9  A    between atoms: N_21  and  C_22
REMARK                            x       y       z     vdW  Elec       q    Type
REMARK                         _______ _______ _______ _____ _____    ______ ____
ROOT
ATOM      1  N   UNL     1     -10.302  11.845  67.601  0.00  0.00    -0.268 NA
ATOM      2  C   UNL     1      -9.773  12.150  66.288  0.00  0.00    +0.090 C 
ATOM      3  C   UNL     1     -11.019  12.518  65.476  0.00  0.00    +0.090 C 
ATOM      4  N   UNL     1     -11.223  13.914  65.868  0.00  0.00    -0.263 NA
ATOM      5  C   UNL     1     -11.363  14.067  67.282  0.00  0.00    +0.090 C 
ATOM      6  C   UNL     1     -11.130  12.885  68.125  0.00  0.00    +0.090 C 
ENDROOT
BRANCH   4   7
ATOM      7  C   UNL     1      -9.974  14.495  65.367  0.00  0.00    +0.161 C 
BRANCH   7   8
ATOM      8  C   UNL     1      -9.971  15.941  65.627  0.00  0.00    +0.262 C 
ATOM      9  N   UNL     1      -8.980  16.364  66.546  0.00  0.00    -0.179 NA
ATOM     10  O   UNL     1     -10.759  16.694  65.025  0.00  0.00    -0.271 OA
BRANCH   9  11
ATOM     11  C   UNL     1      -9.018  17.692  67.012  0.00  0.00    +0.065 A 
ATOM     12  C   UNL     1      -8.241  18.617  66.365  0.00  0.00    -0.007 A 
ATOM     13  C   UNL     1      -6.955  18.131  65.784  0.00  0.00    +0.032 C 
ATOM     14  C   UNL     1      -8.614  19.936  66.386  0.00  0.00    -0.003 A 
ATOM     15  C   UNL     1      -9.511  20.323  67.374  0.00  0.00    -0.001 A 
ATOM     16  C   UNL     1     -10.127  19.382  68.191  0.00  0.00    -0.003 A 
ATOM     17  C   UNL     1      -9.985  18.021  67.939  0.00  0.00    -0.007 A 
ATOM     18  C   UNL     1     -10.490  16.985  68.896  0.00  0.00    +0.032 C 
ENDBRANCH   9  11
ENDBRANCH   7   8
ENDBRANCH   4   7
BRANCH   1  19
ATOM     19  C   UNL     1     -10.952  10.561  67.638  0.00  0.00    +0.109 C 
BRANCH  19  20
ATOM     20  C   UNL     1      -9.739   9.444  67.700  0.00  0.00    +0.211 C 
ATOM     21  O   UNL     1     -10.258   8.714  66.473  0.00  0.00    -0.218 OA
BRANCH  20  22
ATOM     22  C   UNL     1     -10.593   8.482  68.731  0.00  0.00    +0.240 C 
BRANCH  22  23
ATOM     23  O   UNL     1     -10.907   9.335  69.824  0.00  0.00    -0.470 OA
BRANCH  23  25
ATOM     24  C   UNL     1     -12.817   9.487  71.232  0.00  0.00    +0.172 A 
ATOM     25  C   UNL     1     -11.729   8.746  70.791  0.00  0.00    +0.172 A 
ATOM     26  C   UNL     1     -11.629   7.404  71.128  0.00  0.00    +0.040 A 
ATOM     27  C   UNL     1     -12.688   6.707  71.629  0.00  0.00    +0.003 A 
ATOM     28  C   UNL     1     -13.898   7.387  71.706  0.00  0.00    +0.003 A 
ATOM     29  C   UNL     1     -13.906   8.778  71.715  0.00  0.00    +0.040 A 
BRANCH  24  31
ATOM     30  C   UNL     1     -12.563  11.717  71.239  0.00  0.00    +0.253 C 
ATOM     31  O   UNL     1     -12.801  10.842  71.031  0.00  0.00    -0.468 OA
ENDBRANCH  24  31
ENDBRANCH  23  25
ENDBRANCH  22  23
ENDBRANCH  20  22
ENDBRANCH  19  20
ENDBRANCH   1  19
TORSDOF 9
ENDMDL
MODEL 9
REMARK VINA RESULT:      -6.4      1.692      8.979
REMARK  Name = 
REMARK  9 active torsions:
REMARK  status: ('A' for Active; 'I' for Inactive)
REMARK    1  A    between atoms: O_2  and  C_3
REMARK    2  A    between atoms: C_8  and  O_9
REMARK    3  A    between atoms: O_9  and  C_10
REMARK    4  A    between atoms: C_10  and  C_11
REMARK    5  A    between atoms: C_11  and  C_13
REMARK    6  A    between atoms: C_13  and  N_14
REMARK    7  A    between atoms: N_17  and  C_18
REMARK    8  A    between atoms: C_18  and  C_19
REMARK    9  A    between atoms: N_21  and  C_22
REMARK                            x       y       z     vdW  Elec       q    Type
REMARK                         _______ _______ _______ _____ _____    ______ ____
ROOT
ATOM      1  N   UNL     1     -10.434  11.619  67.755  0.00  0.00    -0.268 NA
ATOM      2  C   UNL     1      -9.735  11.924  66.524  0.00  0.00    +0.090 C 
ATOM      3  C   UNL     1     -10.861  12.300  65.556  0.00  0.00    +0.090 C 
ATOM      4  N   UNL     1     -11.107  13.696  65.920  0.00  0.00    -0.263 NA
ATOM      5  C   UNL     1     -11.432  13.848  67.305  0.00  0.00    +0.090 C 
ATOM      6  C   UNL     1     -11.318  12.663  68.168  0.00  0.00    +0.090 C 
ENDROOT
BRANCH   4   7
ATOM      7  C   UNL     1      -9.800  14.271  65.590  0.00  0.00    +0.161 C 
BRANCH   7   8
ATOM      8  C   UNL     1      -9.858  15.732  65.740  0.00  0.00    +0.262 C 
ATOM      9  N   UNL     1      -8.935  16.257  66.678  0.00  0.00    -0.179 NA
ATOM     10  O   UNL     1     -10.634  16.409  65.040  0.00  0.00    -0.271 OA
BRANCH   9  11
ATOM     11  C   UNL     1      -9.043  17.613  67.039  0.00  0.00    +0.065 A 
ATOM     12  C   UNL     1      -8.289  18.520  66.342  0.00  0.00    -0.007 A 
ATOM     13  C   UNL     1      -6.968  18.050  65.831  0.00  0.00    +0.032 C 
ATOM     14  C   UNL     1      -8.718  19.819  66.253  0.00  0.00    -0.003 A 
ATOM     15  C   UNL     1      -9.657  20.240  67.186  0.00  0.00    -0.001 A 
ATOM     16  C   UNL     1     -10.256  19.337  68.058  0.00  0.00    -0.003 A 
ATOM     17  C   UNL     1     -10.049  17.968  67.914  0.00  0.00    -0.007 A 
ATOM     18  C   UNL     1     -10.535  16.987  68.935  0.00  0.00    +0.032 C 
ENDBRANCH   9  11
ENDBRANCH   7   8
ENDBRANCH   4   7
BRANCH   1  19
ATOM     19  C   UNL     1     -11.090  10.339  67.702  0.00  0.00    +0.109 C 
BRANCH  19  20
ATOM     20  C   UNL     1      -9.882   9.215  67.672  0.00  0.00    +0.211 C 
ATOM     21  O   UNL     1     -10.568   8.409  66.582  0.00  0.00    -0.218 OA
BRANCH  20  22
ATOM     22  C   UNL     1     -10.586   8.335  68.875  0.00  0.00    +0.240 C 
BRANCH  22  23
ATOM     23  O   UNL     1     -10.923   9.300  69.861  0.00  0.00    -0.470 OA
BRANCH  23  25
ATOM     24  C   UNL     1     -11.514   8.449  72.001  0.00  0.00    +0.172 A 
ATOM     25  C   UNL     1     -10.532   8.952  71.159  0.00  0.00    +0.172 A 
ATOM     26  C   UNL     1      -9.198   8.872  71.533  0.00  0.00    +0.040 A 
ATOM     27  C   UNL     1      -8.784   8.067  72.553  0.00  0.00    +0.003 A 
ATOM     28  C   UNL     1      -9.754   7.267  73.145  0.00  0.00    +0.003 A 
ATOM     29  C   UNL     1     -11.096   7.608  73.022  0.00  0.00    +0.040 A 
BRANCH  24  31
ATOM     30  C   UNL     1     -13.720   8.843  71.889  0.00  0.00    +0.253 C 
ATOM     31  O   UNL     1     -12.825   8.696  71.687  0.00  0.00    -0.468 OA
ENDBRANCH  24  31
ENDBRANCH  23  25
ENDBRANCH  22  23
ENDBRANCH  20  22
ENDBRANCH  19  20
ENDBRANCH   1  19
TORSDOF 9
ENDMDL
