MODEL 1
REMARK VINA RESULT:      -6.5      0.000      0.000
REMARK  Name = 
REMARK  5 active torsions:
REMARK  status: ('A' for Active; 'I' for Inactive)
REMARK    1  A    between atoms: C_2  and  C_3
REMARK    2  A    between atoms: C_4  and  C_5
REMARK    3  A    between atoms: C_6  and  C_8
REMARK    4  A    between atoms: C_9  and  C_10
REMARK    5  A    between atoms: C_19  and  C_20
REMARK                            x       y       z     vdW  Elec       q    Type
REMARK                         _______ _______ _______ _____ _____    ______ ____
ROOT
ATOM      1  C   UNL     1     -10.484  15.860  67.841  0.00  0.00    -0.004 C 
ATOM      2  C   UNL     1     -10.751  15.256  66.681  0.00  0.00    -0.022 C 
ATOM      3  C   UNL     1     -10.422  15.883  65.364  0.00  0.00    +0.031 C 
ENDROOT
BRANCH   1   5
ATOM      4  C   UNL     1     -11.229  16.142  70.160  0.00  0.00    -0.004 C 
ATOM      5  C   UNL     1     -11.508  15.984  68.888  0.00  0.00    -0.001 C 
BRANCH   4   7
ATOM      6  C   UNL     1     -12.015  16.218  72.583  0.00  0.00    +0.031 C 
ATOM      7  C   UNL     1     -12.218  15.785  71.184  0.00  0.00    -0.015 C 
ATOM      8  C   UNL     1     -13.176  14.900  70.935  0.00  0.00    +0.082 C 
BRANCH   8   9
ATOM      9  C   UNL     1     -14.368  14.813  71.785  0.00  0.00    +0.388 C 
ATOM     10  O   UNL     1     -14.518  13.623  72.501  0.00  0.00    -0.241 OA
ATOM     11  O   UNL     1     -15.408  15.423  71.403  0.00  0.00    -0.241 OA
ENDBRANCH   8   9
ENDBRANCH   4   7
ENDBRANCH   1   5
BRANCH   2  12
ATOM     12  C   UNL     1     -11.863  14.297  66.741  0.00  0.00    -0.005 C 
ATOM     13  C   UNL     1     -11.511  13.127  67.278  0.00  0.00    -0.005 C 
BRANCH  13  14
ATOM     14  C   UNL     1     -10.457  12.424  66.529  0.00  0.00    -0.031 C 
ATOM     15  C   UNL     1      -9.300  11.773  67.222  0.00  0.00    +0.018 C 
ATOM     16  C   UNL     1      -8.685  12.640  68.271  0.00  0.00    +0.004 C 
ATOM     17  C   UNL     1      -8.298  11.392  66.137  0.00  0.00    +0.004 C 
ATOM     18  C   UNL     1      -9.811  10.452  67.770  0.00  0.00    +0.004 C 
ATOM     19  C   UNL     1     -10.421   9.663  66.645  0.00  0.00    +0.005 C 
ATOM     20  C   UNL     1     -10.262  10.351  65.296  0.00  0.00    +0.022 C 
ATOM     21  C   UNL     1     -10.861  11.714  65.469  0.00  0.00    -0.048 C 
ATOM     22  C   UNL     1     -12.096  12.106  64.721  0.00  0.00    +0.026 C 
ENDBRANCH  13  14
ENDBRANCH   2  12
TORSDOF 5
ENDMDL
MODEL 2
REMARK VINA RESULT:      -6.1      3.635      6.160
REMARK  Name = 
REMARK  5 active torsions:
REMARK  status: ('A' for Active; 'I' for Inactive)
REMARK    1  A    between atoms: C_2  and  C_3
REMARK    2  A    between atoms: C_4  and  C_5
REMARK    3  A    between atoms: C_6  and  C_8
REMARK    4  A    between atoms: C_9  and  C_10
REMARK    5  A    between atoms: C_19  and  C_20
REMARK                            x       y       z     vdW  Elec       q    Type
REMARK                         _______ _______ _______ _____ _____    ______ ____
ROOT
ATOM      1  C   UNL     1     -10.936  16.568  68.128  0.00  0.00    -0.004 C 
ATOM      2  C   UNL     1      -9.707  16.410  67.632  0.00  0.00    -0.022 C 
ATOM      3  C   UNL     1      -9.451  15.644  66.374  0.00  0.00    +0.031 C 
ENDROOT
BRANCH   1   5
ATOM      4  C   UNL     1     -12.114  15.404  69.936  0.00  0.00    -0.004 C 
ATOM      5  C   UNL     1     -11.229  16.288  69.541  0.00  0.00    -0.001 C 
BRANCH   4   7
ATOM      6  C   UNL     1     -14.137  15.195  71.471  0.00  0.00    +0.031 C 
ATOM      7  C   UNL     1     -12.704  15.497  71.277  0.00  0.00    -0.015 C 
ATOM      8  C   UNL     1     -12.040  16.056  72.282  0.00  0.00    +0.082 C 
BRANCH   8   9
ATOM      9  C   UNL     1     -12.438  15.826  73.675  0.00  0.00    +0.388 C 
ATOM     10  O   UNL     1     -12.385  16.942  74.514  0.00  0.00    -0.241 OA
ATOM     11  O   UNL     1     -12.207  14.686  74.172  0.00  0.00    -0.241 OA
ENDBRANCH   8   9
ENDBRANCH   4   7
ENDBRANCH   1   5
BRANCH   2  12
ATOM     12  C   UNL     1      -8.636  16.487  68.636  0.00  0.00    -0.005 C 
ATOM     13  C   UNL     1      -8.127  17.715  68.757  0.00  0.00    -0.005 C 
BRANCH  13  14
ATOM     14  C   UNL     1      -7.512  18.227  67.522  0.00  0.00    -0.031 C 
ATOM     15  C   UNL     1      -7.854  19.579  66.976  0.00  0.00    +0.018 C 
ATOM     16  C   UNL     1      -9.324  19.850  66.964  0.00  0.00    +0.004 C 
ATOM     17  C   UNL     1      -7.248  19.653  65.579  0.00  0.00    +0.004 C 
ATOM     18  C   UNL     1      -7.074  20.589  67.800  0.00  0.00    +0.004 C 
ATOM     19  C   UNL     1      -5.616  20.223  67.761  0.00  0.00    +0.005 C 
ATOM     20  C   UNL     1      -5.335  19.038  66.848  0.00  0.00    +0.022 C 
ATOM     21  C   UNL     1      -6.220  17.934  67.341  0.00  0.00    -0.048 C 
ATOM     22  C   UNL     1      -5.634  16.695  67.941  0.00  0.00    +0.026 C 
ENDBRANCH  13  14
ENDBRANCH   2  12
TORSDOF 5
ENDMDL
MODEL 3
REMARK VINA RESULT:      -6.1      5.466      6.794
REMARK  Name = 
REMARK  5 active torsions:
REMARK  status: ('A' for Active; 'I' for Inactive)
REMARK    1  A    between atoms: C_2  and  C_3
REMARK    2  A    between atoms: C_4  and  C_5
REMARK    3  A    between atoms: C_6  and  C_8
REMARK    4  A    between atoms: C_9  and  C_10
REMARK    5  A    between atoms: C_19  and  C_20
REMARK                            x       y       z     vdW  Elec       q    Type
REMARK                         _______ _______ _______ _____ _____    ______ ____
ROOT
ATOM      1  C   UNL     1      -8.206  18.819  67.439  0.00  0.00    -0.004 C 
ATOM      2  C   UNL     1      -9.456  18.466  67.743  0.00  0.00    -0.022 C 
ATOM      3  C   UNL     1     -10.642  19.217  67.226  0.00  0.00    +0.031 C 
ENDROOT
BRANCH   1   5
ATOM      4  C   UNL     1      -6.966  20.095  69.125  0.00  0.00    -0.004 C 
ATOM      5  C   UNL     1      -7.183  18.973  68.482  0.00  0.00    -0.001 C 
BRANCH   4   7
ATOM      6  C   UNL     1      -4.439  20.387  68.967  0.00  0.00    +0.031 C 
ATOM      7  C   UNL     1      -5.673  20.336  69.778  0.00  0.00    -0.015 C 
ATOM      8  C   UNL     1      -5.553  20.290  71.100  0.00  0.00    +0.082 C 
BRANCH   8   9
ATOM      9  C   UNL     1      -4.396  20.885  71.777  0.00  0.00    +0.388 C 
ATOM     10  O   UNL     1      -3.600  20.001  72.510  0.00  0.00    -0.241 OA
ATOM     11  O   UNL     1      -4.500  22.079  72.181  0.00  0.00    -0.241 OA
ENDBRANCH   8   9
ENDBRANCH   4   7
ENDBRANCH   1   5
BRANCH   2  12
ATOM     12  C   UNL     1      -9.587  17.741  69.015  0.00  0.00    -0.005 C 
ATOM     13  C   UNL     1      -9.431  16.423  68.878  0.00  0.00    -0.005 C 
BRANCH  13  14
ATOM     14  C   UNL     1     -10.424  15.796  67.992  0.00  0.00    -0.031 C 
ATOM     15  C   UNL     1     -10.016  14.989  66.798  0.00  0.00    +0.018 C 
ATOM     16  C   UNL     1      -8.953  15.650  65.983  0.00  0.00    +0.004 C 
ATOM     17  C   UNL     1     -11.282  14.735  65.988  0.00  0.00    +0.004 C 
ATOM     18  C   UNL     1      -9.599  13.625  67.320  0.00  0.00    +0.004 C 
ATOM     19  C   UNL     1     -10.725  13.052  68.135  0.00  0.00    +0.005 C 
ATOM     20  C   UNL     1     -11.965  13.935  68.119  0.00  0.00    +0.022 C 
ATOM     21  C   UNL     1     -11.505  15.281  68.590  0.00  0.00    -0.048 C 
ATOM     22  C   UNL     1     -11.994  15.846  69.887  0.00  0.00    +0.026 C 
ENDBRANCH  13  14
ENDBRANCH   2  12
TORSDOF 5
ENDMDL
MODEL 4
REMARK VINA RESULT:      -5.8      4.610      6.581
REMARK  Name = 
REMARK  5 active torsions:
REMARK  status: ('A' for Active; 'I' for Inactive)
REMARK    1  A    between atoms: C_2  and  C_3
REMARK    2  A    between atoms: C_4  and  C_5
REMARK    3  A    between atoms: C_6  and  C_8
REMARK    4  A    between atoms: C_9  and  C_10
REMARK    5  A    between atoms: C_19  and  C_20
REMARK                            x       y       z     vdW  Elec       q    Type
REMARK                         _______ _______ _______ _____ _____    ______ ____
ROOT
ATOM      1  C   UNL     1     -12.906   9.762  70.569  0.00  0.00    -0.004 C 
ATOM      2  C   UNL     1     -12.659   8.687  71.319  0.00  0.00    -0.022 C 
ATOM      3  C   UNL     1     -13.716   7.675  71.630  0.00  0.00    +0.031 C 
ENDROOT
BRANCH   1   5
ATOM      4  C   UNL     1     -13.271  11.874  71.759  0.00  0.00    -0.004 C 
ATOM      5  C   UNL     1     -12.513  11.107  71.013  0.00  0.00    -0.001 C 
BRANCH   4   7
ATOM      6  C   UNL     1     -12.223  13.960  70.737  0.00  0.00    +0.031 C 
ATOM      7  C   UNL     1     -13.067  13.328  71.772  0.00  0.00    -0.015 C 
ATOM      8  C   UNL     1     -13.437  14.064  72.814  0.00  0.00    +0.082 C 
BRANCH   8   9
ATOM      9  C   UNL     1     -13.591  15.518  72.699  0.00  0.00    +0.388 C 
ATOM     10  O   UNL     1     -13.060  16.269  73.751  0.00  0.00    -0.241 OA
ATOM     11  O   UNL     1     -14.616  15.956  72.102  0.00  0.00    -0.241 OA
ENDBRANCH   8   9
ENDBRANCH   4   7
ENDBRANCH   1   5
BRANCH   2  12
ATOM     12  C   UNL     1     -11.550   8.854  72.270  0.00  0.00    -0.005 C 
ATOM     13  C   UNL     1     -10.384   8.421  71.786  0.00  0.00    -0.005 C 
BRANCH  13  14
ATOM     14  C   UNL     1     -10.373   6.987  71.456  0.00  0.00    -0.031 C 
ATOM     15  C   UNL     1      -9.904   6.490  70.123  0.00  0.00    +0.018 C 
ATOM     16  C   UNL     1     -10.462   7.272  68.979  0.00  0.00    +0.004 C 
ATOM     17  C   UNL     1     -10.284   5.016  70.048  0.00  0.00    +0.004 C 
ATOM     18  C   UNL     1      -8.386   6.506  70.167  0.00  0.00    +0.004 C 
ATOM     19  C   UNL     1      -7.926   5.708  71.355  0.00  0.00    +0.005 C 
ATOM     20  C   UNL     1      -9.080   5.046  72.096  0.00  0.00    +0.022 C 
ATOM     21  C   UNL     1     -10.022   6.158  72.445  0.00  0.00    -0.048 C 
ATOM     22  C   UNL     1     -10.263   6.536  73.872  0.00  0.00    +0.026 C 
ENDBRANCH  13  14
ENDBRANCH   2  12
TORSDOF 5
ENDMDL
MODEL 5
REMARK VINA RESULT:      -5.7      3.830      5.293
REMARK  Name = 
REMARK  5 active torsions:
REMARK  status: ('A' for Active; 'I' for Inactive)
REMARK    1  A    between atoms: C_2  and  C_3
REMARK    2  A    between atoms: C_4  and  C_5
REMARK    3  A    between atoms: C_6  and  C_8
REMARK    4  A    between atoms: C_9  and  C_10
REMARK    5  A    between atoms: C_19  and  C_20
REMARK                            x       y       z     vdW  Elec       q    Type
REMARK                         _______ _______ _______ _____ _____    ______ ____
ROOT
ATOM      1  C   UNL     1     -10.876  11.579  69.097  0.00  0.00    -0.004 C 
ATOM      2  C   UNL     1     -11.253  10.306  69.230  0.00  0.00    -0.022 C 
ATOM      3  C   UNL     1     -11.180   9.332  68.098  0.00  0.00    +0.031 C 
ENDROOT
BRANCH   1   5
ATOM      4  C   UNL     1     -11.383  13.941  69.511  0.00  0.00    -0.004 C 
ATOM      5  C   UNL     1     -11.743  12.680  69.540  0.00  0.00    -0.001 C 
BRANCH   4   7
ATOM      6  C   UNL     1     -11.531  16.301  70.462  0.00  0.00    +0.031 C 
ATOM      7  C   UNL     1     -12.051  14.921  70.377  0.00  0.00    -0.015 C 
ATOM      8  C   UNL     1     -12.975  14.545  71.253  0.00  0.00    +0.082 C 
BRANCH   8   9
ATOM      9  C   UNL     1     -13.903  15.516  71.842  0.00  0.00    +0.388 C 
ATOM     10  O   UNL     1     -13.654  15.865  73.172  0.00  0.00    -0.241 OA
ATOM     11  O   UNL     1     -15.100  15.508  71.434  0.00  0.00    -0.241 OA
ENDBRANCH   8   9
ENDBRANCH   4   7
ENDBRANCH   1   5
BRANCH   2  12
ATOM     12  C   UNL     1     -12.252  10.079  70.286  0.00  0.00    -0.005 C 
ATOM     13  C   UNL     1     -11.721   9.580  71.403  0.00  0.00    -0.005 C 
BRANCH  13  14
ATOM     14  C   UNL     1     -11.074   8.271  71.220  0.00  0.00    -0.031 C 
ATOM     15  C   UNL     1      -9.623   8.060  71.528  0.00  0.00    +0.018 C 
ATOM     16  C   UNL     1      -8.747   9.141  70.983  0.00  0.00    +0.004 C 
ATOM     17  C   UNL     1      -9.253   6.690  70.972  0.00  0.00    +0.004 C 
ATOM     18  C   UNL     1      -9.517   7.918  73.036  0.00  0.00    +0.004 C 
ATOM     19  C   UNL     1     -10.442   6.821  73.486  0.00  0.00    +0.005 C 
ATOM     20  C   UNL     1     -11.124   6.117  72.321  0.00  0.00    +0.022 C 
ATOM     21  C   UNL     1     -11.808   7.201  71.544  0.00  0.00    -0.048 C 
ATOM     22  C   UNL     1     -13.301   7.252  71.456  0.00  0.00    +0.026 C 
ENDBRANCH  13  14
ENDBRANCH   2  12
TORSDOF 5
ENDMDL
MODEL 6
REMARK VINA RESULT:      -5.7      3.739      6.489
REMARK  Name = 
REMARK  5 active torsions:
REMARK  status: ('A' for Active; 'I' for Inactive)
REMARK    1  A    between atoms: C_2  and  C_3
REMARK    2  A    between atoms: C_4  and  C_5
REMARK    3  A    between atoms: C_6  and  C_8
REMARK    4  A    between atoms: C_9  and  C_10
REMARK    5  A    between atoms: C_19  and  C_20
REMARK                            x       y       z     vdW  Elec       q    Type
REMARK                         _______ _______ _______ _____ _____    ______ ____
ROOT
ATOM      1  C   UNL     1     -11.268  14.257  69.487  0.00  0.00    -0.004 C 
ATOM      2  C   UNL     1     -11.159  15.551  69.796  0.00  0.00    -0.022 C 
ATOM      3  C   UNL     1     -11.553  16.084  71.137  0.00  0.00    +0.031 C 
ENDROOT
BRANCH   1   5
ATOM      4  C   UNL     1     -11.352  13.043  67.359  0.00  0.00    -0.004 C 
ATOM      5  C   UNL     1     -11.924  13.823  68.246  0.00  0.00    -0.001 C 
BRANCH   4   7
ATOM      6  C   UNL     1     -12.783  14.060  65.511  0.00  0.00    +0.031 C 
ATOM      7  C   UNL     1     -11.826  13.031  65.970  0.00  0.00    -0.015 C 
ATOM      8  C   UNL     1     -11.592  11.995  65.173  0.00  0.00    +0.082 C 
BRANCH   8   9
ATOM      9  C   UNL     1     -11.716  12.114  63.717  0.00  0.00    +0.388 C 
ATOM     10  O   UNL     1     -12.955  11.752  63.181  0.00  0.00    -0.241 OA
ATOM     11  O   UNL     1     -10.678  11.921  63.020  0.00  0.00    -0.241 OA
ENDBRANCH   8   9
ENDBRANCH   4   7
ENDBRANCH   1   5
BRANCH   2  12
ATOM     12  C   UNL     1     -11.218  16.455  68.638  0.00  0.00    -0.005 C 
ATOM     13  C   UNL     1     -10.129  16.384  67.870  0.00  0.00    -0.005 C 
BRANCH  13  14
ATOM     14  C   UNL     1      -8.886  16.755  68.565  0.00  0.00    -0.031 C 
ATOM     15  C   UNL     1      -7.645  15.925  68.453  0.00  0.00    +0.018 C 
ATOM     16  C   UNL     1      -7.903  14.462  68.618  0.00  0.00    +0.004 C 
ATOM     17  C   UNL     1      -6.669  16.453  69.499  0.00  0.00    +0.004 C 
ATOM     18  C   UNL     1      -7.015  16.267  67.115  0.00  0.00    +0.004 C 
ATOM     19  C   UNL     1      -6.809  17.755  67.042  0.00  0.00    +0.005 C 
ATOM     20  C   UNL     1      -7.186  18.461  68.336  0.00  0.00    +0.022 C 
ATOM     21  C   UNL     1      -8.604  18.062  68.612  0.00  0.00    -0.048 C 
ATOM     22  C   UNL     1      -9.705  19.075  68.576  0.00  0.00    +0.026 C 
ENDBRANCH  13  14
ENDBRANCH   2  12
TORSDOF 5
ENDMDL
MODEL 7
REMARK VINA RESULT:      -5.6      5.000      7.493
REMARK  Name = 
REMARK  5 active torsions:
REMARK  status: ('A' for Active; 'I' for Inactive)
REMARK    1  A    between atoms: C_2  and  C_3
REMARK    2  A    between atoms: C_4  and  C_5
REMARK    3  A    between atoms: C_6  and  C_8
REMARK    4  A    between atoms: C_9  and  C_10
REMARK    5  A    between atoms: C_19  and  C_20
REMARK                            x       y       z     vdW  Elec       q    Type
REMARK                         _______ _______ _______ _____ _____    ______ ____
ROOT
ATOM      1  C   UNL     1     -10.198  18.319  68.070  0.00  0.00    -0.004 C 
ATOM      2  C   UNL     1      -9.381  19.198  67.485  0.00  0.00    -0.022 C 
ATOM      3  C   UNL     1      -9.567  20.674  67.630  0.00  0.00    +0.031 C 
ENDROOT
BRANCH   1   5
ATOM      4  C   UNL     1     -10.764  15.961  67.711  0.00  0.00    -0.004 C 
ATOM      5  C   UNL     1     -10.792  17.210  67.311  0.00  0.00    -0.001 C 
BRANCH   4   7
ATOM      6  C   UNL     1      -9.964  14.730  65.628  0.00  0.00    +0.031 C 
ATOM      7  C   UNL     1     -10.925  14.870  66.742  0.00  0.00    -0.015 C 
ATOM      8  C   UNL     1     -12.033  14.139  66.709  0.00  0.00    +0.082 C 
BRANCH   8   9
ATOM      9  C   UNL     1     -12.064  12.839  66.030  0.00  0.00    +0.388 C 
ATOM     10  O   UNL     1     -12.944  12.739  64.949  0.00  0.00    -0.241 OA
ATOM     11  O   UNL     1     -11.844  11.806  66.726  0.00  0.00    -0.241 OA
ENDBRANCH   8   9
ENDBRANCH   4   7
ENDBRANCH   1   5
BRANCH   2  12
ATOM     12  C   UNL     1      -8.715  18.691  66.276  0.00  0.00    -0.005 C 
ATOM     13  C   UNL     1      -7.433  18.383  66.482  0.00  0.00    -0.005 C 
BRANCH  13  14
ATOM     14  C   UNL     1      -6.608  19.524  66.907  0.00  0.00    -0.031 C 
ATOM     15  C   UNL     1      -5.777  19.473  68.152  0.00  0.00    +0.018 C 
ATOM     16  C   UNL     1      -6.515  18.914  69.325  0.00  0.00    +0.004 C 
ATOM     17  C   UNL     1      -5.288  20.894  68.410  0.00  0.00    +0.004 C 
ATOM     18  C   UNL     1      -4.528  18.681  67.806  0.00  0.00    +0.004 C 
ATOM     19  C   UNL     1      -3.869  19.312  66.611  0.00  0.00    +0.005 C 
ATOM     20  C   UNL     1      -4.566  20.589  66.166  0.00  0.00    +0.022 C 
ATOM     21  C   UNL     1      -5.995  20.204  65.932  0.00  0.00    -0.048 C 
ATOM     22  C   UNL     1      -6.584  20.252  64.557  0.00  0.00    +0.026 C 
ENDBRANCH  13  14
ENDBRANCH   2  12
TORSDOF 5
ENDMDL
MODEL 8
REMARK VINA RESULT:      -5.5      4.599      5.911
REMARK  Name = 
REMARK  5 active torsions:
REMARK  status: ('A' for Active; 'I' for Inactive)
REMARK    1  A    between atoms: C_2  and  C_3
REMARK    2  A    between atoms: C_4  and  C_5
REMARK    3  A    between atoms: C_6  and  C_8
REMARK    4  A    between atoms: C_9  and  C_10
REMARK    5  A    between atoms: C_19  and  C_20
REMARK                            x       y       z     vdW  Elec       q    Type
REMARK                         _______ _______ _______ _____ _____    ______ ____
ROOT
ATOM      1  C   UNL     1     -10.448  17.329  67.852  0.00  0.00    -0.004 C 
ATOM      2  C   UNL     1     -10.739  16.060  68.147  0.00  0.00    -0.022 C 
ATOM      3  C   UNL     1     -11.915  15.691  68.995  0.00  0.00    +0.031 C 
ENDROOT
BRANCH   1   5
ATOM      4  C   UNL     1      -8.827  18.958  68.705  0.00  0.00    -0.004 C 
ATOM      5  C   UNL     1      -9.091  17.861  68.035  0.00  0.00    -0.001 C 
BRANCH   4   7
ATOM      6  C   UNL     1      -7.415  20.473  67.219  0.00  0.00    +0.031 C 
ATOM      7  C   UNL     1      -7.578  19.690  68.462  0.00  0.00    -0.015 C 
ATOM      8  C   UNL     1      -6.507  19.493  69.223  0.00  0.00    +0.082 C 
BRANCH   8   9
ATOM      9  C   UNL     1      -5.403  20.458  69.243  0.00  0.00    +0.388 C 
ATOM     10  O   UNL     1      -4.223  20.044  68.621  0.00  0.00    -0.241 OA
ATOM     11  O   UNL     1      -5.320  21.236  70.237  0.00  0.00    -0.241 OA
ENDBRANCH   8   9
ENDBRANCH   4   7
ENDBRANCH   1   5
BRANCH   2  12
ATOM     12  C   UNL     1      -9.582  15.154  68.122  0.00  0.00    -0.005 C 
ATOM     13  C   UNL     1      -9.437  14.531  66.950  0.00  0.00    -0.005 C 
BRANCH  13  14
ATOM     14  C   UNL     1     -10.581  13.681  66.585  0.00  0.00    -0.031 C 
ATOM     15  C   UNL     1     -11.220  13.761  65.233  0.00  0.00    +0.018 C 
ATOM     16  C   UNL     1     -11.467  15.165  64.786  0.00  0.00    +0.004 C 
ATOM     17  C   UNL     1     -12.509  12.951  65.310  0.00  0.00    +0.004 C 
ATOM     18  C   UNL     1     -10.322  12.987  64.283  0.00  0.00    +0.004 C 
ATOM     19  C   UNL     1     -10.124  11.599  64.825  0.00  0.00    +0.005 C 
ATOM     20  C   UNL     1     -10.941  11.341  66.084  0.00  0.00    +0.022 C 
ATOM     21  C   UNL     1     -10.551  12.424  67.043  0.00  0.00    -0.048 C 
ATOM     22  C   UNL     1      -9.824  12.098  68.310  0.00  0.00    +0.026 C 
ENDBRANCH  13  14
ENDBRANCH   2  12
TORSDOF 5
ENDMDL
MODEL 9
REMARK VINA RESULT:      -5.3      4.043      6.110
REMARK  Name = 
REMARK  5 active torsions:
REMARK  status: ('A' for Active; 'I' for Inactive)
REMARK    1  A    between atoms: C_2  and  C_3
REMARK    2  A    between atoms: C_4  and  C_5
REMARK    3  A    between atoms: C_6  and  C_8
REMARK    4  A    between atoms: C_9  and  C_10
REMARK    5  A    between atoms: C_19  and  C_20
REMARK                            x       y       z     vdW  Elec       q    Type
REMARK                         _______ _______ _______ _____ _____    ______ ____
ROOT
ATOM      1  C   UNL     1      -8.825  11.167  67.365  0.00  0.00    -0.004 C 
ATOM      2  C   UNL     1      -8.897   9.865  67.080  0.00  0.00    -0.022 C 
ATOM      3  C   UNL     1      -7.775   9.134  66.414  0.00  0.00    +0.031 C 
ENDROOT
BRANCH   1   5
ATOM      4  C   UNL     1     -10.044  12.594  65.787  0.00  0.00    -0.004 C 
ATOM      5  C   UNL     1      -9.906  12.090  66.990  0.00  0.00    -0.001 C 
BRANCH   4   7
ATOM      6  C   UNL     1     -12.244  13.872  65.919  0.00  0.00    +0.031 C 
ATOM      7  C   UNL     1     -10.805  13.833  65.586  0.00  0.00    -0.015 C 
ATOM      8  C   UNL     1     -10.290  14.853  64.910  0.00  0.00    +0.082 C 
BRANCH   8   9
ATOM      9  C   UNL     1     -10.859  16.200  65.019  0.00  0.00    +0.388 C 
ATOM     10  O   UNL     1     -11.634  16.622  63.936  0.00  0.00    -0.241 OA
ATOM     11  O   UNL     1     -10.200  17.067  65.663  0.00  0.00    -0.241 OA
ENDBRANCH   8   9
ENDBRANCH   4   7
ENDBRANCH   1   5
BRANCH   2  12
ATOM     12  C   UNL     1     -10.266   9.362  66.898  0.00  0.00    -0.005 C 
ATOM     13  C   UNL     1     -10.838   8.991  68.046  0.00  0.00    -0.005 C 
BRANCH  13  14
ATOM     14  C   UNL     1     -10.132   7.899  68.735  0.00  0.00    -0.031 C 
ATOM     15  C   UNL     1      -9.764   7.993  70.184  0.00  0.00    +0.018 C 
ATOM     16  C   UNL     1      -9.149   9.305  70.547  0.00  0.00    +0.004 C 
ATOM     17  C   UNL     1      -8.827   6.824  70.473  0.00  0.00    +0.004 C 
ATOM     18  C   UNL     1     -11.027   7.692  70.972  0.00  0.00    +0.004 C 
ATOM     19  C   UNL     1     -11.573   6.364  70.525  0.00  0.00    +0.005 C 
ATOM     20  C   UNL     1     -10.671   5.673  69.513  0.00  0.00    +0.022 C 
ATOM     21  C   UNL     1     -10.494   6.657  68.397  0.00  0.00    -0.048 C 
ATOM     22  C   UNL     1     -11.041   6.373  67.033  0.00  0.00    +0.026 C 
ENDBRANCH  13  14
ENDBRANCH   2  12
TORSDOF 5
ENDMDL
