MODEL 1
REMARK VINA RESULT:      -7.6      0.000      0.000
REMARK  Name = 
REMARK  7 active torsions:
REMARK  status: ('A' for Active; 'I' for Inactive)
REMARK    1  A    between atoms: N_2  and  C_3
REMARK    2  A    between atoms: C_3  and  C_5
REMARK    3  A    between atoms: C_10  and  O_11
REMARK    4  A    between atoms: O_11  and  C_12
REMARK    5  A    between atoms: C_15  and  O_16
REMARK    6  A    between atoms: O_16  and  C_17
REMARK    7  A    between atoms: C_23  and  N_24
REMARK                            x       y       z     vdW  Elec       q    Type
REMARK                         _______ _______ _______ _____ _____    ______ ____
ROOT
ATOM      1  C   UNL     1      -8.379  18.774  67.036  0.00  0.00    +0.168 C 
ATOM      2  C   UNL     1      -9.444  19.328  68.252  0.00  0.00    +0.123 C 
ATOM      3  N   UNL     1      -9.783  20.603  67.417  0.00  0.00    -0.130 NA
ATOM      4  C   UNL     1     -10.779  18.523  67.756  0.00  0.00    +0.043 C 
ATOM      5  C   UNL     1     -10.329  17.308  68.760  0.00  0.00    +0.123 C 
ATOM      6  N   UNL     1     -11.651  16.508  68.653  0.00  0.00    -0.130 NA
ATOM      7  C   UNL     1      -9.349  16.438  67.640  0.00  0.00    +0.168 C 
ATOM      8  C   UNL     1      -9.397  17.589  66.376  0.00  0.00    +0.209 C 
ATOM      9  O   UNL     1      -8.201  16.949  65.731  0.00  0.00    -0.218 OA
ENDROOT
BRANCH   1  10
ATOM     10  O   UNL     1      -7.579  17.945  68.004  0.00  0.00    -0.328 OA
BRANCH  10  13
ATOM     11  C   UNL     1      -5.435  20.485  69.292  0.00  0.00    +0.134 C 
ATOM     12  O   UNL     1      -6.286  19.242  69.312  0.00  0.00    -0.331 OA
ATOM     13  C   UNL     1      -6.453  18.970  67.827  0.00  0.00    +0.253 C 
ATOM     14  C   UNL     1      -5.280  17.694  67.745  0.00  0.00    +0.148 C 
ATOM     15  N   UNL     1      -5.412  17.185  69.214  0.00  0.00    -0.128 NA
ATOM     16  C   UNL     1      -4.066  18.706  68.118  0.00  0.00    +0.027 C 
ATOM     17  C   UNL     1      -4.531  20.085  67.987  0.00  0.00    +0.033 C 
BRANCH  11  18
ATOM     18  C   UNL     1      -4.337  19.809  70.432  0.00  0.00    +0.100 C 
ATOM     19  C   UNL     1      -5.376  20.059  71.664  0.00  0.00    +0.021 C 
BRANCH  18  21
ATOM     20  C   UNL     1      -2.662  21.046  71.141  0.00  0.00    +0.107 C 
ATOM     21  N   UNL     1      -3.554  21.127  70.736  0.00  0.00    -0.215 NA
ENDBRANCH  18  21
ENDBRANCH  11  18
ENDBRANCH  10  13
ENDBRANCH   1  10
BRANCH   7  22
ATOM     22  O   UNL     1     -10.229  15.513  66.997  0.00  0.00    -0.327 OA
BRANCH  22  23
ATOM     23  C   UNL     1     -10.267  14.075  66.816  0.00  0.00    +0.268 C 
ATOM     24  C   UNL     1     -11.960  13.917  66.473  0.00  0.00    +0.226 C 
ATOM     25  O   UNL     1     -11.979  14.617  65.157  0.00  0.00    -0.216 OA
ATOM     26  C   UNL     1     -11.936  12.305  65.896  0.00  0.00    +0.138 C 
ATOM     27  C   UNL     1     -11.180  12.527  64.477  0.00  0.00    +0.171 C 
ATOM     28  O   UNL     1     -11.094  11.191  64.042  0.00  0.00    -0.222 OA
ATOM     29  C   UNL     1     -12.203  12.999  63.457  0.00  0.00    +0.037 C 
ATOM     30  C   UNL     1      -9.960  13.204  64.654  0.00  0.00    +0.176 C 
ATOM     31  O   UNL     1      -9.818  14.287  65.360  0.00  0.00    -0.326 OA
BRANCH  26  32
ATOM     32  N   UNL     1     -10.662  11.837  66.677  0.00  0.00    -0.213 NA
ATOM     33  C   UNL     1     -10.905  10.625  67.334  0.00  0.00    +0.108 C 
ENDBRANCH  26  32
ENDBRANCH  22  23
ENDBRANCH   7  22
TORSDOF 7
ENDMDL
MODEL 2
REMARK VINA RESULT:      -6.9      1.011      1.081
REMARK  Name = 
REMARK  7 active torsions:
REMARK  status: ('A' for Active; 'I' for Inactive)
REMARK    1  A    between atoms: N_2  and  C_3
REMARK    2  A    between atoms: C_3  and  C_5
REMARK    3  A    between atoms: C_10  and  O_11
REMARK    4  A    between atoms: O_11  and  C_12
REMARK    5  A    between atoms: C_15  and  O_16
REMARK    6  A    between atoms: O_16  and  C_17
REMARK    7  A    between atoms: C_23  and  N_24
REMARK                            x       y       z     vdW  Elec       q    Type
REMARK                         _______ _______ _______ _____ _____    ______ ____
ROOT
ATOM      1  C   UNL     1      -8.103  18.317  67.218  0.00  0.00    +0.168 C 
ATOM      2  C   UNL     1      -9.278  19.122  68.161  0.00  0.00    +0.123 C 
ATOM      3  N   UNL     1      -9.459  20.213  67.058  0.00  0.00    -0.130 NA
ATOM      4  C   UNL     1     -10.580  18.262  67.668  0.00  0.00    +0.043 C 
ATOM      5  C   UNL     1     -10.308  17.262  68.936  0.00  0.00    +0.123 C 
ATOM      6  N   UNL     1     -11.642  16.484  68.822  0.00  0.00    -0.130 NA
ATOM      7  C   UNL     1      -9.241  16.168  68.139  0.00  0.00    +0.168 C 
ATOM      8  C   UNL     1      -9.087  17.045  66.679  0.00  0.00    +0.209 C 
ATOM      9  O   UNL     1      -7.853  16.266  66.326  0.00  0.00    -0.218 OA
ENDROOT
BRANCH   1  10
ATOM     10  O   UNL     1      -7.461  17.681  68.422  0.00  0.00    -0.328 OA
BRANCH  10  13
ATOM     11  C   UNL     1      -5.129  20.227  69.303  0.00  0.00    +0.134 C 
ATOM     12  O   UNL     1      -6.106  19.102  69.521  0.00  0.00    -0.331 OA
ATOM     13  C   UNL     1      -6.226  18.535  68.116  0.00  0.00    +0.253 C 
ATOM     14  C   UNL     1      -5.191  17.169  68.384  0.00  0.00    +0.148 C 
ATOM     15  N   UNL     1      -5.449  16.999  69.913  0.00  0.00    -0.128 NA
ATOM     16  C   UNL     1      -3.898  18.120  68.623  0.00  0.00    +0.027 C 
ATOM     17  C   UNL     1      -4.208  19.476  68.177  0.00  0.00    +0.033 C 
BRANCH  11  18
ATOM     18  C   UNL     1      -4.166  19.713  70.633  0.00  0.00    +0.100 C 
ATOM     19  C   UNL     1      -5.223  20.332  71.710  0.00  0.00    +0.021 C 
BRANCH  18  21
ATOM     20  C   UNL     1      -2.397  20.901  71.178  0.00  0.00    +0.107 C 
ATOM     21  N   UNL     1      -3.252  20.978  70.699  0.00  0.00    -0.215 NA
ENDBRANCH  18  21
ENDBRANCH  11  18
ENDBRANCH  10  13
ENDBRANCH   1  10
BRANCH   7  22
ATOM     22  O   UNL     1     -10.079  15.151  67.583  0.00  0.00    -0.327 OA
BRANCH  22  23
ATOM     23  C   UNL     1     -10.276  13.733  67.810  0.00  0.00    +0.268 C 
ATOM     24  C   UNL     1     -11.628  13.502  66.748  0.00  0.00    +0.226 C 
ATOM     25  O   UNL     1     -10.928  13.738  65.454  0.00  0.00    -0.216 OA
ATOM     26  C   UNL     1     -11.622  11.789  66.725  0.00  0.00    +0.138 C 
ATOM     27  C   UNL     1     -10.279  11.527  65.853  0.00  0.00    +0.171 C 
ATOM     28  O   UNL     1     -10.236  10.121  65.901  0.00  0.00    -0.222 OA
ATOM     29  C   UNL     1     -10.630  11.660  64.379  0.00  0.00    +0.037 C 
ATOM     30  C   UNL     1      -9.176  12.204  66.405  0.00  0.00    +0.176 C 
ATOM     31  O   UNL     1      -9.187  13.454  66.761  0.00  0.00    -0.326 OA
BRANCH  26  32
ATOM     32  N   UNL     1     -10.942  11.577  68.120  0.00  0.00    -0.213 NA
ATOM     33  C   UNL     1     -11.715  10.729  68.920  0.00  0.00    +0.108 C 
ENDBRANCH  26  32
ENDBRANCH  22  23
ENDBRANCH   7  22
TORSDOF 7
ENDMDL
MODEL 3
REMARK VINA RESULT:      -6.8      1.220      1.864
REMARK  Name = 
REMARK  7 active torsions:
REMARK  status: ('A' for Active; 'I' for Inactive)
REMARK    1  A    between atoms: N_2  and  C_3
REMARK    2  A    between atoms: C_3  and  C_5
REMARK    3  A    between atoms: C_10  and  O_11
REMARK    4  A    between atoms: O_11  and  C_12
REMARK    5  A    between atoms: C_15  and  O_16
REMARK    6  A    between atoms: O_16  and  C_17
REMARK    7  A    between atoms: C_23  and  N_24
REMARK                            x       y       z     vdW  Elec       q    Type
REMARK                         _______ _______ _______ _____ _____    ______ ____
ROOT
ATOM      1  C   UNL     1      -8.258  18.834  67.034  0.00  0.00    +0.168 C 
ATOM      2  C   UNL     1      -9.373  19.457  68.169  0.00  0.00    +0.123 C 
ATOM      3  N   UNL     1      -9.717  20.650  67.221  0.00  0.00    -0.130 NA
ATOM      4  C   UNL     1     -10.673  18.579  67.701  0.00  0.00    +0.043 C 
ATOM      5  C   UNL     1     -10.225  17.463  68.814  0.00  0.00    +0.123 C 
ATOM      6  N   UNL     1     -11.524  16.621  68.734  0.00  0.00    -0.130 NA
ATOM      7  C   UNL     1      -9.189  16.531  67.799  0.00  0.00    +0.168 C 
ATOM      8  C   UNL     1      -9.225  17.573  66.443  0.00  0.00    +0.209 C 
ATOM      9  O   UNL     1      -7.994  16.915  65.889  0.00  0.00    -0.218 OA
ENDROOT
BRANCH   1  10
ATOM     10  O   UNL     1      -7.469  18.109  68.090  0.00  0.00    -0.328 OA
BRANCH  10  13
ATOM     11  C   UNL     1      -5.301  20.674  69.285  0.00  0.00    +0.134 C 
ATOM     12  O   UNL     1      -6.135  19.421  69.342  0.00  0.00    -0.331 OA
ATOM     13  C   UNL     1      -6.364  19.148  67.865  0.00  0.00    +0.253 C 
ATOM     14  C   UNL     1      -5.180  17.886  67.730  0.00  0.00    +0.148 C 
ATOM     15  N   UNL     1      -5.242  17.374  69.202  0.00  0.00    -0.128 NA
ATOM     16  C   UNL     1      -3.964  18.912  68.050  0.00  0.00    +0.027 C 
ATOM     17  C   UNL     1      -4.451  20.285  67.941  0.00  0.00    +0.033 C 
BRANCH  11  18
ATOM     18  C   UNL     1      -4.145  20.011  70.375  0.00  0.00    +0.100 C 
ATOM     19  C   UNL     1      -5.093  20.333  71.663  0.00  0.00    +0.021 C 
BRANCH  18  21
ATOM     20  C   UNL     1      -2.421  21.233  70.984  0.00  0.00    +0.107 C 
ATOM     21  N   UNL     1      -3.312  21.316  70.576  0.00  0.00    -0.215 NA
ENDBRANCH  18  21
ENDBRANCH  11  18
ENDBRANCH  10  13
ENDBRANCH   1  10
BRANCH   7  22
ATOM     22  O   UNL     1     -10.026  15.533  67.209  0.00  0.00    -0.327 OA
BRANCH  22  23
ATOM     23  C   UNL     1      -9.853  14.160  66.777  0.00  0.00    +0.268 C 
ATOM     24  C   UNL     1      -9.509  13.459  68.326  0.00  0.00    +0.226 C 
ATOM     25  O   UNL     1     -10.848  13.652  68.952  0.00  0.00    -0.216 OA
ATOM     26  C   UNL     1      -9.676  11.813  67.884  0.00  0.00    +0.138 C 
ATOM     27  C   UNL     1     -11.284  11.742  67.675  0.00  0.00    +0.171 C 
ATOM     28  O   UNL     1     -11.408  10.410  67.238  0.00  0.00    -0.222 OA
ATOM     29  C   UNL     1     -11.939  11.563  69.035  0.00  0.00    +0.037 C 
ATOM     30  C   UNL     1     -11.722  12.735  66.779  0.00  0.00    +0.176 C 
ATOM     31  O   UNL     1     -11.379  13.987  66.848  0.00  0.00    -0.326 OA
BRANCH  26  32
ATOM     32  N   UNL     1      -9.331  11.982  66.366  0.00  0.00    -0.213 NA
ATOM     33  C   UNL     1      -8.448  10.980  65.948  0.00  0.00    +0.108 C 
ENDBRANCH  26  32
ENDBRANCH  22  23
ENDBRANCH   7  22
TORSDOF 7
ENDMDL
MODEL 4
REMARK VINA RESULT:      -6.8      1.795      2.205
REMARK  Name = 
REMARK  7 active torsions:
REMARK  status: ('A' for Active; 'I' for Inactive)
REMARK    1  A    between atoms: N_2  and  C_3
REMARK    2  A    between atoms: C_3  and  C_5
REMARK    3  A    between atoms: C_10  and  O_11
REMARK    4  A    between atoms: O_11  and  C_12
REMARK    5  A    between atoms: C_15  and  O_16
REMARK    6  A    between atoms: O_16  and  C_17
REMARK    7  A    between atoms: C_23  and  N_24
REMARK                            x       y       z     vdW  Elec       q    Type
REMARK                         _______ _______ _______ _____ _____    ______ ____
ROOT
ATOM      1  C   UNL     1      -9.148  18.618  66.941  0.00  0.00    +0.168 C 
ATOM      2  C   UNL     1      -9.063  18.712  68.645  0.00  0.00    +0.123 C 
ATOM      3  N   UNL     1     -10.027  19.942  68.655  0.00  0.00    -0.130 NA
ATOM      4  C   UNL     1     -10.257  17.645  68.982  0.00  0.00    +0.043 C 
ATOM      5  C   UNL     1      -9.103  16.483  69.031  0.00  0.00    +0.123 C 
ATOM      6  N   UNL     1     -10.008  15.376  69.626  0.00  0.00    -0.130 NA
ATOM      7  C   UNL     1      -9.143  16.052  67.362  0.00  0.00    +0.168 C 
ATOM      8  C   UNL     1     -10.202  17.292  66.847  0.00  0.00    +0.209 C 
ATOM      9  O   UNL     1      -9.777  17.081  65.422  0.00  0.00    -0.218 OA
ENDROOT
BRANCH   1  10
ATOM     10  O   UNL     1      -7.817  17.923  66.836  0.00  0.00    -0.328 OA
BRANCH  10  13
ATOM     11  C   UNL     1      -5.920  20.924  66.520  0.00  0.00    +0.134 C 
ATOM     12  O   UNL     1      -6.266  19.544  67.015  0.00  0.00    -0.331 OA
ATOM     13  C   UNL     1      -7.341  19.131  66.023  0.00  0.00    +0.253 C 
ATOM     14  C   UNL     1      -6.317  18.107  65.066  0.00  0.00    +0.148 C 
ATOM     15  N   UNL     1      -5.314  17.696  66.188  0.00  0.00    -0.128 NA
ATOM     16  C   UNL     1      -5.403  19.362  64.593  0.00  0.00    +0.027 C 
ATOM     17  C   UNL     1      -6.089  20.609  64.922  0.00  0.00    +0.033 C 
BRANCH  11  18
ATOM     18  C   UNL     1      -4.237  20.565  66.553  0.00  0.00    +0.100 C 
ATOM     19  C   UNL     1      -4.162  20.804  68.165  0.00  0.00    +0.021 C 
BRANCH  18  21
ATOM     20  C   UNL     1      -2.772  22.141  66.096  0.00  0.00    +0.107 C 
ATOM     21  N   UNL     1      -3.735  22.012  66.246  0.00  0.00    -0.215 NA
ENDBRANCH  18  21
ENDBRANCH  11  18
ENDBRANCH  10  13
ENDBRANCH   1  10
BRANCH   7  22
ATOM     22  O   UNL     1     -10.117  15.010  67.258  0.00  0.00    -0.327 OA
BRANCH  22  23
ATOM     23  C   UNL     1     -10.105  13.619  66.849  0.00  0.00    +0.268 C 
ATOM     24  C   UNL     1     -11.815  13.409  66.649  0.00  0.00    +0.226 C 
ATOM     25  O   UNL     1     -12.006  14.305  65.474  0.00  0.00    -0.216 OA
ATOM     26  C   UNL     1     -11.775  11.912  65.818  0.00  0.00    +0.138 C 
ATOM     27  C   UNL     1     -11.185  12.403  64.388  0.00  0.00    +0.171 C 
ATOM     28  O   UNL     1     -11.082  11.161  63.735  0.00  0.00    -0.222 OA
ATOM     29  C   UNL     1     -12.331  12.964  63.561  0.00  0.00    +0.037 C 
ATOM     30  C   UNL     1      -9.986  13.121  64.555  0.00  0.00    +0.176 C 
ATOM     31  O   UNL     1      -9.822  14.085  65.411  0.00  0.00    -0.326 OA
BRANCH  26  32
ATOM     32  N   UNL     1     -10.405  11.409  66.385  0.00  0.00    -0.213 NA
ATOM     33  C   UNL     1     -10.529  10.111  66.892  0.00  0.00    +0.108 C 
ENDBRANCH  26  32
ENDBRANCH  22  23
ENDBRANCH   7  22
TORSDOF 7
ENDMDL
MODEL 5
REMARK VINA RESULT:      -6.6      2.708      8.648
REMARK  Name = 
REMARK  7 active torsions:
REMARK  status: ('A' for Active; 'I' for Inactive)
REMARK    1  A    between atoms: N_2  and  C_3
REMARK    2  A    between atoms: C_3  and  C_5
REMARK    3  A    between atoms: C_10  and  O_11
REMARK    4  A    between atoms: O_11  and  C_12
REMARK    5  A    between atoms: C_15  and  O_16
REMARK    6  A    between atoms: O_16  and  C_17
REMARK    7  A    between atoms: C_23  and  N_24
REMARK                            x       y       z     vdW  Elec       q    Type
REMARK                         _______ _______ _______ _____ _____    ______ ____
ROOT
ATOM      1  C   UNL     1     -11.720  12.684  66.272  0.00  0.00    +0.168 C 
ATOM      2  C   UNL     1     -11.879  12.948  64.592  0.00  0.00    +0.123 C 
ATOM      3  N   UNL     1     -13.321  12.348  64.603  0.00  0.00    -0.130 NA
ATOM      4  C   UNL     1     -12.412  14.494  64.664  0.00  0.00    +0.043 C 
ATOM      5  C   UNL     1     -10.846  14.961  64.547  0.00  0.00    +0.123 C 
ATOM      6  N   UNL     1     -11.140  16.464  64.316  0.00  0.00    -0.130 NA
ATOM      7  C   UNL     1     -10.485  14.972  66.233  0.00  0.00    +0.168 C 
ATOM      8  C   UNL     1     -11.957  14.287  66.771  0.00  0.00    +0.209 C 
ATOM      9  O   UNL     1     -11.331  13.948  68.093  0.00  0.00    -0.218 OA
ENDROOT
BRANCH   1  10
ATOM     10  O   UNL     1     -10.217  12.634  66.201  0.00  0.00    -0.328 OA
BRANCH  10  13
ATOM     11  C   UNL     1      -9.895   9.103  65.838  0.00  0.00    +0.134 C 
ATOM     12  O   UNL     1      -9.589  10.559  65.599  0.00  0.00    -0.331 OA
ATOM     13  C   UNL     1     -10.317  11.211  66.762  0.00  0.00    +0.253 C 
ATOM     14  C   UNL     1      -8.903  11.475  67.733  0.00  0.00    +0.148 C 
ATOM     15  N   UNL     1      -7.866  11.600  66.574  0.00  0.00    -0.128 NA
ATOM     16  C   UNL     1      -8.648   9.881  67.901  0.00  0.00    +0.027 C 
ATOM     17  C   UNL     1      -9.841   9.155  67.473  0.00  0.00    +0.033 C 
BRANCH  11  18
ATOM     18  C   UNL     1      -8.238   8.676  65.659  0.00  0.00    +0.100 C 
ATOM     19  C   UNL     1      -8.339   8.742  64.032  0.00  0.00    +0.021 C 
BRANCH  18  21
ATOM     20  C   UNL     1      -7.654   6.559  65.540  0.00  0.00    +0.107 C 
ATOM     21  N   UNL     1      -8.444   7.128  65.677  0.00  0.00    -0.215 NA
ENDBRANCH  18  21
ENDBRANCH  11  18
ENDBRANCH  10  13
ENDBRANCH   1  10
BRANCH   7  22
ATOM     22  O   UNL     1     -10.793  16.293  66.684  0.00  0.00    -0.327 OA
BRANCH  22  23
ATOM     23  C   UNL     1     -10.073  17.548  66.781  0.00  0.00    +0.268 C 
ATOM     24  C   UNL     1      -9.945  17.621  68.510  0.00  0.00    +0.226 C 
ATOM     25  O   UNL     1      -9.025  16.466  68.706  0.00  0.00    -0.216 OA
ATOM     26  C   UNL     1      -8.789  18.881  68.609  0.00  0.00    +0.138 C 
ATOM     27  C   UNL     1      -7.476  18.097  68.066  0.00  0.00    +0.171 C 
ATOM     28  O   UNL     1      -6.547  19.155  68.076  0.00  0.00    -0.222 OA
ATOM     29  C   UNL     1      -6.880  17.303  69.217  0.00  0.00    +0.037 C 
ATOM     30  C   UNL     1      -7.724  17.498  66.817  0.00  0.00    +0.176 C 
ATOM     31  O   UNL     1      -8.767  16.771  66.547  0.00  0.00    -0.326 OA
BRANCH  26  32
ATOM     32  N   UNL     1      -9.132  19.569  67.245  0.00  0.00    -0.213 NA
ATOM     33  C   UNL     1      -9.560  20.885  67.452  0.00  0.00    +0.108 C 
ENDBRANCH  26  32
ENDBRANCH  22  23
ENDBRANCH   7  22
TORSDOF 7
ENDMDL
MODEL 6
REMARK VINA RESULT:      -6.4      2.315      2.756
REMARK  Name = 
REMARK  7 active torsions:
REMARK  status: ('A' for Active; 'I' for Inactive)
REMARK    1  A    between atoms: N_2  and  C_3
REMARK    2  A    between atoms: C_3  and  C_5
REMARK    3  A    between atoms: C_10  and  O_11
REMARK    4  A    between atoms: O_11  and  C_12
REMARK    5  A    between atoms: C_15  and  O_16
REMARK    6  A    between atoms: O_16  and  C_17
REMARK    7  A    between atoms: C_23  and  N_24
REMARK                            x       y       z     vdW  Elec       q    Type
REMARK                         _______ _______ _______ _____ _____    ______ ____
ROOT
ATOM      1  C   UNL     1      -9.384  17.253  66.925  0.00  0.00    +0.168 C 
ATOM      2  C   UNL     1     -10.017  17.868  68.389  0.00  0.00    +0.123 C 
ATOM      3  N   UNL     1     -10.937  18.861  67.608  0.00  0.00    -0.130 NA
ATOM      4  C   UNL     1     -11.208  16.765  68.592  0.00  0.00    +0.043 C 
ATOM      5  C   UNL     1     -10.141  15.886  69.471  0.00  0.00    +0.123 C 
ATOM      6  N   UNL     1     -11.176  14.872  70.019  0.00  0.00    -0.130 NA
ATOM      7  C   UNL     1      -9.471  14.972  68.171  0.00  0.00    +0.168 C 
ATOM      8  C   UNL     1     -10.261  15.802  66.900  0.00  0.00    +0.209 C 
ATOM      9  O   UNL     1      -9.276  15.248  65.911  0.00  0.00    -0.218 OA
ENDROOT
BRANCH   1  10
ATOM     10  O   UNL     1      -8.108  16.796  67.580  0.00  0.00    -0.328 OA
BRANCH  10  13
ATOM     11  C   UNL     1      -6.619  19.684  66.114  0.00  0.00    +0.134 C 
ATOM     12  O   UNL     1      -7.062  18.755  67.214  0.00  0.00    -0.331 OA
ATOM     13  C   UNL     1      -7.366  17.489  66.431  0.00  0.00    +0.253 C 
ATOM     14  C   UNL     1      -5.900  16.661  66.855  0.00  0.00    +0.148 C 
ATOM     15  N   UNL     1      -5.658  17.345  68.236  0.00  0.00    -0.128 NA
ATOM     16  C   UNL     1      -4.988  17.746  66.063  0.00  0.00    +0.027 C 
ATOM     17  C   UNL     1      -5.846  18.563  65.207  0.00  0.00    +0.033 C 
BRANCH  11  18
ATOM     18  C   UNL     1      -5.214  20.138  66.999  0.00  0.00    +0.100 C 
ATOM     19  C   UNL     1      -6.063  21.188  67.915  0.00  0.00    +0.021 C 
BRANCH  18  21
ATOM     20  C   UNL     1      -3.833  21.622  66.146  0.00  0.00    +0.107 C 
ATOM     21  N   UNL     1      -4.741  21.265  66.026  0.00  0.00    -0.215 NA
ENDBRANCH  18  21
ENDBRANCH  11  18
ENDBRANCH  10  13
ENDBRANCH   1  10
BRANCH   7  22
ATOM     22  O   UNL     1     -10.280  13.797  68.071  0.00  0.00    -0.327 OA
BRANCH  22  23
ATOM     23  C   UNL     1     -10.064  12.374  68.244  0.00  0.00    +0.268 C 
ATOM     24  C   UNL     1     -11.403  11.808  67.297  0.00  0.00    +0.226 C 
ATOM     25  O   UNL     1     -10.925  12.257  65.959  0.00  0.00    -0.216 OA
ATOM     26  C   UNL     1     -10.938  10.163  67.188  0.00  0.00    +0.138 C 
ATOM     27  C   UNL     1      -9.668  10.298  66.187  0.00  0.00    +0.171 C 
ATOM     28  O   UNL     1      -9.243   8.956  66.161  0.00  0.00    -0.222 OA
ATOM     29  C   UNL     1     -10.188  10.365  64.759  0.00  0.00    +0.037 C 
ATOM     30  C   UNL     1      -8.739  11.237  66.670  0.00  0.00    +0.176 C 
ATOM     31  O   UNL     1      -9.050  12.428  67.088  0.00  0.00    -0.326 OA
BRANCH  26  32
ATOM     32  N   UNL     1     -10.090  10.112  68.504  0.00  0.00    -0.213 NA
ATOM     33  C   UNL     1     -10.466   9.017  69.289  0.00  0.00    +0.108 C 
ENDBRANCH  26  32
ENDBRANCH  22  23
ENDBRANCH   7  22
TORSDOF 7
ENDMDL
MODEL 7
REMARK VINA RESULT:      -6.3      4.420     10.173
REMARK  Name = 
REMARK  7 active torsions:
REMARK  status: ('A' for Active; 'I' for Inactive)
REMARK    1  A    between atoms: N_2  and  C_3
REMARK    2  A    between atoms: C_3  and  C_5
REMARK    3  A    between atoms: C_10  and  O_11
REMARK    4  A    between atoms: O_11  and  C_12
REMARK    5  A    between atoms: C_15  and  O_16
REMARK    6  A    between atoms: O_16  and  C_17
REMARK    7  A    between atoms: C_23  and  N_24
REMARK                            x       y       z     vdW  Elec       q    Type
REMARK                         _______ _______ _______ _____ _____    ______ ____
ROOT
ATOM      1  C   UNL     1     -10.604   8.714  67.900  0.00  0.00    +0.168 C 
ATOM      2  C   UNL     1      -9.107   8.039  67.429  0.00  0.00    +0.123 C 
ATOM      3  N   UNL     1      -9.829   7.001  66.512  0.00  0.00    -0.130 NA
ATOM      4  C   UNL     1      -8.786   9.061  66.192  0.00  0.00    +0.043 C 
ATOM      5  C   UNL     1      -7.979   9.994  67.271  0.00  0.00    +0.123 C 
ATOM      6  N   UNL     1      -7.330  10.932  66.223  0.00  0.00    -0.130 NA
ATOM      7  C   UNL     1      -9.312  10.967  67.773  0.00  0.00    +0.168 C 
ATOM      8  C   UNL     1     -10.530  10.107  66.936  0.00  0.00    +0.209 C 
ATOM      9  O   UNL     1     -11.585  10.737  67.799  0.00  0.00    -0.218 OA
ENDROOT
BRANCH   1  10
ATOM     10  O   UNL     1     -10.047   9.242  69.195  0.00  0.00    -0.328 OA
BRANCH  10  13
ATOM     11  C   UNL     1     -11.228   6.316  70.852  0.00  0.00    +0.134 C 
ATOM     12  O   UNL     1     -10.233   7.358  70.411  0.00  0.00    -0.331 OA
ATOM     13  C   UNL     1     -11.155   8.453  69.901  0.00  0.00    +0.253 C 
ATOM     14  C   UNL     1     -11.015   9.471  71.299  0.00  0.00    +0.148 C 
ATOM     15  N   UNL     1      -9.583   9.037  71.740  0.00  0.00    -0.128 NA
ATOM     16  C   UNL     1     -11.733   8.368  72.249  0.00  0.00    +0.027 C 
ATOM     17  C   UNL     1     -12.365   7.351  71.412  0.00  0.00    +0.033 C 
BRANCH  11  18
ATOM     18  C   UNL     1     -10.441   6.140  72.373  0.00  0.00    +0.100 C 
ATOM     19  C   UNL     1      -9.340   5.112  71.747  0.00  0.00    +0.021 C 
BRANCH  18  21
ATOM     20  C   UNL     1     -10.988   4.443  73.660  0.00  0.00    +0.107 C 
ATOM     21  N   UNL     1     -11.331   4.971  72.905  0.00  0.00    -0.215 NA
ENDBRANCH  18  21
ENDBRANCH  11  18
ENDBRANCH  10  13
ENDBRANCH   1  10
BRANCH   7  22
ATOM     22  O   UNL     1      -9.323  12.089  66.887  0.00  0.00    -0.327 OA
BRANCH  22  23
ATOM     23  C   UNL     1      -8.909  13.476  66.968  0.00  0.00    +0.268 C 
ATOM     24  C   UNL     1     -10.342  14.197  66.307  0.00  0.00    +0.226 C 
ATOM     25  O   UNL     1     -11.283  13.859  67.413  0.00  0.00    -0.216 OA
ATOM     26  C   UNL     1     -10.015  15.820  66.745  0.00  0.00    +0.138 C 
ATOM     27  C   UNL     1     -10.227  15.723  68.351  0.00  0.00    +0.171 C 
ATOM     28  O   UNL     1      -9.883  17.039  68.715  0.00  0.00    -0.222 OA
ATOM     29  C   UNL     1     -11.715  15.822  68.646  0.00  0.00    +0.037 C 
ATOM     30  C   UNL     1      -9.439  14.698  68.905  0.00  0.00    +0.176 C 
ATOM     31  O   UNL     1      -9.374  13.488  68.434  0.00  0.00    -0.326 OA
BRANCH  26  32
ATOM     32  N   UNL     1      -8.454  15.700  66.788  0.00  0.00    -0.213 NA
ATOM     33  C   UNL     1      -7.858  16.831  66.218  0.00  0.00    +0.108 C 
ENDBRANCH  26  32
ENDBRANCH  22  23
ENDBRANCH   7  22
TORSDOF 7
ENDMDL
MODEL 8
REMARK VINA RESULT:      -6.3      5.468     10.017
REMARK  Name = 
REMARK  7 active torsions:
REMARK  status: ('A' for Active; 'I' for Inactive)
REMARK    1  A    between atoms: N_2  and  C_3
REMARK    2  A    between atoms: C_3  and  C_5
REMARK    3  A    between atoms: C_10  and  O_11
REMARK    4  A    between atoms: O_11  and  C_12
REMARK    5  A    between atoms: C_15  and  O_16
REMARK    6  A    between atoms: O_16  and  C_17
REMARK    7  A    between atoms: C_23  and  N_24
REMARK                            x       y       z     vdW  Elec       q    Type
REMARK                         _______ _______ _______ _____ _____    ______ ____
ROOT
ATOM      1  C   UNL     1      -8.991   7.796  68.556  0.00  0.00    +0.168 C 
ATOM      2  C   UNL     1      -7.361   8.078  68.983  0.00  0.00    +0.123 C 
ATOM      3  N   UNL     1      -6.920   6.745  68.297  0.00  0.00    -0.130 NA
ATOM      4  C   UNL     1      -6.953   8.996  67.691  0.00  0.00    +0.043 C 
ATOM      5  C   UNL     1      -7.370  10.305  68.584  0.00  0.00    +0.123 C 
ATOM      6  N   UNL     1      -6.787  11.360  67.611  0.00  0.00    -0.130 NA
ATOM      7  C   UNL     1      -9.035  10.363  68.141  0.00  0.00    +0.168 C 
ATOM      8  C   UNL     1      -9.074   8.894  67.266  0.00  0.00    +0.209 C 
ATOM      9  O   UNL     1     -10.572   8.862  67.361  0.00  0.00    -0.218 OA
ENDROOT
BRANCH   1  10
ATOM     10  O   UNL     1      -9.514   8.649  69.681  0.00  0.00    -0.328 OA
BRANCH  10  13
ATOM     11  C   UNL     1      -9.550   6.216  72.285  0.00  0.00    +0.134 C 
ATOM     12  O   UNL     1      -9.390   7.575  71.654  0.00  0.00    -0.331 OA
ATOM     13  C   UNL     1     -10.052   7.357  70.305  0.00  0.00    +0.253 C 
ATOM     14  C   UNL     1     -11.543   8.149  70.706  0.00  0.00    +0.148 C 
ATOM     15  N   UNL     1     -10.979   9.146  71.765  0.00  0.00    -0.128 NA
ATOM     16  C   UNL     1     -11.904   7.032  71.827  0.00  0.00    +0.027 C 
ATOM     17  C   UNL     1     -11.024   5.878  71.659  0.00  0.00    +0.033 C 
BRANCH  11  18
ATOM     18  C   UNL     1     -10.172   6.909  73.733  0.00  0.00    +0.100 C 
ATOM     19  C   UNL     1      -8.692   7.421  74.190  0.00  0.00    +0.021 C 
BRANCH  18  21
ATOM     20  C   UNL     1      -9.858   5.732  75.564  0.00  0.00    +0.107 C 
ATOM     21  N   UNL     1     -10.072   5.621  74.611  0.00  0.00    -0.215 NA
ENDBRANCH  18  21
ENDBRANCH  11  18
ENDBRANCH  10  13
ENDBRANCH   1  10
BRANCH   7  22
ATOM     22  O   UNL     1      -9.095  11.197  66.982  0.00  0.00    -0.327 OA
BRANCH  22  23
ATOM     23  C   UNL     1      -9.699  12.474  66.655  0.00  0.00    +0.268 C 
ATOM     24  C   UNL     1      -9.724  12.299  64.930  0.00  0.00    +0.226 C 
ATOM     25  O   UNL     1     -10.727  11.200  64.840  0.00  0.00    -0.216 OA
ATOM     26  C   UNL     1     -10.761  13.614  64.572  0.00  0.00    +0.138 C 
ATOM     27  C   UNL     1     -12.165  13.022  65.132  0.00  0.00    +0.171 C 
ATOM     28  O   UNL     1     -12.998  14.134  64.906  0.00  0.00    -0.222 OA
ATOM     29  C   UNL     1     -12.761  12.112  64.069  0.00  0.00    +0.037 C 
ATOM     30  C   UNL     1     -12.039  12.598  66.468  0.00  0.00    +0.176 C 
ATOM     31  O   UNL     1     -11.078  11.842  66.910  0.00  0.00    -0.326 OA
BRANCH  26  32
ATOM     32  N   UNL     1     -10.438  14.469  65.843  0.00  0.00    -0.213 NA
ATOM     33  C   UNL     1     -10.205  15.804  65.492  0.00  0.00    +0.108 C 
ENDBRANCH  26  32
ENDBRANCH  22  23
ENDBRANCH   7  22
TORSDOF 7
ENDMDL
MODEL 9
REMARK VINA RESULT:      -6.3      4.488     10.165
REMARK  Name = 
REMARK  7 active torsions:
REMARK  status: ('A' for Active; 'I' for Inactive)
REMARK    1  A    between atoms: N_2  and  C_3
REMARK    2  A    between atoms: C_3  and  C_5
REMARK    3  A    between atoms: C_10  and  O_11
REMARK    4  A    between atoms: O_11  and  C_12
REMARK    5  A    between atoms: C_15  and  O_16
REMARK    6  A    between atoms: O_16  and  C_17
REMARK    7  A    between atoms: C_23  and  N_24
REMARK                            x       y       z     vdW  Elec       q    Type
REMARK                         _______ _______ _______ _____ _____    ______ ____
ROOT
ATOM      1  C   UNL     1     -10.534   8.680  68.088  0.00  0.00    +0.168 C 
ATOM      2  C   UNL     1      -9.013   8.148  67.519  0.00  0.00    +0.123 C 
ATOM      3  N   UNL     1      -9.699   7.155  66.527  0.00  0.00    -0.130 NA
ATOM      4  C   UNL     1      -8.795   9.298  66.375  0.00  0.00    +0.043 C 
ATOM      5  C   UNL     1      -8.014  10.178  67.515  0.00  0.00    +0.123 C 
ATOM      6  N   UNL     1      -7.456  11.248  66.544  0.00  0.00    -0.130 NA
ATOM      7  C   UNL     1      -9.387  11.013  68.139  0.00  0.00    +0.168 C 
ATOM      8  C   UNL     1     -10.576  10.158  67.256  0.00  0.00    +0.209 C 
ATOM      9  O   UNL     1     -11.641  10.637  68.201  0.00  0.00    -0.218 OA
ENDROOT
BRANCH   1  10
ATOM     10  O   UNL     1      -9.971   9.122  69.412  0.00  0.00    -0.328 OA
BRANCH  10  13
ATOM     11  C   UNL     1     -10.955   6.076  70.978  0.00  0.00    +0.134 C 
ATOM     12  O   UNL     1     -10.037   7.205  70.587  0.00  0.00    -0.331 OA
ATOM     13  C   UNL     1     -11.030   8.231  70.069  0.00  0.00    +0.253 C 
ATOM     14  C   UNL     1     -11.014   9.228  71.490  0.00  0.00    +0.148 C 
ATOM     15  N   UNL     1      -9.564   8.902  71.966  0.00  0.00    -0.128 NA
ATOM     16  C   UNL     1     -11.666   8.050  72.397  0.00  0.00    +0.027 C 
ATOM     17  C   UNL     1     -12.189   7.003  71.523  0.00  0.00    +0.033 C 
BRANCH  11  18
ATOM     18  C   UNL     1     -10.200   5.932  72.518  0.00  0.00    +0.100 C 
ATOM     19  C   UNL     1      -8.993   5.024  71.904  0.00  0.00    +0.021 C 
BRANCH  18  21
ATOM     20  C   UNL     1     -10.824   4.344  73.906  0.00  0.00    +0.107 C 
ATOM     21  N   UNL     1     -10.995   4.675  72.996  0.00  0.00    -0.215 NA
ENDBRANCH  18  21
ENDBRANCH  11  18
ENDBRANCH  10  13
ENDBRANCH   1  10
BRANCH   7  22
ATOM     22  O   UNL     1      -9.496  12.209  67.362  0.00  0.00    -0.327 OA
BRANCH  22  23
ATOM     23  C   UNL     1     -10.202  13.468  67.493  0.00  0.00    +0.268 C 
ATOM     24  C   UNL     1      -8.944  14.373  68.271  0.00  0.00    +0.226 C 
ATOM     25  O   UNL     1      -7.980  14.423  67.135  0.00  0.00    -0.216 OA
ATOM     26  C   UNL     1      -9.625  15.934  68.087  0.00  0.00    +0.138 C 
ATOM     27  C   UNL     1      -9.437  16.133  66.487  0.00  0.00    +0.171 C 
ATOM     28  O   UNL     1     -10.067  17.382  66.328  0.00  0.00    -0.222 OA
ATOM     29  C   UNL     1      -8.013  16.598  66.225  0.00  0.00    +0.037 C 
ATOM     30  C   UNL     1      -9.997  15.058  65.774  0.00  0.00    +0.176 C 
ATOM     31  O   UNL     1      -9.786  13.806  66.051  0.00  0.00    -0.326 OA
BRANCH  26  32
ATOM     32  N   UNL     1     -11.124  15.485  68.010  0.00  0.00    -0.213 NA
ATOM     33  C   UNL     1     -11.848  16.003  69.090  0.00  0.00    +0.108 C 
ENDBRANCH  26  32
ENDBRANCH  22  23
ENDBRANCH   7  22
TORSDOF 7
ENDMDL
