MODEL 1
REMARK VINA RESULT:      -8.0      0.000      0.000
REMARK  Name = 
REMARK  12 active torsions:
REMARK  status: ('A' for Active; 'I' for Inactive)
REMARK    1  A    between atoms: C_2  and  C_3
REMARK    2  A    between atoms: C_3  and  C_4
REMARK    3  A    between atoms: C_4  and  C_5
REMARK    4  A    between atoms: C_5  and  O_7
REMARK    5  A    between atoms: O_7  and  C_8
REMARK    6  A    between atoms: C_8  and  C_9
REMARK    7  A    between atoms: C_9  and  C_11
REMARK    8  A    between atoms: C_22  and  O_23
REMARK    9  A    between atoms: O_23  and  C_24
REMARK   10  A    between atoms: C_26  and  N_27
REMARK   11  A    between atoms: C_28  and  C_30
REMARK   12  A    between atoms: C_43  and  O_44
REMARK                            x       y       z     vdW  Elec       q    Type
REMARK                         _______ _______ _______ _____ _____    ______ ____
ROOT
ATOM      1  C   UNL     1     -10.746   9.555  69.714  0.00  0.00    +0.188 C 
ATOM      2  C   UNL     1     -11.025  10.518  68.638  0.00  0.00    +0.072 C 
ATOM      3  C   UNL     1      -9.627  11.354  68.330  0.00  0.00    +0.146 C 
ATOM      4  C   UNL     1      -8.832  10.002  67.947  0.00  0.00    +0.043 A 
ATOM      5  C   UNL     1      -8.506   9.209  69.044  0.00  0.00    +0.021 A 
ATOM      6  C   UNL     1      -8.338   7.860  68.746  0.00  0.00    +0.195 A 
ATOM      7  C   UNL     1      -8.385   7.361  67.467  0.00  0.00    +0.084 A 
ATOM      8  C   UNL     1      -8.326   5.956  67.119  0.00  0.00    +0.199 C 
ATOM      9  O   UNL     1      -8.342   5.136  68.071  0.00  0.00    -0.286 OA
ATOM     10  C   UNL     1      -7.993   5.536  65.750  0.00  0.00    +0.045 A 
ATOM     11  C   UNL     1      -7.810   6.507  64.770  0.00  0.00    +0.076 A 
ATOM     12  C   UNL     1      -7.003   6.256  63.667  0.00  0.00    +0.142 A 
ATOM     13  C   UNL     1      -6.619   4.966  63.425  0.00  0.00    +0.037 A 
ATOM     14  C   UNL     1      -6.949   3.968  64.321  0.00  0.00    +0.003 A 
ATOM     15  C   UNL     1      -8.422   7.806  65.017  0.00  0.00    +0.202 C 
ATOM     16  O   UNL     1      -8.388   8.640  64.064  0.00  0.00    -0.286 OA
ATOM     17  C   UNL     1      -7.613   4.222  65.503  0.00  0.00    +0.003 A 
ATOM     18  C   UNL     1      -8.564   8.227  66.404  0.00  0.00    +0.084 A 
ATOM     19  O   UNL     1      -8.170   6.982  69.791  0.00  0.00    -0.287 OA
ATOM     20  C   UNL     1      -8.722   9.564  66.698  0.00  0.00    +0.197 A 
ATOM     21  O   UNL     1      -8.579  10.556  65.728  0.00  0.00    -0.287 OA
ATOM     22  C   UNL     1      -9.320   9.581  70.252  0.00  0.00    +0.067 C 
ATOM     23  O   UNL     1     -10.919   8.268  69.174  0.00  0.00    -0.218 OA
ENDROOT
BRANCH   1  24
ATOM     24  C   UNL     1     -11.611   9.568  70.909  0.00  0.00    +0.222 C 
ATOM     25  O   UNL     1     -11.318   9.115  71.988  0.00  0.00    -0.290 OA
BRANCH  24  26
ATOM     26  C   UNL     1     -12.883  10.346  70.708  0.00  0.00    +0.275 C 
BRANCH  26  27
ATOM     27  O   UNL     1     -13.193  11.178  71.792  0.00  0.00    -0.440 OA
BRANCH  27  28
ATOM     28  C   UNL     1     -12.953  12.552  71.694  0.00  0.00    +0.317 C 
ATOM     29  O   UNL     1     -12.389  13.010  70.653  0.00  0.00    -0.250 OA
BRANCH  28  30
ATOM     30  C   UNL     1     -13.806  13.556  72.402  0.00  0.00    +0.110 C 
BRANCH  30  31
ATOM     31  C   UNL     1     -13.343  14.915  71.956  0.00  0.00    +0.012 C 
BRANCH  31  33
ATOM     32  C   UNL     1     -12.528  15.701  73.920  0.00  0.00    +0.000 C 
ATOM     33  C   UNL     1     -13.377  15.826  73.159  0.00  0.00    +0.001 C 
ENDBRANCH  31  33
ENDBRANCH  30  31
ENDBRANCH  28  30
ENDBRANCH  27  28
ENDBRANCH  26  27
ENDBRANCH  24  26
ENDBRANCH   1  24
BRANCH  12  34
ATOM     34  O   UNL     1      -6.520   7.340  62.928  0.00  0.00    -0.471 OA
ATOM     35  C   UNL     1      -6.309   7.258  61.521  0.00  0.00    +0.252 C 
ENDBRANCH  12  34
BRANCH   3  36
ATOM     36  O   UNL     1     -10.045  11.696  66.907  0.00  0.00    -0.328 OA
BRANCH  36  37
ATOM     37  C   UNL     1      -9.878  13.227  67.047  0.00  0.00    +0.237 C 
ATOM     38  O   UNL     1     -11.348  13.430  67.148  0.00  0.00    -0.330 OA
ATOM     39  C   UNL     1     -12.171  12.817  66.087  0.00  0.00    +0.150 C 
ATOM     40  C   UNL     1     -11.154  12.157  64.980  0.00  0.00    +0.035 C 
ATOM     41  C   UNL     1     -12.344  14.355  65.338  0.00  0.00    +0.199 C 
ATOM     42  O   UNL     1     -12.421  13.812  63.937  0.00  0.00    -0.219 OA
ATOM     43  C   UNL     1     -10.728  14.868  65.136  0.00  0.00    +0.133 C 
ATOM     44  C   UNL     1      -9.830  13.581  65.447  0.00  0.00    +0.086 C 
BRANCH  43  45
ATOM     45  N   UNL     1     -10.607  15.549  66.562  0.00  0.00    -0.197 NA
ATOM     46  C   UNL     1      -9.773  16.706  66.425  0.00  0.00    +0.337 C 
ATOM     47  O   UNL     1      -8.859  16.728  65.544  0.00  0.00    -0.264 OA
BRANCH  46  48
ATOM     48  C   UNL     1     -10.146  18.048  66.947  0.00  0.00    +0.471 C 
ATOM     49  F   UNL     1     -10.860  18.794  66.014  0.00  0.00    -0.162 F 
ATOM     50  F   UNL     1      -9.023  18.788  67.218  0.00  0.00    -0.162 F 
ATOM     51  F   UNL     1     -10.879  18.000  68.098  0.00  0.00    -0.162 F 
ENDBRANCH  46  48
ENDBRANCH  43  45
ENDBRANCH  36  37
ENDBRANCH   3  36
TORSDOF 12
ENDMDL
MODEL 2
REMARK VINA RESULT:      -7.8      3.444      6.136
REMARK  Name = 
REMARK  12 active torsions:
REMARK  status: ('A' for Active; 'I' for Inactive)
REMARK    1  A    between atoms: C_2  and  C_3
REMARK    2  A    between atoms: C_3  and  C_4
REMARK    3  A    between atoms: C_4  and  C_5
REMARK    4  A    between atoms: C_5  and  O_7
REMARK    5  A    between atoms: O_7  and  C_8
REMARK    6  A    between atoms: C_8  and  C_9
REMARK    7  A    between atoms: C_9  and  C_11
REMARK    8  A    between atoms: C_22  and  O_23
REMARK    9  A    between atoms: O_23  and  C_24
REMARK   10  A    between atoms: C_26  and  N_27
REMARK   11  A    between atoms: C_28  and  C_30
REMARK   12  A    between atoms: C_43  and  O_44
REMARK                            x       y       z     vdW  Elec       q    Type
REMARK                         _______ _______ _______ _____ _____    ______ ____
ROOT
ATOM      1  C   UNL     1      -6.354  11.853  67.710  0.00  0.00    +0.188 C 
ATOM      2  C   UNL     1      -7.660  12.308  67.211  0.00  0.00    +0.072 C 
ATOM      3  C   UNL     1      -8.297  11.095  66.278  0.00  0.00    +0.146 C 
ATOM      4  C   UNL     1      -8.281  10.055  67.511  0.00  0.00    +0.043 A 
ATOM      5  C   UNL     1      -7.011   9.585  67.838  0.00  0.00    +0.021 A 
ATOM      6  C   UNL     1      -6.878   9.161  69.157  0.00  0.00    +0.195 A 
ATOM      7  C   UNL     1      -7.930   9.108  70.038  0.00  0.00    +0.084 A 
ATOM      8  C   UNL     1      -7.821   8.780  71.446  0.00  0.00    +0.199 C 
ATOM      9  O   UNL     1      -6.659   8.641  71.906  0.00  0.00    -0.286 OA
ATOM     10  C   UNL     1      -9.005   8.368  72.213  0.00  0.00    +0.045 A 
ATOM     11  C   UNL     1     -10.249   8.372  71.592  0.00  0.00    +0.076 A 
ATOM     12  C   UNL     1     -11.263   7.529  72.031  0.00  0.00    +0.142 A 
ATOM     13  C   UNL     1     -11.108   6.903  73.238  0.00  0.00    +0.037 A 
ATOM     14  C   UNL     1      -9.926   7.039  73.939  0.00  0.00    +0.003 A 
ATOM     15  C   UNL     1     -10.388   9.222  70.417  0.00  0.00    +0.202 C 
ATOM     16  O   UNL     1     -11.557   9.346  69.940  0.00  0.00    -0.286 OA
ATOM     17  C   UNL     1      -8.848   7.742  73.445  0.00  0.00    +0.003 A 
ATOM     18  C   UNL     1      -9.199   9.446  69.607  0.00  0.00    +0.084 A 
ATOM     19  O   UNL     1      -5.621   8.831  69.608  0.00  0.00    -0.287 OA
ATOM     20  C   UNL     1      -9.332   9.859  68.299  0.00  0.00    +0.197 A 
ATOM     21  O   UNL     1     -10.572   9.906  67.661  0.00  0.00    -0.287 OA
ATOM     22  C   UNL     1      -5.936  10.459  67.254  0.00  0.00    +0.067 C 
ATOM     23  O   UNL     1      -6.450  11.773  69.112  0.00  0.00    -0.218 OA
ENDROOT
BRANCH   1  24
ATOM     24  C   UNL     1      -5.175  12.708  67.474  0.00  0.00    +0.222 C 
ATOM     25  O   UNL     1      -4.310  12.494  66.662  0.00  0.00    -0.290 OA
BRANCH  24  26
ATOM     26  C   UNL     1      -5.212  13.992  68.257  0.00  0.00    +0.275 C 
BRANCH  26  27
ATOM     27  O   UNL     1      -5.255  15.130  67.442  0.00  0.00    -0.440 OA
BRANCH  27  28
ATOM     28  C   UNL     1      -6.309  16.037  67.584  0.00  0.00    +0.317 C 
ATOM     29  O   UNL     1      -7.280  15.746  68.347  0.00  0.00    -0.250 OA
BRANCH  28  30
ATOM     30  C   UNL     1      -6.115  17.509  67.401  0.00  0.00    +0.110 C 
BRANCH  30  31
ATOM     31  C   UNL     1      -6.365  17.807  65.948  0.00  0.00    +0.012 C 
BRANCH  31  33
ATOM     32  C   UNL     1      -6.913  19.938  66.494  0.00  0.00    +0.000 C 
ATOM     33  C   UNL     1      -7.247  19.029  65.878  0.00  0.00    +0.001 C 
ENDBRANCH  31  33
ENDBRANCH  30  31
ENDBRANCH  28  30
ENDBRANCH  27  28
ENDBRANCH  26  27
ENDBRANCH  24  26
ENDBRANCH   1  24
BRANCH  12  34
ATOM     34  O   UNL     1     -12.332   7.260  71.171  0.00  0.00    -0.471 OA
ATOM     35  C   UNL     1     -13.685   7.293  71.620  0.00  0.00    +0.252 C 
ENDBRANCH  12  34
BRANCH   3  36
ATOM     36  O   UNL     1      -9.728  11.566  66.492  0.00  0.00    -0.328 OA
BRANCH  36  37
ATOM     37  C   UNL     1      -9.403  13.078  66.533  0.00  0.00    +0.237 C 
ATOM     38  O   UNL     1     -10.569  13.357  67.413  0.00  0.00    -0.330 OA
ATOM     39  C   UNL     1     -11.875  12.840  66.958  0.00  0.00    +0.150 C 
ATOM     40  C   UNL     1     -11.663  12.177  65.472  0.00  0.00    +0.035 C 
ATOM     41  C   UNL     1     -12.313  14.418  66.435  0.00  0.00    +0.199 C 
ATOM     42  O   UNL     1     -13.169  13.946  65.292  0.00  0.00    -0.219 OA
ATOM     43  C   UNL     1     -11.027  14.850  65.398  0.00  0.00    +0.133 C 
ATOM     44  C   UNL     1     -10.197  13.502  65.163  0.00  0.00    +0.086 C 
BRANCH  43  45
ATOM     45  N   UNL     1     -10.110  15.456  66.539  0.00  0.00    -0.197 NA
ATOM     46  C   UNL     1     -10.176  16.885  66.441  0.00  0.00    +0.337 C 
ATOM     47  O   UNL     1     -10.367  17.433  65.313  0.00  0.00    -0.264 OA
BRANCH  46  48
ATOM     48  C   UNL     1     -10.450  17.771  67.603  0.00  0.00    +0.471 C 
ATOM     49  F   UNL     1     -11.318  17.181  68.519  0.00  0.00    -0.162 F 
ATOM     50  F   UNL     1     -11.082  18.918  67.195  0.00  0.00    -0.162 F 
ATOM     51  F   UNL     1      -9.325  18.153  68.275  0.00  0.00    -0.162 F 
ENDBRANCH  46  48
ENDBRANCH  43  45
ENDBRANCH  36  37
ENDBRANCH   3  36
TORSDOF 12
ENDMDL
MODEL 3
REMARK VINA RESULT:      -7.8      3.213      4.763
REMARK  Name = 
REMARK  12 active torsions:
REMARK  status: ('A' for Active; 'I' for Inactive)
REMARK    1  A    between atoms: C_2  and  C_3
REMARK    2  A    between atoms: C_3  and  C_4
REMARK    3  A    between atoms: C_4  and  C_5
REMARK    4  A    between atoms: C_5  and  O_7
REMARK    5  A    between atoms: O_7  and  C_8
REMARK    6  A    between atoms: C_8  and  C_9
REMARK    7  A    between atoms: C_9  and  C_11
REMARK    8  A    between atoms: C_22  and  O_23
REMARK    9  A    between atoms: O_23  and  C_24
REMARK   10  A    between atoms: C_26  and  N_27
REMARK   11  A    between atoms: C_28  and  C_30
REMARK   12  A    between atoms: C_43  and  O_44
REMARK                            x       y       z     vdW  Elec       q    Type
REMARK                         _______ _______ _______ _____ _____    ______ ____
ROOT
ATOM      1  C   UNL     1     -11.584   8.663  71.110  0.00  0.00    +0.188 C 
ATOM      2  C   UNL     1     -11.155   8.893  69.722  0.00  0.00    +0.072 C 
ATOM      3  C   UNL     1      -9.515   9.136  69.733  0.00  0.00    +0.146 C 
ATOM      4  C   UNL     1      -9.242   7.681  70.376  0.00  0.00    +0.043 A 
ATOM      5  C   UNL     1      -9.570   7.591  71.727  0.00  0.00    +0.021 A 
ATOM      6  C   UNL     1      -9.870   6.302  72.159  0.00  0.00    +0.195 A 
ATOM      7  C   UNL     1      -9.755   5.195  71.355  0.00  0.00    +0.084 A 
ATOM      8  C   UNL     1     -10.159   3.852  71.724  0.00  0.00    +0.199 C 
ATOM      9  O   UNL     1     -10.757   3.724  72.822  0.00  0.00    -0.286 OA
ATOM     10  C   UNL     1      -9.654   2.688  70.983  0.00  0.00    +0.045 A 
ATOM     11  C   UNL     1      -8.843   2.892  69.872  0.00  0.00    +0.076 A 
ATOM     12  C   UNL     1      -7.929   1.923  69.474  0.00  0.00    +0.142 A 
ATOM     13  C   UNL     1      -8.032   0.673  70.020  0.00  0.00    +0.037 A 
ATOM     14  C   UNL     1      -8.961   0.427  71.013  0.00  0.00    +0.003 A 
ATOM     15  C   UNL     1      -8.938   4.194  69.226  0.00  0.00    +0.202 C 
ATOM     16  O   UNL     1      -8.317   4.331  68.129  0.00  0.00    -0.286 OA
ATOM     17  C   UNL     1      -9.768   1.416  71.534  0.00  0.00    +0.003 A 
ATOM     18  C   UNL     1      -9.279   5.335  70.065  0.00  0.00    +0.084 A 
ATOM     19  O   UNL     1     -10.355   6.144  73.436  0.00  0.00    -0.287 OA
ATOM     20  C   UNL     1      -8.974   6.610  69.639  0.00  0.00    +0.197 A 
ATOM     21  O   UNL     1      -8.191   6.844  68.508  0.00  0.00    -0.287 OA
ATOM     22  C   UNL     1     -10.471   8.717  72.150  0.00  0.00    +0.067 C 
ATOM     23  O   UNL     1     -12.092   7.353  71.175  0.00  0.00    -0.218 OA
ENDROOT
BRANCH   1  24
ATOM     24  C   UNL     1     -12.668   9.501  71.658  0.00  0.00    +0.222 C 
ATOM     25  O   UNL     1     -13.433   9.170  72.529  0.00  0.00    -0.290 OA
BRANCH  24  26
ATOM     26  C   UNL     1     -12.654  10.907  71.124  0.00  0.00    +0.275 C 
BRANCH  26  27
ATOM     27  O   UNL     1     -13.286  11.823  71.974  0.00  0.00    -0.440 OA
BRANCH  27  28
ATOM     28  C   UNL     1     -13.173  13.192  71.715  0.00  0.00    +0.317 C 
ATOM     29  O   UNL     1     -12.476  13.581  70.728  0.00  0.00    -0.250 OA
BRANCH  28  30
ATOM     30  C   UNL     1     -14.240  14.163  72.111  0.00  0.00    +0.110 C 
BRANCH  30  31
ATOM     31  C   UNL     1     -13.549  15.445  72.483  0.00  0.00    +0.012 C 
BRANCH  31  33
ATOM     32  C   UNL     1     -12.422  16.112  74.334  0.00  0.00    +0.000 C 
ATOM     33  C   UNL     1     -12.756  15.188  73.741  0.00  0.00    +0.001 C 
ENDBRANCH  31  33
ENDBRANCH  30  31
ENDBRANCH  28  30
ENDBRANCH  27  28
ENDBRANCH  26  27
ENDBRANCH  24  26
ENDBRANCH   1  24
BRANCH  12  34
ATOM     34  O   UNL     1      -6.876   2.297  68.635  0.00  0.00    -0.471 OA
ATOM     35  C   UNL     1      -5.522   2.294  69.080  0.00  0.00    +0.252 C 
ENDBRANCH  12  34
BRANCH   3  36
ATOM     36  O   UNL     1      -9.355   8.697  68.285  0.00  0.00    -0.328 OA
BRANCH  36  37
ATOM     37  C   UNL     1     -10.225   9.819  67.672  0.00  0.00    +0.237 C 
ATOM     38  O   UNL     1     -10.281   9.128  66.356  0.00  0.00    -0.330 OA
ATOM     39  C   UNL     1      -8.988   8.720  65.771  0.00  0.00    +0.150 C 
ATOM     40  C   UNL     1      -7.795   9.290  66.744  0.00  0.00    +0.035 C 
ATOM     41  C   UNL     1      -9.055  10.061  64.697  0.00  0.00    +0.199 C 
ATOM     42  O   UNL     1      -7.565  10.257  64.636  0.00  0.00    -0.219 OA
ATOM     43  C   UNL     1      -9.266  11.388  65.751  0.00  0.00    +0.133 C 
ATOM     44  C   UNL     1      -9.001  10.812  67.220  0.00  0.00    +0.086 C 
BRANCH  43  45
ATOM     45  N   UNL     1     -10.848  11.303  65.784  0.00  0.00    -0.197 NA
ATOM     46  C   UNL     1     -11.357  12.643  65.829  0.00  0.00    +0.337 C 
ATOM     47  O   UNL     1     -10.680  13.559  66.388  0.00  0.00    -0.264 OA
BRANCH  46  48
ATOM     48  C   UNL     1     -12.422  13.142  64.919  0.00  0.00    +0.471 C 
ATOM     49  F   UNL     1     -13.303  14.004  65.565  0.00  0.00    -0.162 F 
ATOM     50  F   UNL     1     -13.198  12.104  64.469  0.00  0.00    -0.162 F 
ATOM     51  F   UNL     1     -11.938  13.784  63.815  0.00  0.00    -0.162 F 
ENDBRANCH  46  48
ENDBRANCH  43  45
ENDBRANCH  36  37
ENDBRANCH   3  36
TORSDOF 12
ENDMDL
MODEL 4
REMARK VINA RESULT:      -7.7      4.005      7.592
REMARK  Name = 
REMARK  12 active torsions:
REMARK  status: ('A' for Active; 'I' for Inactive)
REMARK    1  A    between atoms: C_2  and  C_3
REMARK    2  A    between atoms: C_3  and  C_4
REMARK    3  A    between atoms: C_4  and  C_5
REMARK    4  A    between atoms: C_5  and  O_7
REMARK    5  A    between atoms: O_7  and  C_8
REMARK    6  A    between atoms: C_8  and  C_9
REMARK    7  A    between atoms: C_9  and  C_11
REMARK    8  A    between atoms: C_22  and  O_23
REMARK    9  A    between atoms: O_23  and  C_24
REMARK   10  A    between atoms: C_26  and  N_27
REMARK   11  A    between atoms: C_28  and  C_30
REMARK   12  A    between atoms: C_43  and  O_44
REMARK                            x       y       z     vdW  Elec       q    Type
REMARK                         _______ _______ _______ _____ _____    ______ ____
ROOT
ATOM      1  C   UNL     1     -10.562  15.471  66.070  0.00  0.00    +0.188 C 
ATOM      2  C   UNL     1      -9.473  16.411  66.375  0.00  0.00    +0.072 C 
ATOM      3  C   UNL     1      -9.618  16.857  67.965  0.00  0.00    +0.146 C 
ATOM      4  C   UNL     1      -9.462  15.332  68.469  0.00  0.00    +0.043 A 
ATOM      5  C   UNL     1     -10.588  14.544  68.245  0.00  0.00    +0.021 A 
ATOM      6  C   UNL     1     -10.325  13.181  68.147  0.00  0.00    +0.195 A 
ATOM      7  C   UNL     1      -9.080  12.640  68.357  0.00  0.00    +0.084 A 
ATOM      8  C   UNL     1      -8.734  11.246  68.159  0.00  0.00    +0.199 C 
ATOM      9  O   UNL     1      -9.619  10.510  67.655  0.00  0.00    -0.286 OA
ATOM     10  C   UNL     1      -7.519  10.683  68.766  0.00  0.00    +0.045 A 
ATOM     11  C   UNL     1      -6.662  11.522  69.469  0.00  0.00    +0.076 A 
ATOM     12  C   UNL     1      -5.847  11.019  70.476  0.00  0.00    +0.142 A 
ATOM     13  C   UNL     1      -5.703   9.662  70.576  0.00  0.00    +0.037 A 
ATOM     14  C   UNL     1      -6.436   8.828  69.754  0.00  0.00    +0.003 A 
ATOM     15  C   UNL     1      -6.743  12.944  69.160  0.00  0.00    +0.202 C 
ATOM     16  O   UNL     1      -5.862  13.690  69.685  0.00  0.00    -0.286 OA
ATOM     17  C   UNL     1      -7.369   9.304  68.857  0.00  0.00    +0.003 A 
ATOM     18  C   UNL     1      -8.032  13.463  68.726  0.00  0.00    +0.084 A 
ATOM     19  O   UNL     1     -11.352  12.348  67.771  0.00  0.00    -0.287 OA
ATOM     20  C   UNL     1      -8.294  14.812  68.830  0.00  0.00    +0.197 A 
ATOM     21  O   UNL     1      -7.434  15.682  69.500  0.00  0.00    -0.287 OA
ATOM     22  C   UNL     1     -11.504  15.172  67.231  0.00  0.00    +0.067 C 
ATOM     23  O   UNL     1      -9.966  14.238  65.746  0.00  0.00    -0.218 OA
ENDROOT
BRANCH   1  24
ATOM     24  C   UNL     1     -11.441  15.762  64.922  0.00  0.00    +0.222 C 
ATOM     25  O   UNL     1     -11.308  16.686  64.158  0.00  0.00    -0.290 OA
BRANCH  24  26
ATOM     26  C   UNL     1     -12.474  14.695  64.684  0.00  0.00    +0.275 C 
BRANCH  26  27
ATOM     27  O   UNL     1     -12.260  13.980  63.499  0.00  0.00    -0.440 OA
BRANCH  27  28
ATOM     28  C   UNL     1     -12.162  12.586  63.546  0.00  0.00    +0.317 C 
ATOM     29  O   UNL     1     -13.189  11.883  63.294  0.00  0.00    -0.250 OA
BRANCH  28  30
ATOM     30  C   UNL     1     -10.873  11.874  63.283  0.00  0.00    +0.110 C 
BRANCH  30  31
ATOM     31  C   UNL     1     -10.562  11.063  64.510  0.00  0.00    +0.012 C 
BRANCH  31  33
ATOM     32  C   UNL     1      -9.223  10.001  63.020  0.00  0.00    +0.000 C 
ATOM     33  C   UNL     1      -9.573   9.994  64.112  0.00  0.00    +0.001 C 
ENDBRANCH  31  33
ENDBRANCH  30  31
ENDBRANCH  28  30
ENDBRANCH  27  28
ENDBRANCH  26  27
ENDBRANCH  24  26
ENDBRANCH   1  24
BRANCH  12  34
ATOM     34  O   UNL     1      -5.312  11.907  71.414  0.00  0.00    -0.471 OA
ATOM     35  C   UNL     1      -3.990  11.756  71.925  0.00  0.00    +0.252 C 
ENDBRANCH  12  34
BRANCH   3  36
ATOM     36  O   UNL     1      -8.144  17.212  68.088  0.00  0.00    -0.328 OA
BRANCH  36  37
ATOM     37  C   UNL     1      -7.989  17.783  66.659  0.00  0.00    +0.237 C 
ATOM     38  O   UNL     1      -6.506  17.685  66.726  0.00  0.00    -0.330 OA
ATOM     39  C   UNL     1      -5.857  18.302  67.899  0.00  0.00    +0.150 C 
ATOM     40  C   UNL     1      -7.020  19.063  68.773  0.00  0.00    +0.035 C 
ATOM     41  C   UNL     1      -5.394  19.646  66.932  0.00  0.00    +0.199 C 
ATOM     42  O   UNL     1      -5.471  20.648  68.051  0.00  0.00    -0.219 OA
ATOM     43  C   UNL     1      -6.875  20.164  66.259  0.00  0.00    +0.133 C 
ATOM     44  C   UNL     1      -8.010  19.372  67.063  0.00  0.00    +0.086 C 
BRANCH  43  45
ATOM     45  N   UNL     1      -6.812  19.204  64.999  0.00  0.00    -0.197 NA
ATOM     46  C   UNL     1      -6.190  19.926  63.929  0.00  0.00    +0.337 C 
ATOM     47  O   UNL     1      -6.316  21.187  63.860  0.00  0.00    -0.264 OA
BRANCH  46  48
ATOM     48  C   UNL     1      -5.067  19.381  63.121  0.00  0.00    +0.471 C 
ATOM     49  F   UNL     1      -4.025  20.294  62.988  0.00  0.00    -0.162 F 
ATOM     50  F   UNL     1      -5.481  19.117  61.839  0.00  0.00    -0.162 F 
ATOM     51  F   UNL     1      -4.550  18.220  63.620  0.00  0.00    -0.162 F 
ENDBRANCH  46  48
ENDBRANCH  43  45
ENDBRANCH  36  37
ENDBRANCH   3  36
TORSDOF 12
ENDMDL
MODEL 5
REMARK VINA RESULT:      -7.7      2.904      6.202
REMARK  Name = 
REMARK  12 active torsions:
REMARK  status: ('A' for Active; 'I' for Inactive)
REMARK    1  A    between atoms: C_2  and  C_3
REMARK    2  A    between atoms: C_3  and  C_4
REMARK    3  A    between atoms: C_4  and  C_5
REMARK    4  A    between atoms: C_5  and  O_7
REMARK    5  A    between atoms: O_7  and  C_8
REMARK    6  A    between atoms: C_8  and  C_9
REMARK    7  A    between atoms: C_9  and  C_11
REMARK    8  A    between atoms: C_22  and  O_23
REMARK    9  A    between atoms: O_23  and  C_24
REMARK   10  A    between atoms: C_26  and  N_27
REMARK   11  A    between atoms: C_28  and  C_30
REMARK   12  A    between atoms: C_43  and  O_44
REMARK                            x       y       z     vdW  Elec       q    Type
REMARK                         _______ _______ _______ _____ _____    ______ ____
ROOT
ATOM      1  C   UNL     1      -8.145  10.145  65.683  0.00  0.00    +0.188 C 
ATOM      2  C   UNL     1      -8.679  11.391  66.252  0.00  0.00    +0.072 C 
ATOM      3  C   UNL     1     -10.298  11.456  65.902  0.00  0.00    +0.146 C 
ATOM      4  C   UNL     1     -10.586  10.080  66.695  0.00  0.00    +0.043 A 
ATOM      5  C   UNL     1     -10.149   8.939  66.024  0.00  0.00    +0.021 A 
ATOM      6  C   UNL     1      -9.877   7.856  66.853  0.00  0.00    +0.195 A 
ATOM      7  C   UNL     1     -10.115   7.866  68.206  0.00  0.00    +0.084 A 
ATOM      8  C   UNL     1      -9.747   6.807  69.125  0.00  0.00    +0.199 C 
ATOM      9  O   UNL     1      -9.064   5.863  68.654  0.00  0.00    -0.286 OA
ATOM     10  C   UNL     1     -10.369   6.717  70.453  0.00  0.00    +0.045 A 
ATOM     11  C   UNL     1     -11.261   7.708  70.851  0.00  0.00    +0.076 A 
ATOM     12  C   UNL     1     -12.252   7.435  71.787  0.00  0.00    +0.142 A 
ATOM     13  C   UNL     1     -12.164   6.272  72.502  0.00  0.00    +0.037 A 
ATOM     14  C   UNL     1     -11.168   5.359  72.216  0.00  0.00    +0.003 A 
ATOM     15  C   UNL     1     -11.158   8.991  70.168  0.00  0.00    +0.202 C 
ATOM     16  O   UNL     1     -11.862   9.938  70.630  0.00  0.00    -0.286 OA
ATOM     17  C   UNL     1     -10.271   5.539  71.184  0.00  0.00    +0.003 A 
ATOM     18  C   UNL     1     -10.691   8.980  68.788  0.00  0.00    +0.084 A 
ATOM     19  O   UNL     1      -9.293   6.743  66.295  0.00  0.00    -0.287 OA
ATOM     20  C   UNL     1     -10.968  10.050  67.966  0.00  0.00    +0.197 A 
ATOM     21  O   UNL     1     -11.832  11.076  68.353  0.00  0.00    -0.287 OA
ATOM     22  C   UNL     1      -9.162   9.283  64.944  0.00  0.00    +0.067 C 
ATOM     23  O   UNL     1      -7.698   9.356  66.759  0.00  0.00    -0.218 OA
ENDROOT
BRANCH   1  24
ATOM     24  C   UNL     1      -6.979  10.227  64.784  0.00  0.00    +0.222 C 
ATOM     25  O   UNL     1      -7.028  10.406  63.592  0.00  0.00    -0.290 OA
BRANCH  24  26
ATOM     26  C   UNL     1      -5.666  10.212  65.517  0.00  0.00    +0.275 C 
BRANCH  26  27
ATOM     27  O   UNL     1      -5.143  11.494  65.731  0.00  0.00    -0.440 OA
BRANCH  27  28
ATOM     28  C   UNL     1      -5.134  12.025  67.025  0.00  0.00    +0.317 C 
ATOM     29  O   UNL     1      -5.741  13.117  67.251  0.00  0.00    -0.250 OA
BRANCH  28  30
ATOM     30  C   UNL     1      -4.997  11.157  68.235  0.00  0.00    +0.110 C 
BRANCH  30  31
ATOM     31  C   UNL     1      -6.220  11.385  69.079  0.00  0.00    +0.012 C 
BRANCH  31  33
ATOM     32  C   UNL     1      -7.512   9.935  70.249  0.00  0.00    +0.000 C 
ATOM     33  C   UNL     1      -6.435  10.148  69.916  0.00  0.00    +0.001 C 
ENDBRANCH  31  33
ENDBRANCH  30  31
ENDBRANCH  28  30
ENDBRANCH  27  28
ENDBRANCH  26  27
ENDBRANCH  24  26
ENDBRANCH   1  24
BRANCH  12  34
ATOM     34  O   UNL     1     -13.353   8.292  71.868  0.00  0.00    -0.471 OA
ATOM     35  C   UNL     1     -14.690   7.812  71.752  0.00  0.00    +0.252 C 
ENDBRANCH  12  34
BRANCH   3  36
ATOM     36  O   UNL     1     -10.602  12.376  67.075  0.00  0.00    -0.328 OA
BRANCH  36  37
ATOM     37  C   UNL     1      -9.465  13.386  66.795  0.00  0.00    +0.237 C 
ATOM     38  O   UNL     1      -9.437  13.827  68.215  0.00  0.00    -0.330 OA
ATOM     39  C   UNL     1     -10.728  14.232  68.805  0.00  0.00    +0.150 C 
ATOM     40  C   UNL     1     -11.858  14.189  67.616  0.00  0.00    +0.035 C 
ATOM     41  C   UNL     1     -10.285  15.884  68.629  0.00  0.00    +0.199 C 
ATOM     42  O   UNL     1     -11.690  16.375  68.408  0.00  0.00    -0.219 OA
ATOM     43  C   UNL     1      -9.897  16.004  66.971  0.00  0.00    +0.133 C 
ATOM     44  C   UNL     1     -10.409  14.637  66.313  0.00  0.00    +0.086 C 
BRANCH  43  45
ATOM     45  N   UNL     1      -8.377  15.589  67.142  0.00  0.00    -0.197 NA
ATOM     46  C   UNL     1      -7.571  16.678  66.672  0.00  0.00    +0.337 C 
ATOM     47  O   UNL     1      -8.005  17.435  65.751  0.00  0.00    -0.264 OA
BRANCH  46  48
ATOM     48  C   UNL     1      -6.442  17.252  67.450  0.00  0.00    +0.471 C 
ATOM     49  F   UNL     1      -5.269  16.520  67.291  0.00  0.00    -0.162 F 
ATOM     50  F   UNL     1      -6.713  17.210  68.795  0.00  0.00    -0.162 F 
ATOM     51  F   UNL     1      -6.172  18.554  67.139  0.00  0.00    -0.162 F 
ENDBRANCH  46  48
ENDBRANCH  43  45
ENDBRANCH  36  37
ENDBRANCH   3  36
TORSDOF 12
ENDMDL
MODEL 6
REMARK VINA RESULT:      -7.5      4.610      9.647
REMARK  Name = 
REMARK  12 active torsions:
REMARK  status: ('A' for Active; 'I' for Inactive)
REMARK    1  A    between atoms: C_2  and  C_3
REMARK    2  A    between atoms: C_3  and  C_4
REMARK    3  A    between atoms: C_4  and  C_5
REMARK    4  A    between atoms: C_5  and  O_7
REMARK    5  A    between atoms: O_7  and  C_8
REMARK    6  A    between atoms: C_8  and  C_9
REMARK    7  A    between atoms: C_9  and  C_11
REMARK    8  A    between atoms: C_22  and  O_23
REMARK    9  A    between atoms: O_23  and  C_24
REMARK   10  A    between atoms: C_26  and  N_27
REMARK   11  A    between atoms: C_28  and  C_30
REMARK   12  A    between atoms: C_43  and  O_44
REMARK                            x       y       z     vdW  Elec       q    Type
REMARK                         _______ _______ _______ _____ _____    ______ ____
ROOT
ATOM      1  C   UNL     1     -10.122  15.522  68.355  0.00  0.00    +0.188 C 
ATOM      2  C   UNL     1      -9.266  14.327  68.373  0.00  0.00    +0.072 C 
ATOM      3  C   UNL     1      -8.501  14.227  66.906  0.00  0.00    +0.146 C 
ATOM      4  C   UNL     1      -7.796  15.665  67.108  0.00  0.00    +0.043 A 
ATOM      5  C   UNL     1      -8.662  16.746  66.956  0.00  0.00    +0.021 A 
ATOM      6  C   UNL     1      -8.266  17.897  67.630  0.00  0.00    +0.195 A 
ATOM      7  C   UNL     1      -7.074  18.000  68.304  0.00  0.00    +0.084 A 
ATOM      8  C   UNL     1      -6.669  19.135  69.110  0.00  0.00    +0.199 C 
ATOM      9  O   UNL     1      -7.525  20.038  69.285  0.00  0.00    -0.286 OA
ATOM     10  C   UNL     1      -5.257  19.335  69.466  0.00  0.00    +0.045 A 
ATOM     11  C   UNL     1      -4.321  18.379  69.086  0.00  0.00    +0.076 A 
ATOM     12  C   UNL     1      -2.989  18.727  68.899  0.00  0.00    +0.142 A 
ATOM     13  C   UNL     1      -2.568  19.947  69.354  0.00  0.00    +0.037 A 
ATOM     14  C   UNL     1      -3.480  20.836  69.891  0.00  0.00    +0.003 A 
ATOM     15  C   UNL     1      -4.830  17.043  68.806  0.00  0.00    +0.202 C 
ATOM     16  O   UNL     1      -3.967  16.136  68.609  0.00  0.00    -0.286 OA
ATOM     17  C   UNL     1      -4.832  20.572  69.939  0.00  0.00    +0.003 A 
ATOM     18  C   UNL     1      -6.189  16.938  68.291  0.00  0.00    +0.084 A 
ATOM     19  O   UNL     1      -9.138  18.960  67.663  0.00  0.00    -0.287 OA
ATOM     20  C   UNL     1      -6.577  15.801  67.617  0.00  0.00    +0.197 A 
ATOM     21  O   UNL     1      -5.665  14.809  67.254  0.00  0.00    -0.287 OA
ATOM     22  C   UNL     1     -10.099  16.315  67.053  0.00  0.00    +0.067 C 
ATOM     23  O   UNL     1      -9.630  16.401  69.336  0.00  0.00    -0.218 OA
ENDROOT
BRANCH   1  24
ATOM     24  C   UNL     1     -11.551  15.367  68.689  0.00  0.00    +0.222 C 
ATOM     25  O   UNL     1     -12.282  16.254  69.054  0.00  0.00    -0.290 OA
BRANCH  24  26
ATOM     26  C   UNL     1     -12.081  13.992  68.390  0.00  0.00    +0.275 C 
BRANCH  26  27
ATOM     27  O   UNL     1     -12.428  13.819  67.044  0.00  0.00    -0.440 OA
BRANCH  27  28
ATOM     28  C   UNL     1     -11.926  12.719  66.341  0.00  0.00    +0.317 C 
ATOM     29  O   UNL     1     -11.832  11.598  66.928  0.00  0.00    -0.250 OA
BRANCH  28  30
ATOM     30  C   UNL     1     -12.054  12.606  64.855  0.00  0.00    +0.110 C 
BRANCH  30  31
ATOM     31  C   UNL     1     -10.659  12.602  64.294  0.00  0.00    +0.012 C 
BRANCH  31  33
ATOM     32  C   UNL     1      -9.819  10.530  63.919  0.00  0.00    +0.000 C 
ATOM     33  C   UNL     1     -10.498  11.343  63.478  0.00  0.00    +0.001 C 
ENDBRANCH  31  33
ENDBRANCH  30  31
ENDBRANCH  28  30
ENDBRANCH  27  28
ENDBRANCH  26  27
ENDBRANCH  24  26
ENDBRANCH   1  24
BRANCH  12  34
ATOM     34  O   UNL     1      -2.171  17.877  68.150  0.00  0.00    -0.471 OA
ATOM     35  C   UNL     1      -1.938  18.089  66.760  0.00  0.00    +0.252 C 
ENDBRANCH  12  34
BRANCH   3  36
ATOM     36  O   UNL     1      -7.347  13.409  67.466  0.00  0.00    -0.328 OA
BRANCH  36  37
ATOM     37  C   UNL     1      -8.214  12.481  68.350  0.00  0.00    +0.237 C 
ATOM     38  O   UNL     1      -7.017  11.955  69.059  0.00  0.00    -0.330 OA
ATOM     39  C   UNL     1      -5.921  11.445  68.213  0.00  0.00    +0.150 C 
ATOM     40  C   UNL     1      -6.425  11.501  66.651  0.00  0.00    +0.035 C 
ATOM     41  C   UNL     1      -6.418   9.833  68.547  0.00  0.00    +0.199 C 
ATOM     42  O   UNL     1      -5.986   9.282  67.215  0.00  0.00    -0.219 OA
ATOM     43  C   UNL     1      -8.066   9.838  68.100  0.00  0.00    +0.133 C 
ATOM     44  C   UNL     1      -8.290  11.214  67.313  0.00  0.00    +0.086 C 
BRANCH  43  45
ATOM     45  N   UNL     1      -8.603  10.322  69.510  0.00  0.00    -0.197 NA
ATOM     46  C   UNL     1      -9.807   9.598  69.792  0.00  0.00    +0.337 C 
ATOM     47  O   UNL     1     -10.552   9.213  68.839  0.00  0.00    -0.264 OA
BRANCH  46  48
ATOM     48  C   UNL     1     -10.056   8.899  71.080  0.00  0.00    +0.471 C 
ATOM     49  F   UNL     1     -10.503   7.594  70.891  0.00  0.00    -0.162 F 
ATOM     50  F   UNL     1     -11.057   9.524  71.782  0.00  0.00    -0.162 F 
ATOM     51  F   UNL     1      -8.963   8.857  71.897  0.00  0.00    -0.162 F 
ENDBRANCH  46  48
ENDBRANCH  43  45
ENDBRANCH  36  37
ENDBRANCH   3  36
TORSDOF 12
ENDMDL
MODEL 7
REMARK VINA RESULT:      -7.5      2.921      4.549
REMARK  Name = 
REMARK  12 active torsions:
REMARK  status: ('A' for Active; 'I' for Inactive)
REMARK    1  A    between atoms: C_2  and  C_3
REMARK    2  A    between atoms: C_3  and  C_4
REMARK    3  A    between atoms: C_4  and  C_5
REMARK    4  A    between atoms: C_5  and  O_7
REMARK    5  A    between atoms: O_7  and  C_8
REMARK    6  A    between atoms: C_8  and  C_9
REMARK    7  A    between atoms: C_9  and  C_11
REMARK    8  A    between atoms: C_22  and  O_23
REMARK    9  A    between atoms: O_23  and  C_24
REMARK   10  A    between atoms: C_26  and  N_27
REMARK   11  A    between atoms: C_28  and  C_30
REMARK   12  A    between atoms: C_43  and  O_44
REMARK                            x       y       z     vdW  Elec       q    Type
REMARK                         _______ _______ _______ _____ _____    ______ ____
ROOT
ATOM      1  C   UNL     1     -10.245  12.530  66.423  0.00  0.00    +0.188 C 
ATOM      2  C   UNL     1      -9.259  13.560  66.781  0.00  0.00    +0.072 C 
ATOM      3  C   UNL     1      -8.454  13.044  68.135  0.00  0.00    +0.146 C 
ATOM      4  C   UNL     1      -7.922  11.716  67.387  0.00  0.00    +0.043 A 
ATOM      5  C   UNL     1      -8.902  10.744  67.195  0.00  0.00    +0.021 A 
ATOM      6  C   UNL     1      -8.656   9.884  66.129  0.00  0.00    +0.195 A 
ATOM      7  C   UNL     1      -7.499   9.917  65.389  0.00  0.00    +0.084 A 
ATOM      8  C   UNL     1      -7.245   9.119  64.206  0.00  0.00    +0.199 C 
ATOM      9  O   UNL     1      -8.202   8.430  63.773  0.00  0.00    -0.286 OA
ATOM     10  C   UNL     1      -5.873   8.925  63.714  0.00  0.00    +0.045 A 
ATOM     11  C   UNL     1      -4.826   9.581  64.352  0.00  0.00    +0.076 A 
ATOM     12  C   UNL     1      -3.538   9.060  64.317  0.00  0.00    +0.142 A 
ATOM     13  C   UNL     1      -3.270   8.054  63.429  0.00  0.00    +0.037 A 
ATOM     14  C   UNL     1      -4.289   7.516  62.668  0.00  0.00    +0.003 A 
ATOM     15  C   UNL     1      -5.173  10.767  65.125  0.00  0.00    +0.202 C 
ATOM     16  O   UNL     1      -4.208  11.451  65.580  0.00  0.00    -0.286 OA
ATOM     17  C   UNL     1      -5.603   7.910  62.804  0.00  0.00    +0.003 A 
ATOM     18  C   UNL     1      -6.498  10.809  65.727  0.00  0.00    +0.084 A 
ATOM     19  O   UNL     1      -9.643   8.997  65.771  0.00  0.00    -0.287 OA
ATOM     20  C   UNL     1      -6.739  11.656  66.787  0.00  0.00    +0.197 A 
ATOM     21  O   UNL     1      -5.711  12.353  67.424  0.00  0.00    -0.287 OA
ATOM     22  C   UNL     1     -10.282  11.319  67.350  0.00  0.00    +0.067 C 
ATOM     23  O   UNL     1      -9.879  12.024  65.163  0.00  0.00    -0.218 OA
ENDROOT
BRANCH   1  24
ATOM     24  C   UNL     1     -11.654  12.934  66.257  0.00  0.00    +0.222 C 
ATOM     25  O   UNL     1     -12.499  12.298  65.678  0.00  0.00    -0.290 OA
BRANCH  24  26
ATOM     26  C   UNL     1     -12.003  14.183  67.019  0.00  0.00    +0.275 C 
BRANCH  26  27
ATOM     27  O   UNL     1     -12.161  13.961  68.393  0.00  0.00    -0.440 OA
BRANCH  27  28
ATOM     28  C   UNL     1     -12.021  15.032  69.282  0.00  0.00    +0.317 C 
ATOM     29  O   UNL     1     -11.856  16.203  68.822  0.00  0.00    -0.250 OA
BRANCH  28  30
ATOM     30  C   UNL     1     -12.629  15.008  70.649  0.00  0.00    +0.110 C 
BRANCH  30  31
ATOM     31  C   UNL     1     -11.865  15.998  71.485  0.00  0.00    +0.012 C 
BRANCH  31  33
ATOM     32  C   UNL     1     -13.120  15.803  73.363  0.00  0.00    +0.000 C 
ATOM     33  C   UNL     1     -12.071  15.628  72.933  0.00  0.00    +0.001 C 
ENDBRANCH  31  33
ENDBRANCH  30  31
ENDBRANCH  28  30
ENDBRANCH  27  28
ENDBRANCH  26  27
ENDBRANCH  24  26
ENDBRANCH   1  24
BRANCH  12  34
ATOM     34  O   UNL     1      -2.611   9.496  65.269  0.00  0.00    -0.471 OA
ATOM     35  C   UNL     1      -2.115   8.630  66.287  0.00  0.00    +0.252 C 
ENDBRANCH  12  34
BRANCH   3  36
ATOM     36  O   UNL     1      -7.228  13.892  67.834  0.00  0.00    -0.328 OA
BRANCH  36  37
ATOM     37  C   UNL     1      -8.001  15.186  67.484  0.00  0.00    +0.237 C 
ATOM     38  O   UNL     1      -6.789  15.811  66.892  0.00  0.00    -0.330 OA
ATOM     39  C   UNL     1      -5.574  15.817  67.730  0.00  0.00    +0.150 C 
ATOM     40  C   UNL     1      -5.975  15.205  69.200  0.00  0.00    +0.035 C 
ATOM     41  C   UNL     1      -5.842  17.474  68.100  0.00  0.00    +0.199 C 
ATOM     42  O   UNL     1      -5.244  17.401  69.479  0.00  0.00    -0.219 OA
ATOM     43  C   UNL     1      -7.439  17.479  68.707  0.00  0.00    +0.133 C 
ATOM     44  C   UNL     1      -7.815  15.939  68.929  0.00  0.00    +0.086 C 
BRANCH  43  45
ATOM     45  N   UNL     1      -8.135  17.656  67.295  0.00  0.00    -0.197 NA
ATOM     46  C   UNL     1      -9.208  18.594  67.450  0.00  0.00    +0.337 C 
ATOM     47  O   UNL     1      -9.815  18.683  68.562  0.00  0.00    -0.264 OA
BRANCH  46  48
ATOM     48  C   UNL     1      -9.406  19.763  66.553  0.00  0.00    +0.471 C 
ATOM     49  F   UNL     1      -8.287  20.016  65.766  0.00  0.00    -0.162 F 
ATOM     50  F   UNL     1      -9.596  20.907  67.288  0.00  0.00    -0.162 F 
ATOM     51  F   UNL     1     -10.485  19.639  65.726  0.00  0.00    -0.162 F 
ENDBRANCH  46  48
ENDBRANCH  43  45
ENDBRANCH  36  37
ENDBRANCH   3  36
TORSDOF 12
ENDMDL
MODEL 8
REMARK VINA RESULT:      -7.5      2.982      7.244
REMARK  Name = 
REMARK  12 active torsions:
REMARK  status: ('A' for Active; 'I' for Inactive)
REMARK    1  A    between atoms: C_2  and  C_3
REMARK    2  A    between atoms: C_3  and  C_4
REMARK    3  A    between atoms: C_4  and  C_5
REMARK    4  A    between atoms: C_5  and  O_7
REMARK    5  A    between atoms: O_7  and  C_8
REMARK    6  A    between atoms: C_8  and  C_9
REMARK    7  A    between atoms: C_9  and  C_11
REMARK    8  A    between atoms: C_22  and  O_23
REMARK    9  A    between atoms: O_23  and  C_24
REMARK   10  A    between atoms: C_26  and  N_27
REMARK   11  A    between atoms: C_28  and  C_30
REMARK   12  A    between atoms: C_43  and  O_44
REMARK                            x       y       z     vdW  Elec       q    Type
REMARK                         _______ _______ _______ _____ _____    ______ ____
ROOT
ATOM      1  C   UNL     1      -8.029  10.281  65.651  0.00  0.00    +0.188 C 
ATOM      2  C   UNL     1      -8.608  11.507  66.221  0.00  0.00    +0.072 C 
ATOM      3  C   UNL     1     -10.221  11.531  65.840  0.00  0.00    +0.146 C 
ATOM      4  C   UNL     1     -10.487  10.140  66.613  0.00  0.00    +0.043 A 
ATOM      5  C   UNL     1     -10.006   9.019  65.940  0.00  0.00    +0.021 A 
ATOM      6  C   UNL     1      -9.721   7.934  66.764  0.00  0.00    +0.195 A 
ATOM      7  C   UNL     1      -9.985   7.924  68.112  0.00  0.00    +0.084 A 
ATOM      8  C   UNL     1      -9.606   6.866  69.027  0.00  0.00    +0.199 C 
ATOM      9  O   UNL     1      -8.889   5.945  68.560  0.00  0.00    -0.286 OA
ATOM     10  C   UNL     1     -10.251   6.746  70.342  0.00  0.00    +0.045 A 
ATOM     11  C   UNL     1     -11.177   7.708  70.732  0.00  0.00    +0.076 A 
ATOM     12  C   UNL     1     -12.178   7.399  71.646  0.00  0.00    +0.142 A 
ATOM     13  C   UNL     1     -12.073   6.231  72.351  0.00  0.00    +0.037 A 
ATOM     14  C   UNL     1     -11.046   5.348  72.076  0.00  0.00    +0.003 A 
ATOM     15  C   UNL     1     -11.095   9.000  70.064  0.00  0.00    +0.202 C 
ATOM     16  O   UNL     1     -11.834   9.923  70.521  0.00  0.00    -0.286 OA
ATOM     17  C   UNL     1     -10.136   5.563  71.063  0.00  0.00    +0.003 A 
ATOM     18  C   UNL     1     -10.602   9.016  68.694  0.00  0.00    +0.084 A 
ATOM     19  O   UNL     1      -9.097   6.843  66.206  0.00  0.00    -0.287 OA
ATOM     20  C   UNL     1     -10.892  10.087  67.877  0.00  0.00    +0.197 A 
ATOM     21  O   UNL     1     -11.791  11.085  68.257  0.00  0.00    -0.287 OA
ATOM     22  C   UNL     1      -9.008   9.399  64.883  0.00  0.00    +0.067 C 
ATOM     23  O   UNL     1      -7.582   9.493  66.727  0.00  0.00    -0.218 OA
ENDROOT
BRANCH   1  24
ATOM     24  C   UNL     1      -6.849  10.404  64.775  0.00  0.00    +0.222 C 
ATOM     25  O   UNL     1      -5.755  10.773  65.125  0.00  0.00    -0.290 OA
BRANCH  24  26
ATOM     26  C   UNL     1      -7.087   9.876  63.386  0.00  0.00    +0.275 C 
BRANCH  26  27
ATOM     27  O   UNL     1      -6.031  10.149  62.507  0.00  0.00    -0.440 OA
BRANCH  27  28
ATOM     28  C   UNL     1      -6.181  11.152  61.544  0.00  0.00    +0.317 C 
ATOM     29  O   UNL     1      -7.332  11.644  61.334  0.00  0.00    -0.250 OA
BRANCH  28  30
ATOM     30  C   UNL     1      -5.062  12.078  61.185  0.00  0.00    +0.110 C 
BRANCH  30  31
ATOM     31  C   UNL     1      -5.528  12.894  60.012  0.00  0.00    +0.012 C 
BRANCH  31  33
ATOM     32  C   UNL     1      -5.239  15.082  59.489  0.00  0.00    +0.000 C 
ATOM     33  C   UNL     1      -4.751  14.188  60.018  0.00  0.00    +0.001 C 
ENDBRANCH  31  33
ENDBRANCH  30  31
ENDBRANCH  28  30
ENDBRANCH  27  28
ENDBRANCH  26  27
ENDBRANCH  24  26
ENDBRANCH   1  24
BRANCH  12  34
ATOM     34  O   UNL     1     -13.303   8.225  71.714  0.00  0.00    -0.471 OA
ATOM     35  C   UNL     1     -14.625   7.694  71.757  0.00  0.00    +0.252 C 
ENDBRANCH  12  34
BRANCH   3  36
ATOM     36  O   UNL     1     -10.572  12.431  67.016  0.00  0.00    -0.328 OA
BRANCH  36  37
ATOM     37  C   UNL     1      -9.483  13.495  66.744  0.00  0.00    +0.237 C 
ATOM     38  O   UNL     1      -9.416  13.868  68.182  0.00  0.00    -0.330 OA
ATOM     39  C   UNL     1     -10.697  14.195  68.838  0.00  0.00    +0.150 C 
ATOM     40  C   UNL     1     -11.870  14.168  67.691  0.00  0.00    +0.035 C 
ATOM     41  C   UNL     1     -10.321  15.869  68.728  0.00  0.00    +0.199 C 
ATOM     42  O   UNL     1     -11.749  16.317  68.583  0.00  0.00    -0.219 OA
ATOM     43  C   UNL     1     -10.001  16.083  67.064  0.00  0.00    +0.133 C 
ATOM     44  C   UNL     1     -10.489  14.732  66.360  0.00  0.00    +0.086 C 
BRANCH  43  45
ATOM     45  N   UNL     1      -8.462  15.718  67.159  0.00  0.00    -0.197 NA
ATOM     46  C   UNL     1      -7.719  16.804  66.589  0.00  0.00    +0.337 C 
ATOM     47  O   UNL     1      -8.231  17.504  65.663  0.00  0.00    -0.264 OA
BRANCH  46  48
ATOM     48  C   UNL     1      -6.561  17.445  67.267  0.00  0.00    +0.471 C 
ATOM     49  F   UNL     1      -6.260  18.691  66.725  0.00  0.00    -0.162 F 
ATOM     50  F   UNL     1      -5.426  16.693  67.096  0.00  0.00    -0.162 F 
ATOM     51  F   UNL     1      -6.736  17.601  68.612  0.00  0.00    -0.162 F 
ENDBRANCH  46  48
ENDBRANCH  43  45
ENDBRANCH  36  37
ENDBRANCH   3  36
TORSDOF 12
ENDMDL
MODEL 9
REMARK VINA RESULT:      -7.5      2.676      7.043
REMARK  Name = 
REMARK  12 active torsions:
REMARK  status: ('A' for Active; 'I' for Inactive)
REMARK    1  A    between atoms: C_2  and  C_3
REMARK    2  A    between atoms: C_3  and  C_4
REMARK    3  A    between atoms: C_4  and  C_5
REMARK    4  A    between atoms: C_5  and  O_7
REMARK    5  A    between atoms: O_7  and  C_8
REMARK    6  A    between atoms: C_8  and  C_9
REMARK    7  A    between atoms: C_9  and  C_11
REMARK    8  A    between atoms: C_22  and  O_23
REMARK    9  A    between atoms: O_23  and  C_24
REMARK   10  A    between atoms: C_26  and  N_27
REMARK   11  A    between atoms: C_28  and  C_30
REMARK   12  A    between atoms: C_43  and  O_44
REMARK                            x       y       z     vdW  Elec       q    Type
REMARK                         _______ _______ _______ _____ _____    ______ ____
ROOT
ATOM      1  C   UNL     1      -7.956  10.322  65.873  0.00  0.00    +0.188 C 
ATOM      2  C   UNL     1      -8.572  11.523  66.457  0.00  0.00    +0.072 C 
ATOM      3  C   UNL     1     -10.177  11.523  66.042  0.00  0.00    +0.146 C 
ATOM      4  C   UNL     1     -10.430  10.111  66.780  0.00  0.00    +0.043 A 
ATOM      5  C   UNL     1      -9.913   9.014  66.094  0.00  0.00    +0.021 A 
ATOM      6  C   UNL     1      -9.623   7.918  66.900  0.00  0.00    +0.195 A 
ATOM      7  C   UNL     1      -9.914   7.874  68.242  0.00  0.00    +0.084 A 
ATOM      8  C   UNL     1      -9.533   6.804  69.142  0.00  0.00    +0.199 C 
ATOM      9  O   UNL     1      -8.788   5.908  68.672  0.00  0.00    -0.286 OA
ATOM     10  C   UNL     1     -10.203   6.643  70.440  0.00  0.00    +0.045 A 
ATOM     11  C   UNL     1     -11.157   7.577  70.831  0.00  0.00    +0.076 A 
ATOM     12  C   UNL     1     -12.170   7.229  71.716  0.00  0.00    +0.142 A 
ATOM     13  C   UNL     1     -12.056   6.048  72.399  0.00  0.00    +0.037 A 
ATOM     14  C   UNL     1     -11.006   5.193  72.127  0.00  0.00    +0.003 A 
ATOM     15  C   UNL     1     -11.088   8.885  70.192  0.00  0.00    +0.202 C 
ATOM     16  O   UNL     1     -11.855   9.783  70.653  0.00  0.00    -0.286 OA
ATOM     17  C   UNL     1     -10.079   5.447  71.139  0.00  0.00    +0.003 A 
ATOM     18  C   UNL     1     -10.566   8.940  68.833  0.00  0.00    +0.084 A 
ATOM     19  O   UNL     1      -8.964   6.852  66.333  0.00  0.00    -0.287 OA
ATOM     20  C   UNL     1     -10.861  10.023  68.033  0.00  0.00    +0.197 A 
ATOM     21  O   UNL     1     -11.788  10.994  68.414  0.00  0.00    -0.287 OA
ATOM     22  C   UNL     1      -8.901   9.437  65.067  0.00  0.00    +0.067 C 
ATOM     23  O   UNL     1      -7.516   9.520  66.942  0.00  0.00    -0.218 OA
ENDROOT
BRANCH   1  24
ATOM     24  C   UNL     1      -6.761  10.487  65.026  0.00  0.00    +0.222 C 
ATOM     25  O   UNL     1      -5.789  11.143  65.309  0.00  0.00    -0.290 OA
BRANCH  24  26
ATOM     26  C   UNL     1      -6.787   9.625  63.793  0.00  0.00    +0.275 C 
BRANCH  26  27
ATOM     27  O   UNL     1      -6.374  10.304  62.640  0.00  0.00    -0.440 OA
BRANCH  27  28
ATOM     28  C   UNL     1      -7.315  11.008  61.882  0.00  0.00    +0.317 C 
ATOM     29  O   UNL     1      -6.914  11.796  60.972  0.00  0.00    -0.250 OA
BRANCH  28  30
ATOM     30  C   UNL     1      -8.696  10.482  61.650  0.00  0.00    +0.110 C 
BRANCH  30  31
ATOM     31  C   UNL     1      -8.582   9.393  60.620  0.00  0.00    +0.012 C 
BRANCH  31  33
ATOM     32  C   UNL     1      -8.316   7.275  61.385  0.00  0.00    +0.000 C 
ATOM     33  C   UNL     1      -9.085   8.116  61.248  0.00  0.00    +0.001 C 
ENDBRANCH  31  33
ENDBRANCH  30  31
ENDBRANCH  28  30
ENDBRANCH  27  28
ENDBRANCH  26  27
ENDBRANCH  24  26
ENDBRANCH   1  24
BRANCH  12  34
ATOM     34  O   UNL     1     -13.313   8.031  71.778  0.00  0.00    -0.471 OA
ATOM     35  C   UNL     1     -14.621   7.490  71.606  0.00  0.00    +0.252 C 
ENDBRANCH  12  34
BRANCH   3  36
ATOM     36  O   UNL     1     -10.571  12.390  67.228  0.00  0.00    -0.328 OA
BRANCH  36  37
ATOM     37  C   UNL     1      -9.527  13.503  66.977  0.00  0.00    +0.237 C 
ATOM     38  O   UNL     1      -9.518  13.890  68.414  0.00  0.00    -0.330 OA
ATOM     39  C   UNL     1     -10.831  14.161  69.031  0.00  0.00    +0.150 C 
ATOM     40  C   UNL     1     -11.969  14.068  67.851  0.00  0.00    +0.035 C 
ATOM     41  C   UNL     1     -10.532  15.850  68.916  0.00  0.00    +0.199 C 
ATOM     42  O   UNL     1     -11.976  16.228  68.727  0.00  0.00    -0.219 OA
ATOM     43  C   UNL     1     -10.176  16.066  67.260  0.00  0.00    +0.133 C 
ATOM     44  C   UNL     1     -10.579  14.687  66.554  0.00  0.00    +0.086 C 
BRANCH  43  45
ATOM     45  N   UNL     1      -8.625  15.776  67.401  0.00  0.00    -0.197 NA
ATOM     46  C   UNL     1      -7.919  16.875  66.812  0.00  0.00    +0.337 C 
ATOM     47  O   UNL     1      -8.440  17.521  65.851  0.00  0.00    -0.264 OA
BRANCH  46  48
ATOM     48  C   UNL     1      -6.808  17.591  67.493  0.00  0.00    +0.471 C 
ATOM     49  F   UNL     1      -5.731  16.752  67.764  0.00  0.00    -0.162 F 
ATOM     50  F   UNL     1      -7.217  18.060  68.717  0.00  0.00    -0.162 F 
ATOM     51  F   UNL     1      -6.340  18.665  66.792  0.00  0.00    -0.162 F 
ENDBRANCH  46  48
ENDBRANCH  43  45
ENDBRANCH  36  37
ENDBRANCH   3  36
TORSDOF 12
ENDMDL
