MODEL 1
REMARK VINA RESULT:      -5.7      0.000      0.000
REMARK  Name = 
REMARK  12 active torsions:
REMARK  status: ('A' for Active; 'I' for Inactive)
REMARK    1  A    between atoms: C_2  and  C_3
REMARK    2  A    between atoms: N_5  and  C_6
REMARK    3  A    between atoms: N_5  and  C_9
REMARK    4  A    between atoms: C_6  and  C_7
REMARK    5  A    between atoms: C_12  and  C_13
REMARK    6  A    between atoms: N_15  and  C_16
REMARK    7  A    between atoms: C_16  and  C_17
REMARK    8  A    between atoms: C_17  and  C_19
REMARK    9  A    between atoms: C_23  and  C_24
REMARK   10  A    between atoms: N_26  and  C_27
REMARK   11  A    between atoms: C_27  and  C_28
REMARK   12  A    between atoms: C_28  and  C_30
REMARK                            x       y       z     vdW  Elec       q    Type
REMARK                         _______ _______ _______ _____ _____    ______ ____
ROOT
ATOM      1  C   UNL     1      -6.352  15.652  68.466  0.00  0.00    +0.065 A 
ATOM      2  C   UNL     1      -5.904  16.964  68.539  0.00  0.00    +0.049 A 
ATOM      3  I   UNL     1      -3.906  17.319  69.077  0.00  0.00    -0.041 I 
ATOM      4  C   UNL     1      -6.742  18.035  68.385  0.00  0.00    +0.067 A 
ATOM      5  C   UNL     1      -8.107  17.795  68.445  0.00  0.00    +0.040 A 
ATOM      6  I   UNL     1      -9.468  19.382  68.592  0.00  0.00    -0.042 I 
ATOM      7  C   UNL     1      -8.562  16.565  68.006  0.00  0.00    +0.067 A 
ATOM      8  C   UNL     1      -7.670  15.519  68.045  0.00  0.00    +0.049 A 
ATOM      9  I   UNL     1      -8.327  13.556  67.673  0.00  0.00    -0.041 I 
ENDROOT
BRANCH   1  12
ATOM     10  O   UNL     1      -6.376  14.441  70.772  0.00  0.00    -0.272 OA
ATOM     11  C   UNL     1      -5.849  14.299  70.503  0.00  0.00    +0.263 C 
ATOM     12  N   UNL     1      -5.679  14.564  69.104  0.00  0.00    -0.253 N 
BRANCH  11  13
ATOM     13  C   UNL     1      -4.768  13.691  71.347  0.00  0.00    +0.267 C 
ATOM     14  O   UNL     1      -5.253  12.957  72.399  0.00  0.00    -0.210 OA
ENDBRANCH  11  13
BRANCH  12  15
ATOM     15  C   UNL     1      -4.537  13.949  68.474  0.00  0.00    +0.134 C 
BRANCH  15  16
ATOM     16  C   UNL     1      -4.938  12.622  67.925  0.00  0.00    +0.204 C 
ATOM     17  O   UNL     1      -4.388  12.473  66.665  0.00  0.00    -0.218 OA
ENDBRANCH  15  16
ENDBRANCH  12  15
ENDBRANCH   1  12
BRANCH   4  18
ATOM     18  C   UNL     1      -6.314  19.435  68.467  0.00  0.00    +0.266 C 
ATOM     19  N   UNL     1      -6.109  20.099  69.712  0.00  0.00    -0.199 NA
ATOM     20  O   UNL     1      -5.619  19.849  67.491  0.00  0.00    -0.268 OA
BRANCH  19  21
ATOM     21  C   UNL     1      -4.937  20.880  70.031  0.00  0.00    +0.151 C 
BRANCH  21  22
ATOM     22  C   UNL     1      -4.725  20.678  71.654  0.00  0.00    +0.206 C 
ATOM     23  O   UNL     1      -4.574  22.172  71.876  0.00  0.00    -0.218 OA
BRANCH  22  24
ATOM     24  C   UNL     1      -3.096  20.486  71.472  0.00  0.00    +0.217 C 
ATOM     25  O   UNL     1      -2.705  20.211  72.781  0.00  0.00    -0.218 OA
ENDBRANCH  22  24
ENDBRANCH  21  22
ENDBRANCH  19  21
ENDBRANCH   4  18
BRANCH   7  26
ATOM     26  C   UNL     1      -9.991  16.306  68.226  0.00  0.00    +0.266 C 
ATOM     27  N   UNL     1     -10.533  15.944  69.476  0.00  0.00    -0.199 NA
ATOM     28  O   UNL     1     -10.780  16.235  67.234  0.00  0.00    -0.268 OA
BRANCH  27  29
ATOM     29  C   UNL     1     -11.816  15.298  69.608  0.00  0.00    +0.151 C 
BRANCH  29  30
ATOM     30  C   UNL     1     -12.380  15.927  71.025  0.00  0.00    +0.206 C 
ATOM     31  O   UNL     1     -11.398  15.102  71.839  0.00  0.00    -0.218 OA
BRANCH  30  32
ATOM     32  C   UNL     1     -13.543  14.765  71.148  0.00  0.00    +0.217 C 
ATOM     33  O   UNL     1     -14.656  15.513  71.516  0.00  0.00    -0.218 OA
ENDBRANCH  30  32
ENDBRANCH  29  30
ENDBRANCH  27  29
ENDBRANCH   7  26
TORSDOF 12
ENDMDL
MODEL 2
REMARK VINA RESULT:      -5.6      0.582      1.883
REMARK  Name = 
REMARK  12 active torsions:
REMARK  status: ('A' for Active; 'I' for Inactive)
REMARK    1  A    between atoms: C_2  and  C_3
REMARK    2  A    between atoms: N_5  and  C_6
REMARK    3  A    between atoms: N_5  and  C_9
REMARK    4  A    between atoms: C_6  and  C_7
REMARK    5  A    between atoms: C_12  and  C_13
REMARK    6  A    between atoms: N_15  and  C_16
REMARK    7  A    between atoms: C_16  and  C_17
REMARK    8  A    between atoms: C_17  and  C_19
REMARK    9  A    between atoms: C_23  and  C_24
REMARK   10  A    between atoms: N_26  and  C_27
REMARK   11  A    between atoms: C_27  and  C_28
REMARK   12  A    between atoms: C_28  and  C_30
REMARK                            x       y       z     vdW  Elec       q    Type
REMARK                         _______ _______ _______ _____ _____    ______ ____
ROOT
ATOM      1  C   UNL     1      -6.453  15.699  68.319  0.00  0.00    +0.065 A 
ATOM      2  C   UNL     1      -5.996  17.006  68.417  0.00  0.00    +0.049 A 
ATOM      3  I   UNL     1      -3.984  17.339  68.914  0.00  0.00    -0.041 I 
ATOM      4  C   UNL     1      -6.833  18.085  68.312  0.00  0.00    +0.067 A 
ATOM      5  C   UNL     1      -8.197  17.850  68.401  0.00  0.00    +0.040 A 
ATOM      6  I   UNL     1      -9.546  19.439  68.623  0.00  0.00    -0.042 I 
ATOM      7  C   UNL     1      -8.669  16.634  67.940  0.00  0.00    +0.067 A 
ATOM      8  C   UNL     1      -7.782  15.583  67.928  0.00  0.00    +0.049 A 
ATOM      9  I   UNL     1      -8.458  13.634  67.521  0.00  0.00    -0.041 I 
ENDROOT
BRANCH   1  12
ATOM     10  O   UNL     1      -4.588  14.000  67.672  0.00  0.00    -0.272 OA
ATOM     11  C   UNL     1      -4.890  13.760  68.142  0.00  0.00    +0.263 C 
ATOM     12  N   UNL     1      -5.770  14.591  68.911  0.00  0.00    -0.253 N 
BRANCH  11  13
ATOM     13  C   UNL     1      -4.689  12.305  68.441  0.00  0.00    +0.267 C 
ATOM     14  O   UNL     1      -5.111  11.481  67.429  0.00  0.00    -0.210 OA
ENDBRANCH  11  13
BRANCH  12  15
ATOM     15  C   UNL     1      -6.225  14.047  70.167  0.00  0.00    +0.134 C 
BRANCH  15  16
ATOM     16  C   UNL     1      -5.332  14.528  71.260  0.00  0.00    +0.204 C 
ATOM     17  O   UNL     1      -5.662  13.870  72.431  0.00  0.00    -0.218 OA
ENDBRANCH  15  16
ENDBRANCH  12  15
ENDBRANCH   1  12
BRANCH   4  18
ATOM     18  C   UNL     1      -6.395  19.480  68.422  0.00  0.00    +0.266 C 
ATOM     19  N   UNL     1      -6.128  20.101  69.677  0.00  0.00    -0.199 NA
ATOM     20  O   UNL     1      -5.747  19.926  67.428  0.00  0.00    -0.268 OA
BRANCH  19  21
ATOM     21  C   UNL     1      -4.939  20.869  69.965  0.00  0.00    +0.151 C 
BRANCH  21  22
ATOM     22  C   UNL     1      -4.671  20.640  71.577  0.00  0.00    +0.206 C 
ATOM     23  O   UNL     1      -4.588  22.134  71.831  0.00  0.00    -0.218 OA
BRANCH  22  24
ATOM     24  C   UNL     1      -3.041  20.534  71.346  0.00  0.00    +0.217 C 
ATOM     25  O   UNL     1      -2.569  21.417  72.314  0.00  0.00    -0.218 OA
ENDBRANCH  22  24
ENDBRANCH  21  22
ENDBRANCH  19  21
ENDBRANCH   4  18
BRANCH   7  26
ATOM     26  C   UNL     1     -10.094  16.376  68.188  0.00  0.00    +0.266 C 
ATOM     27  N   UNL     1     -10.623  16.101  69.466  0.00  0.00    -0.199 NA
ATOM     28  O   UNL     1     -10.888  16.224  67.211  0.00  0.00    -0.268 OA
BRANCH  27  29
ATOM     29  C   UNL     1     -11.898  15.452  69.654  0.00  0.00    +0.151 C 
BRANCH  29  30
ATOM     30  C   UNL     1     -12.339  15.978  71.154  0.00  0.00    +0.206 C 
ATOM     31  O   UNL     1     -11.460  14.941  71.832  0.00  0.00    -0.218 OA
BRANCH  30  32
ATOM     32  C   UNL     1     -13.646  14.972  71.188  0.00  0.00    +0.217 C 
ATOM     33  O   UNL     1     -14.564  15.722  71.914  0.00  0.00    -0.218 OA
ENDBRANCH  30  32
ENDBRANCH  29  30
ENDBRANCH  27  29
ENDBRANCH   7  26
TORSDOF 12
ENDMDL
MODEL 3
REMARK VINA RESULT:      -5.6      7.448     10.780
REMARK  Name = 
REMARK  12 active torsions:
REMARK  status: ('A' for Active; 'I' for Inactive)
REMARK    1  A    between atoms: C_2  and  C_3
REMARK    2  A    between atoms: N_5  and  C_6
REMARK    3  A    between atoms: N_5  and  C_9
REMARK    4  A    between atoms: C_6  and  C_7
REMARK    5  A    between atoms: C_12  and  C_13
REMARK    6  A    between atoms: N_15  and  C_16
REMARK    7  A    between atoms: C_16  and  C_17
REMARK    8  A    between atoms: C_17  and  C_19
REMARK    9  A    between atoms: C_23  and  C_24
REMARK   10  A    between atoms: N_26  and  C_27
REMARK   11  A    between atoms: C_27  and  C_28
REMARK   12  A    between atoms: C_28  and  C_30
REMARK                            x       y       z     vdW  Elec       q    Type
REMARK                         _______ _______ _______ _____ _____    ______ ____
ROOT
ATOM      1  C   UNL     1     -11.064   8.481  70.076  0.00  0.00    +0.065 A 
ATOM      2  C   UNL     1     -10.595   7.517  69.193  0.00  0.00    +0.049 A 
ATOM      3  I   UNL     1     -10.082   5.625  69.943  0.00  0.00    -0.041 I 
ATOM      4  C   UNL     1     -10.348   7.789  67.875  0.00  0.00    +0.067 A 
ATOM      5  C   UNL     1     -10.293   9.122  67.494  0.00  0.00    +0.040 A 
ATOM      6  I   UNL     1      -9.567   9.668  65.605  0.00  0.00    -0.042 I 
ATOM      7  C   UNL     1     -11.081  10.021  68.190  0.00  0.00    +0.067 A 
ATOM      8  C   UNL     1     -11.432   9.679  69.475  0.00  0.00    +0.049 A 
ATOM      9  I   UNL     1     -12.382  11.083  70.720  0.00  0.00    -0.041 I 
ENDROOT
BRANCH   1  12
ATOM     10  O   UNL     1      -9.173   9.033  71.781  0.00  0.00    -0.272 OA
ATOM     11  C   UNL     1      -9.556   8.650  72.059  0.00  0.00    +0.263 C 
ATOM     12  N   UNL     1     -10.850   8.411  71.488  0.00  0.00    -0.253 N 
BRANCH  11  13
ATOM     13  C   UNL     1      -9.096   7.985  73.321  0.00  0.00    +0.267 C 
ATOM     14  O   UNL     1      -7.994   8.583  73.877  0.00  0.00    -0.210 OA
ENDBRANCH  11  13
BRANCH  12  15
ATOM     15  C   UNL     1     -11.804   7.735  72.332  0.00  0.00    +0.134 C 
BRANCH  15  16
ATOM     16  C   UNL     1     -13.018   7.406  71.531  0.00  0.00    +0.204 C 
ATOM     17  O   UNL     1     -14.093   8.117  72.033  0.00  0.00    -0.218 OA
ENDBRANCH  15  16
ENDBRANCH  12  15
ENDBRANCH   1  12
BRANCH   4  18
ATOM     18  C   UNL     1      -9.841   6.807  66.912  0.00  0.00    +0.266 C 
ATOM     19  N   UNL     1      -8.463   6.446  66.842  0.00  0.00    -0.199 NA
ATOM     20  O   UNL     1     -10.670   5.917  66.554  0.00  0.00    -0.268 OA
BRANCH  19  21
ATOM     21  C   UNL     1      -7.982   5.085  66.800  0.00  0.00    +0.151 C 
BRANCH  21  22
ATOM     22  C   UNL     1      -6.912   5.056  65.545  0.00  0.00    +0.206 C 
ATOM     23  O   UNL     1      -7.177   6.513  65.213  0.00  0.00    -0.218 OA
BRANCH  22  24
ATOM     24  C   UNL     1      -8.076   4.548  64.492  0.00  0.00    +0.217 C 
ATOM     25  O   UNL     1      -8.432   3.321  65.047  0.00  0.00    -0.218 OA
ENDBRANCH  22  24
ENDBRANCH  21  22
ENDBRANCH  19  21
ENDBRANCH   4  18
BRANCH   7  26
ATOM     26  C   UNL     1     -10.879  11.435  67.846  0.00  0.00    +0.266 C 
ATOM     27  N   UNL     1     -11.779  12.180  67.057  0.00  0.00    -0.199 NA
ATOM     28  O   UNL     1      -9.775  11.999  68.116  0.00  0.00    -0.268 OA
BRANCH  27  29
ATOM     29  C   UNL     1     -11.398  13.397  66.384  0.00  0.00    +0.151 C 
BRANCH  29  30
ATOM     30  C   UNL     1     -12.815  13.866  65.681  0.00  0.00    +0.206 C 
ATOM     31  O   UNL     1     -12.960  12.532  64.969  0.00  0.00    -0.218 OA
BRANCH  30  32
ATOM     32  C   UNL     1     -12.025  14.530  64.394  0.00  0.00    +0.217 C 
ATOM     33  O   UNL     1     -12.657  13.910  63.322  0.00  0.00    -0.218 OA
ENDBRANCH  30  32
ENDBRANCH  29  30
ENDBRANCH  27  29
ENDBRANCH   7  26
TORSDOF 12
ENDMDL
MODEL 4
REMARK VINA RESULT:      -5.4      2.838      6.297
REMARK  Name = 
REMARK  12 active torsions:
REMARK  status: ('A' for Active; 'I' for Inactive)
REMARK    1  A    between atoms: C_2  and  C_3
REMARK    2  A    between atoms: N_5  and  C_6
REMARK    3  A    between atoms: N_5  and  C_9
REMARK    4  A    between atoms: C_6  and  C_7
REMARK    5  A    between atoms: C_12  and  C_13
REMARK    6  A    between atoms: N_15  and  C_16
REMARK    7  A    between atoms: C_16  and  C_17
REMARK    8  A    between atoms: C_17  and  C_19
REMARK    9  A    between atoms: C_23  and  C_24
REMARK   10  A    between atoms: N_26  and  C_27
REMARK   11  A    between atoms: C_27  and  C_28
REMARK   12  A    between atoms: C_28  and  C_30
REMARK                            x       y       z     vdW  Elec       q    Type
REMARK                         _______ _______ _______ _____ _____    ______ ____
ROOT
ATOM      1  C   UNL     1      -7.069  16.873  67.960  0.00  0.00    +0.065 A 
ATOM      2  C   UNL     1      -6.008  15.981  68.032  0.00  0.00    +0.049 A 
ATOM      3  I   UNL     1      -4.065  16.691  67.673  0.00  0.00    -0.041 I 
ATOM      4  C   UNL     1      -6.191  14.637  68.216  0.00  0.00    +0.067 A 
ATOM      5  C   UNL     1      -7.471  14.134  68.035  0.00  0.00    +0.040 A 
ATOM      6  I   UNL     1      -7.805  12.067  67.926  0.00  0.00    -0.042 I 
ATOM      7  C   UNL     1      -8.535  14.966  68.334  0.00  0.00    +0.067 A 
ATOM      8  C   UNL     1      -8.305  16.321  68.271  0.00  0.00    +0.049 A 
ATOM      9  I   UNL     1      -9.909  17.672  68.424  0.00  0.00    -0.041 I 
ENDROOT
BRANCH   1  12
ATOM     10  O   UNL     1      -6.607  19.368  68.549  0.00  0.00    -0.272 OA
ATOM     11  C   UNL     1      -6.882  19.363  68.006  0.00  0.00    +0.263 C 
ATOM     12  N   UNL     1      -6.983  18.129  67.282  0.00  0.00    -0.253 N 
BRANCH  11  13
ATOM     13  C   UNL     1      -7.439  20.653  67.484  0.00  0.00    +0.267 C 
ATOM     14  O   UNL     1      -6.469  21.559  67.134  0.00  0.00    -0.210 OA
ENDBRANCH  11  13
BRANCH  12  15
ATOM     15  C   UNL     1      -7.377  18.234  65.899  0.00  0.00    +0.134 C 
BRANCH  15  16
ATOM     16  C   UNL     1      -6.162  18.445  65.060  0.00  0.00    +0.204 C 
ATOM     17  O   UNL     1      -6.389  19.503  64.199  0.00  0.00    -0.218 OA
ENDBRANCH  15  16
ENDBRANCH  12  15
ENDBRANCH   1  12
BRANCH   4  18
ATOM     18  C   UNL     1      -5.101  13.658  68.284  0.00  0.00    +0.266 C 
ATOM     19  N   UNL     1      -4.697  13.049  69.507  0.00  0.00    -0.199 NA
ATOM     20  O   UNL     1      -4.917  12.976  67.231  0.00  0.00    -0.268 OA
BRANCH  19  21
ATOM     21  C   UNL     1      -4.494  11.629  69.678  0.00  0.00    +0.151 C 
BRANCH  21  22
ATOM     22  C   UNL     1      -4.438  11.405  71.312  0.00  0.00    +0.206 C 
ATOM     23  O   UNL     1      -5.782  10.699  71.316  0.00  0.00    -0.218 OA
BRANCH  22  24
ATOM     24  C   UNL     1      -5.147  12.869  71.591  0.00  0.00    +0.217 C 
ATOM     25  O   UNL     1      -5.209  12.883  72.982  0.00  0.00    -0.218 OA
ENDBRANCH  22  24
ENDBRANCH  21  22
ENDBRANCH  19  21
ENDBRANCH   4  18
BRANCH   7  26
ATOM     26  C   UNL     1      -9.863  14.440  67.989  0.00  0.00    +0.266 C 
ATOM     27  N   UNL     1     -10.388  14.449  66.680  0.00  0.00    -0.199 NA
ATOM     28  O   UNL     1     -10.668  14.105  68.911  0.00  0.00    -0.268 OA
BRANCH  27  29
ATOM     29  C   UNL     1     -11.799  14.331  66.410  0.00  0.00    +0.151 C 
BRANCH  29  30
ATOM     30  C   UNL     1     -11.863  14.569  64.779  0.00  0.00    +0.206 C 
ATOM     31  O   UNL     1     -10.651  13.683  64.552  0.00  0.00    -0.218 OA
BRANCH  30  32
ATOM     32  C   UNL     1     -10.924  15.922  64.880  0.00  0.00    +0.217 C 
ATOM     33  O   UNL     1     -11.555  16.775  63.981  0.00  0.00    -0.218 OA
ENDBRANCH  30  32
ENDBRANCH  29  30
ENDBRANCH  27  29
ENDBRANCH   7  26
TORSDOF 12
ENDMDL
MODEL 5
REMARK VINA RESULT:      -5.4      3.212      8.313
REMARK  Name = 
REMARK  12 active torsions:
REMARK  status: ('A' for Active; 'I' for Inactive)
REMARK    1  A    between atoms: C_2  and  C_3
REMARK    2  A    between atoms: N_5  and  C_6
REMARK    3  A    between atoms: N_5  and  C_9
REMARK    4  A    between atoms: C_6  and  C_7
REMARK    5  A    between atoms: C_12  and  C_13
REMARK    6  A    between atoms: N_15  and  C_16
REMARK    7  A    between atoms: C_16  and  C_17
REMARK    8  A    between atoms: C_17  and  C_19
REMARK    9  A    between atoms: C_23  and  C_24
REMARK   10  A    between atoms: N_26  and  C_27
REMARK   11  A    between atoms: C_27  and  C_28
REMARK   12  A    between atoms: C_28  and  C_30
REMARK                            x       y       z     vdW  Elec       q    Type
REMARK                         _______ _______ _______ _____ _____    ______ ____
ROOT
ATOM      1  C   UNL     1      -9.058  15.630  66.884  0.00  0.00    +0.065 A 
ATOM      2  C   UNL     1      -9.580  14.343  66.881  0.00  0.00    +0.049 A 
ATOM      3  I   UNL     1     -11.649  14.093  66.637  0.00  0.00    -0.041 I 
ATOM      4  C   UNL     1      -8.813  13.241  67.144  0.00  0.00    +0.067 A 
ATOM      5  C   UNL     1      -7.561  13.449  67.706  0.00  0.00    +0.040 A 
ATOM      6  I   UNL     1      -6.457  11.847  68.486  0.00  0.00    -0.042 I 
ATOM      7  C   UNL     1      -6.900  14.619  67.381  0.00  0.00    +0.067 A 
ATOM      8  C   UNL     1      -7.674  15.688  66.993  0.00  0.00    +0.049 A 
ATOM      9  I   UNL     1      -6.807  17.589  66.751  0.00  0.00    -0.041 I 
ENDROOT
BRANCH   1  12
ATOM     10  O   UNL     1     -10.433  17.363  65.509  0.00  0.00    -0.272 OA
ATOM     11  C   UNL     1     -10.324  17.615  66.052  0.00  0.00    +0.263 C 
ATOM     12  N   UNL     1      -9.856  16.791  67.129  0.00  0.00    -0.253 N 
BRANCH  11  13
ATOM     13  C   UNL     1     -10.546  19.090  66.204  0.00  0.00    +0.267 C 
ATOM     14  O   UNL     1      -9.429  19.837  65.925  0.00  0.00    -0.210 OA
ENDBRANCH  11  13
BRANCH  12  15
ATOM     15  C   UNL     1      -9.893  17.380  68.445  0.00  0.00    +0.134 C 
BRANCH  15  16
ATOM     16  C   UNL     1     -10.463  16.393  69.406  0.00  0.00    +0.204 C 
ATOM     17  O   UNL     1     -11.842  16.492  69.387  0.00  0.00    -0.218 OA
ENDBRANCH  15  16
ENDBRANCH  12  15
ENDBRANCH   1  12
BRANCH   4  18
ATOM     18  C   UNL     1      -9.324  11.867  67.165  0.00  0.00    +0.266 C 
ATOM     19  N   UNL     1     -10.115  11.361  68.237  0.00  0.00    -0.199 NA
ATOM     20  O   UNL     1      -9.526  11.345  66.027  0.00  0.00    -0.268 OA
BRANCH  19  21
ATOM     21  C   UNL     1     -11.354  10.639  68.062  0.00  0.00    +0.151 C 
BRANCH  21  22
ATOM     22  C   UNL     1     -12.080  10.683  69.542  0.00  0.00    +0.206 C 
ATOM     23  O   UNL     1     -11.609  12.105  69.792  0.00  0.00    -0.218 OA
BRANCH  22  24
ATOM     24  C   UNL     1     -10.744  10.054  70.277  0.00  0.00    +0.217 C 
ATOM     25  O   UNL     1     -11.289   9.557  71.459  0.00  0.00    -0.218 OA
ENDBRANCH  22  24
ENDBRANCH  21  22
ENDBRANCH  19  21
ENDBRANCH   4  18
BRANCH   7  26
ATOM     26  C   UNL     1      -5.648  14.860  68.112  0.00  0.00    +0.266 C 
ATOM     27  N   UNL     1      -5.600  15.381  69.421  0.00  0.00    -0.199 NA
ATOM     28  O   UNL     1      -4.536  14.761  67.509  0.00  0.00    -0.268 OA
BRANCH  27  29
ATOM     29  C   UNL     1      -4.415  15.997  69.968  0.00  0.00    +0.151 C 
BRANCH  29  30
ATOM     30  C   UNL     1      -4.756  17.604  69.816  0.00  0.00    +0.206 C 
ATOM     31  O   UNL     1      -3.365  17.994  70.288  0.00  0.00    -0.218 OA
BRANCH  30  32
ATOM     32  C   UNL     1      -5.358  17.682  71.350  0.00  0.00    +0.217 C 
ATOM     33  O   UNL     1      -4.817  18.878  71.808  0.00  0.00    -0.218 OA
ENDBRANCH  30  32
ENDBRANCH  29  30
ENDBRANCH  27  29
ENDBRANCH   7  26
TORSDOF 12
ENDMDL
MODEL 6
REMARK VINA RESULT:      -5.4      2.748      6.328
REMARK  Name = 
REMARK  12 active torsions:
REMARK  status: ('A' for Active; 'I' for Inactive)
REMARK    1  A    between atoms: C_2  and  C_3
REMARK    2  A    between atoms: N_5  and  C_6
REMARK    3  A    between atoms: N_5  and  C_9
REMARK    4  A    between atoms: C_6  and  C_7
REMARK    5  A    between atoms: C_12  and  C_13
REMARK    6  A    between atoms: N_15  and  C_16
REMARK    7  A    between atoms: C_16  and  C_17
REMARK    8  A    between atoms: C_17  and  C_19
REMARK    9  A    between atoms: C_23  and  C_24
REMARK   10  A    between atoms: N_26  and  C_27
REMARK   11  A    between atoms: C_27  and  C_28
REMARK   12  A    between atoms: C_28  and  C_30
REMARK                            x       y       z     vdW  Elec       q    Type
REMARK                         _______ _______ _______ _____ _____    ______ ____
ROOT
ATOM      1  C   UNL     1      -7.141  17.816  67.430  0.00  0.00    +0.065 A 
ATOM      2  C   UNL     1      -6.155  16.910  67.798  0.00  0.00    +0.049 A 
ATOM      3  I   UNL     1      -4.161  17.562  67.869  0.00  0.00    -0.041 I 
ATOM      4  C   UNL     1      -6.419  15.583  68.005  0.00  0.00    +0.067 A 
ATOM      5  C   UNL     1      -7.636  15.093  67.556  0.00  0.00    +0.040 A 
ATOM      6  I   UNL     1      -8.000  13.031  67.483  0.00  0.00    -0.042 I 
ATOM      7  C   UNL     1      -8.713  15.961  67.550  0.00  0.00    +0.067 A 
ATOM      8  C   UNL     1      -8.433  17.305  67.471  0.00  0.00    +0.049 A 
ATOM      9  I   UNL     1      -9.984  18.692  67.169  0.00  0.00    -0.041 I 
ENDROOT
BRANCH   1  12
ATOM     10  O   UNL     1      -6.799  18.591  64.967  0.00  0.00    -0.272 OA
ATOM     11  C   UNL     1      -6.556  19.020  65.323  0.00  0.00    +0.263 C 
ATOM     12  N   UNL     1      -6.859  19.027  66.725  0.00  0.00    -0.253 N 
BRANCH  11  13
ATOM     13  C   UNL     1      -5.647  20.031  64.689  0.00  0.00    +0.267 C 
ATOM     14  O   UNL     1      -6.084  20.456  63.460  0.00  0.00    -0.210 OA
ENDBRANCH  11  13
BRANCH  12  15
ATOM     15  C   UNL     1      -6.495  20.219  67.449  0.00  0.00    +0.134 C 
BRANCH  15  16
ATOM     16  C   UNL     1      -6.877  20.056  68.881  0.00  0.00    +0.204 C 
ATOM     17  O   UNL     1      -6.005  20.789  69.665  0.00  0.00    -0.218 OA
ENDBRANCH  15  16
ENDBRANCH  12  15
ENDBRANCH   1  12
BRANCH   4  18
ATOM     18  C   UNL     1      -5.407  14.591  68.381  0.00  0.00    +0.266 C 
ATOM     19  N   UNL     1      -5.251  14.126  69.720  0.00  0.00    -0.199 NA
ATOM     20  O   UNL     1      -5.076  13.778  67.466  0.00  0.00    -0.268 OA
BRANCH  19  21
ATOM     21  C   UNL     1      -5.151  12.734  70.089  0.00  0.00    +0.151 C 
BRANCH  21  22
ATOM     22  C   UNL     1      -4.396  12.741  71.556  0.00  0.00    +0.206 C 
ATOM     23  O   UNL     1      -5.343  11.691  72.109  0.00  0.00    -0.218 OA
BRANCH  22  24
ATOM     24  C   UNL     1      -5.352  13.969  72.103  0.00  0.00    +0.217 C 
ATOM     25  O   UNL     1      -5.643  13.536  73.394  0.00  0.00    -0.218 OA
ENDBRANCH  22  24
ENDBRANCH  21  22
ENDBRANCH  19  21
ENDBRANCH   4  18
BRANCH   7  26
ATOM     26  C   UNL     1      -9.940  15.439  66.932  0.00  0.00    +0.266 C 
ATOM     27  N   UNL     1     -10.082  15.228  65.545  0.00  0.00    -0.199 NA
ATOM     28  O   UNL     1     -10.995  15.318  67.626  0.00  0.00    -0.268 OA
BRANCH  27  29
ATOM     29  C   UNL     1     -11.370  15.124  64.904  0.00  0.00    +0.151 C 
BRANCH  29  30
ATOM     30  C   UNL     1     -11.336  13.590  64.299  0.00  0.00    +0.206 C 
ATOM     31  O   UNL     1     -12.479  13.888  63.343  0.00  0.00    -0.218 OA
BRANCH  30  32
ATOM     32  C   UNL     1     -12.375  13.046  65.459  0.00  0.00    +0.217 C 
ATOM     33  O   UNL     1     -13.382  14.004  65.412  0.00  0.00    -0.218 OA
ENDBRANCH  30  32
ENDBRANCH  29  30
ENDBRANCH  27  29
ENDBRANCH   7  26
TORSDOF 12
ENDMDL
MODEL 7
REMARK VINA RESULT:      -5.4      1.872      7.267
REMARK  Name = 
REMARK  12 active torsions:
REMARK  status: ('A' for Active; 'I' for Inactive)
REMARK    1  A    between atoms: C_2  and  C_3
REMARK    2  A    between atoms: N_5  and  C_6
REMARK    3  A    between atoms: N_5  and  C_9
REMARK    4  A    between atoms: C_6  and  C_7
REMARK    5  A    between atoms: C_12  and  C_13
REMARK    6  A    between atoms: N_15  and  C_16
REMARK    7  A    between atoms: C_16  and  C_17
REMARK    8  A    between atoms: C_17  and  C_19
REMARK    9  A    between atoms: C_23  and  C_24
REMARK   10  A    between atoms: N_26  and  C_27
REMARK   11  A    between atoms: C_27  and  C_28
REMARK   12  A    between atoms: C_28  and  C_30
REMARK                            x       y       z     vdW  Elec       q    Type
REMARK                         _______ _______ _______ _____ _____    ______ ____
ROOT
ATOM      1  C   UNL     1      -8.685  15.803  67.217  0.00  0.00    +0.065 A 
ATOM      2  C   UNL     1      -8.016  14.599  67.395  0.00  0.00    +0.049 A 
ATOM      3  I   UNL     1      -9.129  12.820  67.423  0.00  0.00    -0.041 I 
ATOM      4  C   UNL     1      -6.676  14.539  67.666  0.00  0.00    +0.067 A 
ATOM      5  C   UNL     1      -6.045  15.712  68.053  0.00  0.00    +0.040 A 
ATOM      6  I   UNL     1      -4.104  15.676  68.841  0.00  0.00    -0.042 I 
ATOM      7  C   UNL     1      -6.537  16.901  67.544  0.00  0.00    +0.067 A 
ATOM      8  C   UNL     1      -7.856  16.916  67.154  0.00  0.00    +0.049 A 
ATOM      9  I   UNL     1      -8.784  18.731  66.636  0.00  0.00    -0.041 I 
ENDROOT
BRANCH   1  12
ATOM     10  O   UNL     1     -10.274  16.403  69.192  0.00  0.00    -0.272 OA
ATOM     11  C   UNL     1     -10.614  16.126  68.770  0.00  0.00    +0.263 C 
ATOM     12  N   UNL     1     -10.088  15.953  67.446  0.00  0.00    -0.253 N 
BRANCH  11  13
ATOM     13  C   UNL     1     -11.974  15.637  69.167  0.00  0.00    +0.267 C 
ATOM     14  O   UNL     1     -12.372  16.089  70.400  0.00  0.00    -0.210 OA
ENDBRANCH  11  13
BRANCH  12  15
ATOM     15  C   UNL     1     -11.034  15.558  66.432  0.00  0.00    +0.134 C 
BRANCH  15  16
ATOM     16  C   UNL     1     -10.448  15.825  65.087  0.00  0.00    +0.204 C 
ATOM     17  O   UNL     1     -11.272  16.701  64.404  0.00  0.00    -0.218 OA
ENDBRANCH  15  16
ENDBRANCH  12  15
ENDBRANCH   1  12
BRANCH   4  18
ATOM     18  C   UNL     1      -5.933  13.292  67.874  0.00  0.00    +0.266 C 
ATOM     19  N   UNL     1      -5.989  12.564  69.099  0.00  0.00    -0.199 NA
ATOM     20  O   UNL     1      -5.711  12.610  66.828  0.00  0.00    -0.268 OA
BRANCH  19  21
ATOM     21  C   UNL     1      -6.219  11.141  69.186  0.00  0.00    +0.151 C 
BRANCH  21  22
ATOM     22  C   UNL     1      -5.603  10.705  70.653  0.00  0.00    +0.206 C 
ATOM     23  O   UNL     1      -5.796  12.103  71.211  0.00  0.00    -0.218 OA
BRANCH  22  24
ATOM     24  C   UNL     1      -4.064  11.052  70.171  0.00  0.00    +0.217 C 
ATOM     25  O   UNL     1      -3.681   9.846  69.587  0.00  0.00    -0.218 OA
ENDBRANCH  22  24
ENDBRANCH  21  22
ENDBRANCH  19  21
ENDBRANCH   4  18
BRANCH   7  26
ATOM     26  C   UNL     1      -5.931  18.121  68.096  0.00  0.00    +0.266 C 
ATOM     27  N   UNL     1      -6.276  18.662  69.351  0.00  0.00    -0.199 NA
ATOM     28  O   UNL     1      -5.179  18.837  67.367  0.00  0.00    -0.268 OA
BRANCH  27  29
ATOM     29  C   UNL     1      -6.011  20.036  69.703  0.00  0.00    +0.151 C 
BRANCH  29  30
ATOM     30  C   UNL     1      -4.989  19.875  70.988  0.00  0.00    +0.206 C 
ATOM     31  O   UNL     1      -5.937  20.635  71.901  0.00  0.00    -0.218 OA
BRANCH  30  32
ATOM     32  C   UNL     1      -4.177  21.254  70.591  0.00  0.00    +0.217 C 
ATOM     33  O   UNL     1      -4.518  22.098  71.642  0.00  0.00    -0.218 OA
ENDBRANCH  30  32
ENDBRANCH  29  30
ENDBRANCH  27  29
ENDBRANCH   7  26
TORSDOF 12
ENDMDL
MODEL 8
REMARK VINA RESULT:      -5.3      2.458      7.669
REMARK  Name = 
REMARK  12 active torsions:
REMARK  status: ('A' for Active; 'I' for Inactive)
REMARK    1  A    between atoms: C_2  and  C_3
REMARK    2  A    between atoms: N_5  and  C_6
REMARK    3  A    between atoms: N_5  and  C_9
REMARK    4  A    between atoms: C_6  and  C_7
REMARK    5  A    between atoms: C_12  and  C_13
REMARK    6  A    between atoms: N_15  and  C_16
REMARK    7  A    between atoms: C_16  and  C_17
REMARK    8  A    between atoms: C_17  and  C_19
REMARK    9  A    between atoms: C_23  and  C_24
REMARK   10  A    between atoms: N_26  and  C_27
REMARK   11  A    between atoms: C_27  and  C_28
REMARK   12  A    between atoms: C_28  and  C_30
REMARK                            x       y       z     vdW  Elec       q    Type
REMARK                         _______ _______ _______ _____ _____    ______ ____
ROOT
ATOM      1  C   UNL     1      -6.656  17.672  67.491  0.00  0.00    +0.065 A 
ATOM      2  C   UNL     1      -8.032  17.545  67.353  0.00  0.00    +0.049 A 
ATOM      3  I   UNL     1      -9.216  19.278  67.404  0.00  0.00    -0.041 I 
ATOM      4  C   UNL     1      -8.654  16.327  67.298  0.00  0.00    +0.067 A 
ATOM      5  C   UNL     1      -7.919  15.214  67.679  0.00  0.00    +0.040 A 
ATOM      6  I   UNL     1      -8.857  13.366  67.989  0.00  0.00    -0.042 I 
ATOM      7  C   UNL     1      -6.554  15.240  67.456  0.00  0.00    +0.067 A 
ATOM      8  C   UNL     1      -5.956  16.476  67.384  0.00  0.00    +0.049 A 
ATOM      9  I   UNL     1      -3.860  16.635  67.333  0.00  0.00    -0.041 I 
ENDROOT
BRANCH   1  12
ATOM     10  O   UNL     1      -5.952  18.547  69.841  0.00  0.00    -0.272 OA
ATOM     11  C   UNL     1      -5.976  19.031  69.473  0.00  0.00    +0.263 C 
ATOM     12  N   UNL     1      -6.036  18.831  68.053  0.00  0.00    -0.253 N 
BRANCH  11  13
ATOM     13  C   UNL     1      -5.982  20.394  70.096  0.00  0.00    +0.267 C 
ATOM     14  O   UNL     1      -6.213  20.369  71.449  0.00  0.00    -0.210 OA
ENDBRANCH  11  13
BRANCH  12  15
ATOM     15  C   UNL     1      -5.800  19.995  67.236  0.00  0.00    +0.134 C 
BRANCH  15  16
ATOM     16  C   UNL     1      -5.595  19.566  65.823  0.00  0.00    +0.204 C 
ATOM     17  O   UNL     1      -6.413  20.321  65.002  0.00  0.00    -0.218 OA
ENDBRANCH  15  16
ENDBRANCH  12  15
ENDBRANCH   1  12
BRANCH   4  18
ATOM     18  C   UNL     1     -10.103  16.148  67.167  0.00  0.00    +0.266 C 
ATOM     19  N   UNL     1     -10.705  15.631  65.982  0.00  0.00    -0.199 NA
ATOM     20  O   UNL     1     -10.724  15.929  68.250  0.00  0.00    -0.268 OA
BRANCH  19  21
ATOM     21  C   UNL     1     -11.692  14.577  65.967  0.00  0.00    +0.151 C 
BRANCH  21  22
ATOM     22  C   UNL     1     -11.506  13.847  64.499  0.00  0.00    +0.206 C 
ATOM     23  O   UNL     1     -12.622  14.673  63.885  0.00  0.00    -0.218 OA
BRANCH  22  24
ATOM     24  C   UNL     1     -12.552  12.638  64.907  0.00  0.00    +0.217 C 
ATOM     25  O   UNL     1     -13.010  12.238  63.654  0.00  0.00    -0.218 OA
ENDBRANCH  22  24
ENDBRANCH  21  22
ENDBRANCH  19  21
ENDBRANCH   4  18
BRANCH   7  26
ATOM     26  C   UNL     1      -5.804  14.103  68.007  0.00  0.00    +0.266 C 
ATOM     27  N   UNL     1      -5.471  13.979  69.372  0.00  0.00    -0.199 NA
ATOM     28  O   UNL     1      -5.272  13.258  67.224  0.00  0.00    -0.268 OA
BRANCH  27  29
ATOM     29  C   UNL     1      -4.411  13.118  69.836  0.00  0.00    +0.151 C 
BRANCH  29  30
ATOM     30  C   UNL     1      -4.333  13.496  71.440  0.00  0.00    +0.206 C 
ATOM     31  O   UNL     1      -5.844  13.424  71.582  0.00  0.00    -0.218 OA
BRANCH  30  32
ATOM     32  C   UNL     1      -4.385  15.114  71.123  0.00  0.00    +0.217 C 
ATOM     33  O   UNL     1      -3.047  15.471  71.248  0.00  0.00    -0.218 OA
ENDBRANCH  30  32
ENDBRANCH  29  30
ENDBRANCH  27  29
ENDBRANCH   7  26
TORSDOF 12
ENDMDL
MODEL 9
REMARK VINA RESULT:      -5.3      2.835      7.588
REMARK  Name = 
REMARK  12 active torsions:
REMARK  status: ('A' for Active; 'I' for Inactive)
REMARK    1  A    between atoms: C_2  and  C_3
REMARK    2  A    between atoms: N_5  and  C_6
REMARK    3  A    between atoms: N_5  and  C_9
REMARK    4  A    between atoms: C_6  and  C_7
REMARK    5  A    between atoms: C_12  and  C_13
REMARK    6  A    between atoms: N_15  and  C_16
REMARK    7  A    between atoms: C_16  and  C_17
REMARK    8  A    between atoms: C_17  and  C_19
REMARK    9  A    between atoms: C_23  and  C_24
REMARK   10  A    between atoms: N_26  and  C_27
REMARK   11  A    between atoms: C_27  and  C_28
REMARK   12  A    between atoms: C_28  and  C_30
REMARK                            x       y       z     vdW  Elec       q    Type
REMARK                         _______ _______ _______ _____ _____    ______ ____
ROOT
ATOM      1  C   UNL     1      -7.073  16.749  68.879  0.00  0.00    +0.065 A 
ATOM      2  C   UNL     1      -8.365  16.294  68.655  0.00  0.00    +0.049 A 
ATOM      3  I   UNL     1      -8.817  14.288  69.080  0.00  0.00    -0.041 I 
ATOM      4  C   UNL     1      -9.324  17.070  68.062  0.00  0.00    +0.067 A 
ATOM      5  C   UNL     1      -8.905  18.225  67.417  0.00  0.00    +0.040 A 
ATOM      6  I   UNL     1     -10.212  19.290  66.172  0.00  0.00    -0.042 I 
ATOM      7  C   UNL     1      -7.787  18.868  67.916  0.00  0.00    +0.067 A 
ATOM      8  C   UNL     1      -6.889  18.103  68.623  0.00  0.00    +0.049 A 
ATOM      9  I   UNL     1      -5.026  18.904  69.180  0.00  0.00    -0.041 I 
ENDROOT
BRANCH   1  12
ATOM     10  O   UNL     1      -5.278  15.675  67.326  0.00  0.00    -0.272 OA
ATOM     11  C   UNL     1      -5.287  15.347  67.839  0.00  0.00    +0.263 C 
ATOM     12  N   UNL     1      -5.950  15.873  68.998  0.00  0.00    -0.253 N 
BRANCH  11  13
ATOM     13  C   UNL     1      -4.618  14.005  67.831  0.00  0.00    +0.267 C 
ATOM     14  O   UNL     1      -5.327  13.051  67.146  0.00  0.00    -0.210 OA
ENDBRANCH  11  13
BRANCH  12  15
ATOM     15  C   UNL     1      -5.690  15.192  70.242  0.00  0.00    +0.134 C 
BRANCH  15  16
ATOM     16  C   UNL     1      -4.857  16.070  71.114  0.00  0.00    +0.204 C 
ATOM     17  O   UNL     1      -3.527  15.726  70.958  0.00  0.00    -0.218 OA
ENDBRANCH  15  16
ENDBRANCH  12  15
ENDBRANCH   1  12
BRANCH   4  18
ATOM     18  C   UNL     1     -10.695  16.625  67.794  0.00  0.00    +0.266 C 
ATOM     19  N   UNL     1     -11.004  15.664  66.788  0.00  0.00    -0.199 NA
ATOM     20  O   UNL     1     -11.484  16.671  68.785  0.00  0.00    -0.268 OA
BRANCH  19  21
ATOM     21  C   UNL     1     -11.855  14.516  66.997  0.00  0.00    +0.151 C 
BRANCH  21  22
ATOM     22  C   UNL     1     -11.599  13.557  65.679  0.00  0.00    +0.206 C 
ATOM     23  O   UNL     1     -10.143  13.976  65.589  0.00  0.00    -0.218 OA
BRANCH  22  24
ATOM     24  C   UNL     1     -12.065  14.757  64.647  0.00  0.00    +0.217 C 
ATOM     25  O   UNL     1     -12.602  14.020  63.594  0.00  0.00    -0.218 OA
ENDBRANCH  22  24
ENDBRANCH  21  22
ENDBRANCH  19  21
ENDBRANCH   4  18
BRANCH   7  26
ATOM     26  C   UNL     1      -7.301  20.000  67.114  0.00  0.00    +0.266 C 
ATOM     27  N   UNL     1      -6.577  19.848  65.914  0.00  0.00    -0.199 NA
ATOM     28  O   UNL     1      -7.373  21.179  67.577  0.00  0.00    -0.268 OA
BRANCH  27  29
ATOM     29  C   UNL     1      -5.759  20.901  65.363  0.00  0.00    +0.151 C 
BRANCH  29  30
ATOM     30  C   UNL     1      -6.083  20.787  63.750  0.00  0.00    +0.206 C 
ATOM     31  O   UNL     1      -6.071  19.269  63.803  0.00  0.00    -0.218 OA
BRANCH  30  32
ATOM     32  C   UNL     1      -4.481  20.841  63.362  0.00  0.00    +0.217 C 
ATOM     33  O   UNL     1      -4.178  19.492  63.214  0.00  0.00    -0.218 OA
ENDBRANCH  30  32
ENDBRANCH  29  30
ENDBRANCH  27  29
ENDBRANCH   7  26
TORSDOF 12
ENDMDL
