MODEL 1
REMARK VINA RESULT:      -6.8      0.000      0.000
REMARK  Name = 
REMARK  6 active torsions:
REMARK  status: ('A' for Active; 'I' for Inactive)
REMARK    1  A    between atoms: C_4  and  C_5
REMARK    2  A    between atoms: C_5  and  C_11
REMARK    3  A    between atoms: C_6  and  C_7
REMARK    4  A    between atoms: C_7  and  C_8
REMARK    5  A    between atoms: N_13  and  C_14
REMARK    6  A    between atoms: C_18  and  C_19
REMARK                            x       y       z     vdW  Elec       q    Type
REMARK                         _______ _______ _______ _____ _____    ______ ____
ROOT
ATOM      1  C   UNK A   0      -9.732  15.793  68.944  0.00  0.00    +0.266 C 
ATOM      2  N   UNK A   2      -9.029  16.963  68.621  0.00  0.00    -0.191 NA
ATOM      3  O   UNK A   0      -9.087  14.824  69.448  0.00  0.00    -0.268 OA
ENDROOT
BRANCH   2   4
ATOM      4  C   UNK A   2      -7.635  16.542  67.952  0.00  0.00    +0.200 C 
ATOM      5  C   UNK A   2      -7.387  17.947  67.033  0.00  0.00    +0.157 C 
ATOM      6  N   UNK A   2      -7.214  18.581  68.407  0.00  0.00    -0.242 N 
ATOM      7  C   UNK A   2      -6.852  19.955  68.300  0.00  0.00    +0.132 C 
ATOM      8  C   UNK A   2      -7.569  20.668  67.446  0.00  0.00    +0.007 C 
ATOM      9  C   UNK A   2      -8.995  20.328  67.145  0.00  0.00    +0.087 C 
ATOM     10  S   UNK A   2      -9.160  18.565  66.695  0.00  0.00    -0.114 S 
ATOM     11  C   UNK A   2      -6.798  17.375  69.071  0.00  0.00    +0.253 C 
ATOM     12  O   UNK A   2      -5.790  16.962  69.709  0.00  0.00    -0.273 OA
BRANCH   7  13
ATOM     13  C   UNK A   2      -5.721  20.544  69.031  0.00  0.00    +0.401 C 
ATOM     14  O   UNK A   2      -4.429  20.143  68.673  0.00  0.00    -0.239 OA
ATOM     15  O   UNK A   2      -5.932  20.758  70.258  0.00  0.00    -0.239 OA
ENDBRANCH   7  13
ENDBRANCH   2   4
BRANCH   1  16
ATOM     16  C   UNK A   0     -11.120  15.480  68.583  0.00  0.00    +0.070 C 
ATOM     17  C   UNK A   0     -11.985  15.749  69.568  0.00  0.00    -0.008 C 
BRANCH  16  22
ATOM     18  N   UNK A   0     -11.663  10.757  67.855  0.00  0.00    -0.100 NA
ATOM     19  C   UNK A   0     -11.671  12.124  67.437  0.00  0.00    +0.201 A 
ATOM     20  S   UNK A   0     -11.838  12.833  65.885  0.00  0.00    -0.048 S 
ATOM     21  C   UNK A   0     -11.775  14.479  66.373  0.00  0.00    +0.057 A 
ATOM     22  C   UNK A   0     -11.422  14.326  67.711  0.00  0.00    +0.094 A 
ATOM     23  N   UNK A   0     -11.951  13.199  68.212  0.00  0.00    -0.221 NA
ENDBRANCH  16  22
BRANCH  17  24
ATOM     24  C   UNK A   0     -11.514  16.007  70.968  0.00  0.00    +0.140 C 
BRANCH  24  25
ATOM     25  C   UNK A   0     -12.627  15.814  71.901  0.00  0.00    +0.369 C 
ATOM     26  O   UNK A   0     -12.452  16.223  73.205  0.00  0.00    -0.245 OA
ATOM     27  O   UNK A   0     -13.796  15.709  71.425  0.00  0.00    -0.245 OA
ENDBRANCH  24  25
ENDBRANCH  17  24
ENDBRANCH   1  16
TORSDOF 6
ENDMDL
MODEL 2
REMARK VINA RESULT:      -6.8      3.204      4.472
REMARK  Name = 
REMARK  6 active torsions:
REMARK  status: ('A' for Active; 'I' for Inactive)
REMARK    1  A    between atoms: C_4  and  C_5
REMARK    2  A    between atoms: C_5  and  C_11
REMARK    3  A    between atoms: C_6  and  C_7
REMARK    4  A    between atoms: C_7  and  C_8
REMARK    5  A    between atoms: N_13  and  C_14
REMARK    6  A    between atoms: C_18  and  C_19
REMARK                            x       y       z     vdW  Elec       q    Type
REMARK                         _______ _______ _______ _____ _____    ______ ____
ROOT
ATOM      1  C   UNK A   0     -10.565  16.483  68.480  0.00  0.00    +0.266 C 
ATOM      2  N   UNK A   2      -9.258  16.886  68.172  0.00  0.00    -0.191 NA
ATOM      3  O   UNK A   0     -11.508  17.313  68.307  0.00  0.00    -0.268 OA
ENDROOT
BRANCH   2   4
ATOM      4  C   UNK A   2      -9.059  18.387  68.695  0.00  0.00    +0.200 C 
ATOM      5  C   UNK A   2      -7.378  18.481  68.491  0.00  0.00    +0.157 C 
ATOM      6  N   UNK A   2      -7.749  18.416  67.015  0.00  0.00    -0.242 N 
ATOM      7  C   UNK A   2      -6.597  18.552  66.186  0.00  0.00    +0.132 C 
ATOM      8  C   UNK A   2      -5.558  17.809  66.531  0.00  0.00    +0.007 C 
ATOM      9  C   UNK A   2      -5.729  16.494  67.226  0.00  0.00    +0.087 C 
ATOM     10  S   UNK A   2      -6.812  16.670  68.686  0.00  0.00    -0.114 S 
ATOM     11  C   UNK A   2      -9.068  18.964  67.174  0.00  0.00    +0.253 C 
ATOM     12  O   UNK A   2      -9.721  19.962  66.759  0.00  0.00    -0.273 OA
BRANCH   7  13
ATOM     13  C   UNK A   2      -6.528  19.494  65.061  0.00  0.00    +0.401 C 
ATOM     14  O   UNK A   2      -6.001  19.032  63.850  0.00  0.00    -0.239 OA
ATOM     15  O   UNK A   2      -6.261  20.687  65.381  0.00  0.00    -0.239 OA
ENDBRANCH   7  13
ENDBRANCH   2   4
BRANCH   1  16
ATOM     16  C   UNK A   0     -10.959  15.252  69.177  0.00  0.00    +0.070 C 
ATOM     17  C   UNK A   0     -11.172  14.228  68.341  0.00  0.00    -0.008 C 
BRANCH  16  22
ATOM     18  N   UNK A   0     -15.234  15.300  71.379  0.00  0.00    -0.100 NA
ATOM     19  C   UNK A   0     -13.805  15.323  71.362  0.00  0.00    +0.201 A 
ATOM     20  S   UNK A   0     -12.661  15.594  72.611  0.00  0.00    -0.048 S 
ATOM     21  C   UNK A   0     -11.237  15.384  71.671  0.00  0.00    +0.057 A 
ATOM     22  C   UNK A   0     -11.791  15.317  70.396  0.00  0.00    +0.094 A 
ATOM     23  N   UNK A   0     -13.003  14.742  70.437  0.00  0.00    -0.221 NA
ENDBRANCH  16  22
BRANCH  17  24
ATOM     24  C   UNK A   0     -11.320  14.448  66.865  0.00  0.00    +0.140 C 
BRANCH  24  25
ATOM     25  C   UNK A   0     -12.301  13.502  66.327  0.00  0.00    +0.369 C 
ATOM     26  O   UNK A   0     -13.154  13.950  65.342  0.00  0.00    -0.245 OA
ATOM     27  O   UNK A   0     -12.062  12.263  66.437  0.00  0.00    -0.245 OA
ENDBRANCH  24  25
ENDBRANCH  17  24
ENDBRANCH   1  16
TORSDOF 6
ENDMDL
MODEL 3
REMARK VINA RESULT:      -6.7      2.784      3.885
REMARK  Name = 
REMARK  6 active torsions:
REMARK  status: ('A' for Active; 'I' for Inactive)
REMARK    1  A    between atoms: C_4  and  C_5
REMARK    2  A    between atoms: C_5  and  C_11
REMARK    3  A    between atoms: C_6  and  C_7
REMARK    4  A    between atoms: C_7  and  C_8
REMARK    5  A    between atoms: N_13  and  C_14
REMARK    6  A    between atoms: C_18  and  C_19
REMARK                            x       y       z     vdW  Elec       q    Type
REMARK                         _______ _______ _______ _____ _____    ______ ____
ROOT
ATOM      1  C   UNK A   0      -9.953  14.127  68.069  0.00  0.00    +0.266 C 
ATOM      2  N   UNK A   2      -9.361  15.397  68.046  0.00  0.00    -0.191 NA
ATOM      3  O   UNK A   0      -9.267  13.136  67.676  0.00  0.00    -0.268 OA
ENDROOT
BRANCH   2   4
ATOM      4  C   UNK A   2      -8.526  15.538  66.686  0.00  0.00    +0.200 C 
ATOM      5  C   UNK A   2      -8.553  17.230  66.573  0.00  0.00    +0.157 C 
ATOM      6  N   UNK A   2      -7.661  17.132  67.804  0.00  0.00    -0.242 N 
ATOM      7  C   UNK A   2      -7.206  18.419  68.216  0.00  0.00    +0.132 C 
ATOM      8  C   UNK A   2      -8.137  19.358  68.278  0.00  0.00    +0.007 C 
ATOM      9  C   UNK A   2      -9.566  19.028  68.575  0.00  0.00    +0.087 C 
ATOM     10  S   UNK A   2     -10.168  17.702  67.472  0.00  0.00    -0.114 S 
ATOM     11  C   UNK A   2      -7.151  15.821  67.508  0.00  0.00    +0.253 C 
ATOM     12  O   UNK A   2      -6.030  15.282  67.294  0.00  0.00    -0.273 OA
BRANCH   7  13
ATOM     13  C   UNK A   2      -5.795  18.717  68.496  0.00  0.00    +0.401 C 
ATOM     14  O   UNK A   2      -4.875  18.570  67.452  0.00  0.00    -0.239 OA
ATOM     15  O   UNK A   2      -5.402  18.397  69.652  0.00  0.00    -0.239 OA
ENDBRANCH   7  13
ENDBRANCH   2   4
BRANCH   1  16
ATOM     16  C   UNK A   0     -11.369  13.827  68.318  0.00  0.00    +0.070 C 
ATOM     17  C   UNK A   0     -12.105  13.832  67.200  0.00  0.00    -0.008 C 
BRANCH  16  22
ATOM     18  N   UNK A   0     -13.713  12.968  72.428  0.00  0.00    -0.100 NA
ATOM     19  C   UNK A   0     -13.098  13.824  71.463  0.00  0.00    +0.201 A 
ATOM     20  S   UNK A   0     -13.061  15.533  71.324  0.00  0.00    -0.048 S 
ATOM     21  C   UNK A   0     -12.072  15.631  69.922  0.00  0.00    +0.057 A 
ATOM     22  C   UNK A   0     -12.022  14.287  69.562  0.00  0.00    +0.094 A 
ATOM     23  N   UNK A   0     -12.061  13.504  70.651  0.00  0.00    -0.221 NA
ENDBRANCH  16  22
BRANCH  17  24
ATOM     24  C   UNK A   0     -11.577  14.418  65.925  0.00  0.00    +0.140 C 
BRANCH  24  25
ATOM     25  C   UNK A   0     -12.337  13.885  64.791  0.00  0.00    +0.369 C 
ATOM     26  O   UNK A   0     -13.058  12.728  64.985  0.00  0.00    -0.245 OA
ATOM     27  O   UNK A   0     -12.662  14.682  63.861  0.00  0.00    -0.245 OA
ENDBRANCH  24  25
ENDBRANCH  17  24
ENDBRANCH   1  16
TORSDOF 6
ENDMDL
MODEL 4
REMARK VINA RESULT:      -6.6      3.338      5.262
REMARK  Name = 
REMARK  6 active torsions:
REMARK  status: ('A' for Active; 'I' for Inactive)
REMARK    1  A    between atoms: C_4  and  C_5
REMARK    2  A    between atoms: C_5  and  C_11
REMARK    3  A    between atoms: C_6  and  C_7
REMARK    4  A    between atoms: C_7  and  C_8
REMARK    5  A    between atoms: N_13  and  C_14
REMARK    6  A    between atoms: C_18  and  C_19
REMARK                            x       y       z     vdW  Elec       q    Type
REMARK                         _______ _______ _______ _____ _____    ______ ____
ROOT
ATOM      1  C   UNK A   0     -11.025  12.914  67.524  0.00  0.00    +0.266 C 
ATOM      2  N   UNK A   2     -10.430  14.183  67.547  0.00  0.00    -0.191 NA
ATOM      3  O   UNK A   0     -11.937  12.661  68.367  0.00  0.00    -0.268 OA
ENDROOT
BRANCH   2   4
ATOM      4  C   UNK A   2     -10.192  14.597  69.077  0.00  0.00    +0.200 C 
ATOM      5  C   UNK A   2      -8.875  15.638  68.831  0.00  0.00    +0.157 C 
ATOM      6  N   UNK A   2      -9.930  16.496  68.146  0.00  0.00    -0.242 N 
ATOM      7  C   UNK A   2      -9.386  17.744  67.723  0.00  0.00    +0.132 C 
ATOM      8  C   UNK A   2      -8.228  17.673  67.085  0.00  0.00    +0.007 C 
ATOM      9  C   UNK A   2      -7.851  16.471  66.277  0.00  0.00    +0.087 C 
ATOM     10  S   UNK A   2      -8.057  14.942  67.254  0.00  0.00    -0.114 S 
ATOM     11  C   UNK A   2     -11.046  15.969  68.883  0.00  0.00    +0.253 C 
ATOM     12  O   UNK A   2     -11.942  16.404  69.658  0.00  0.00    -0.273 OA
BRANCH   7  13
ATOM     13  C   UNK A   2     -10.020  19.036  68.021  0.00  0.00    +0.401 C 
ATOM     14  O   UNK A   2      -9.897  19.542  69.319  0.00  0.00    -0.239 OA
ATOM     15  O   UNK A   2     -11.118  19.239  67.430  0.00  0.00    -0.239 OA
ENDBRANCH   7  13
ENDBRANCH   2   4
BRANCH   1  16
ATOM     16  C   UNK A   0     -10.575  11.752  66.747  0.00  0.00    +0.070 C 
ATOM     17  C   UNK A   0     -11.147  11.683  65.539  0.00  0.00    -0.008 C 
BRANCH  16  22
ATOM     18  N   UNK A   0     -10.956   6.975  67.148  0.00  0.00    -0.100 NA
ATOM     19  C   UNK A   0     -10.469   8.256  67.552  0.00  0.00    +0.201 A 
ATOM     20  S   UNK A   0      -9.584   8.747  68.937  0.00  0.00    -0.048 S 
ATOM     21  C   UNK A   0      -9.422  10.409  68.532  0.00  0.00    +0.057 A 
ATOM     22  C   UNK A   0     -10.263  10.476  67.424  0.00  0.00    +0.094 A 
ATOM     23  N   UNK A   0     -10.240   9.320  66.744  0.00  0.00    -0.221 NA
ENDBRANCH  16  22
BRANCH  17  24
ATOM     24  C   UNK A   0     -12.349  12.511  65.200  0.00  0.00    +0.140 C 
BRANCH  24  25
ATOM     25  C   UNK A   0     -12.194  13.071  63.855  0.00  0.00    +0.369 C 
ATOM     26  O   UNK A   0     -12.571  14.380  63.655  0.00  0.00    -0.245 OA
ATOM     27  O   UNK A   0     -11.356  12.530  63.074  0.00  0.00    -0.245 OA
ENDBRANCH  24  25
ENDBRANCH  17  24
ENDBRANCH   1  16
TORSDOF 6
ENDMDL
MODEL 5
REMARK VINA RESULT:      -6.4      3.223      8.340
REMARK  Name = 
REMARK  6 active torsions:
REMARK  status: ('A' for Active; 'I' for Inactive)
REMARK    1  A    between atoms: C_4  and  C_5
REMARK    2  A    between atoms: C_5  and  C_11
REMARK    3  A    between atoms: C_6  and  C_7
REMARK    4  A    between atoms: C_7  and  C_8
REMARK    5  A    between atoms: N_13  and  C_14
REMARK    6  A    between atoms: C_18  and  C_19
REMARK                            x       y       z     vdW  Elec       q    Type
REMARK                         _______ _______ _______ _____ _____    ______ ____
ROOT
ATOM      1  C   UNK A   0      -6.991  20.436  67.726  0.00  0.00    +0.266 C 
ATOM      2  N   UNK A   2      -7.569  19.199  68.046  0.00  0.00    -0.191 NA
ATOM      3  O   UNK A   0      -7.733  21.336  67.230  0.00  0.00    -0.268 OA
ENDROOT
BRANCH   2   4
ATOM      4  C   UNK A   2      -8.575  18.795  66.866  0.00  0.00    +0.200 C 
ATOM      5  C   UNK A   2      -8.589  17.120  67.138  0.00  0.00    +0.157 C 
ATOM      6  N   UNK A   2      -9.313  17.531  68.414  0.00  0.00    -0.242 N 
ATOM      7  C   UNK A   2      -9.730  16.390  69.161  0.00  0.00    +0.132 C 
ATOM      8  C   UNK A   2      -8.814  15.449  69.320  0.00  0.00    +0.007 C 
ATOM      9  C   UNK A   2      -7.353  15.773  69.357  0.00  0.00    +0.087 C 
ATOM     10  S   UNK A   2      -6.879  16.790  67.916  0.00  0.00    -0.114 S 
ATOM     11  C   UNK A   2      -9.836  18.764  67.893  0.00  0.00    +0.253 C 
ATOM     12  O   UNK A   2     -10.967  19.291  67.701  0.00  0.00    -0.273 OA
BRANCH   7  13
ATOM     13  C   UNK A   2     -11.097  16.225  69.672  0.00  0.00    +0.401 C 
ATOM     14  O   UNK A   2     -11.286  15.400  70.786  0.00  0.00    -0.239 OA
ATOM     15  O   UNK A   2     -11.998  16.202  68.786  0.00  0.00    -0.239 OA
ENDBRANCH   7  13
ENDBRANCH   2   4
BRANCH   1  16
ATOM     16  C   UNK A   0      -5.558  20.755  67.719  0.00  0.00    +0.070 C 
ATOM     17  C   UNK A   0      -4.958  20.421  66.570  0.00  0.00    -0.008 C 
BRANCH  16  22
ATOM     18  N   UNK A   0      -4.426  22.199  72.164  0.00  0.00    -0.100 NA
ATOM     19  C   UNK A   0      -4.289  21.350  71.023  0.00  0.00    +0.201 A 
ATOM     20  S   UNK A   0      -3.141  20.132  70.648  0.00  0.00    -0.048 S 
ATOM     21  C   UNK A   0      -3.799  19.651  69.135  0.00  0.00    +0.057 A 
ATOM     22  C   UNK A   0      -4.762  20.641  68.959  0.00  0.00    +0.094 A 
ATOM     23  N   UNK A   0      -5.266  21.025  70.142  0.00  0.00    -0.221 NA
ENDBRANCH  16  22
BRANCH  17  24
ATOM     24  C   UNK A   0      -5.627  19.520  65.577  0.00  0.00    +0.140 C 
BRANCH  24  25
ATOM     25  C   UNK A   0      -5.552  20.121  64.243  0.00  0.00    +0.369 C 
ATOM     26  O   UNK A   0      -4.657  21.150  64.050  0.00  0.00    -0.245 OA
ATOM     27  O   UNK A   0      -5.947  19.435  63.254  0.00  0.00    -0.245 OA
ENDBRANCH  24  25
ENDBRANCH  17  24
ENDBRANCH   1  16
TORSDOF 6
ENDMDL
MODEL 6
REMARK VINA RESULT:      -6.3      2.914      6.725
REMARK  Name = 
REMARK  6 active torsions:
REMARK  status: ('A' for Active; 'I' for Inactive)
REMARK    1  A    between atoms: C_4  and  C_5
REMARK    2  A    between atoms: C_5  and  C_11
REMARK    3  A    between atoms: C_6  and  C_7
REMARK    4  A    between atoms: C_7  and  C_8
REMARK    5  A    between atoms: N_13  and  C_14
REMARK    6  A    between atoms: C_18  and  C_19
REMARK                            x       y       z     vdW  Elec       q    Type
REMARK                         _______ _______ _______ _____ _____    ______ ____
ROOT
ATOM      1  C   UNK A   0      -9.312  15.227  68.217  0.00  0.00    +0.266 C 
ATOM      2  N   UNK A   2      -9.930  14.475  67.207  0.00  0.00    -0.191 NA
ATOM      3  O   UNK A   0      -8.492  14.642  68.987  0.00  0.00    -0.268 OA
ENDROOT
BRANCH   2   4
ATOM      4  C   UNK A   2     -10.340  13.053  67.821  0.00  0.00    +0.200 C 
ATOM      5  C   UNK A   2     -11.567  12.669  66.714  0.00  0.00    +0.157 C 
ATOM      6  N   UNK A   2     -10.395  12.577  65.744  0.00  0.00    -0.242 N 
ATOM      7  C   UNK A   2     -10.824  12.146  64.455  0.00  0.00    +0.132 C 
ATOM      8  C   UNK A   2     -11.894  12.760  63.977  0.00  0.00    +0.007 C 
ATOM      9  C   UNK A   2     -12.221  14.172  64.351  0.00  0.00    +0.087 C 
ATOM     10  S   UNK A   2     -12.210  14.380  66.166  0.00  0.00    -0.114 S 
ATOM     11  C   UNK A   2      -9.407  12.271  66.742  0.00  0.00    +0.253 C 
ATOM     12  O   UNK A   2      -8.595  11.337  66.996  0.00  0.00    -0.273 OA
BRANCH   7  13
ATOM     13  C   UNK A   2     -10.174  11.052  63.721  0.00  0.00    +0.401 C 
ATOM     14  O   UNK A   2      -9.911   9.864  64.412  0.00  0.00    -0.239 OA
ATOM     15  O   UNK A   2      -9.317  11.417  62.868  0.00  0.00    -0.239 OA
ENDBRANCH   7  13
ENDBRANCH   2   4
BRANCH   1  16
ATOM     16  C   UNK A   0      -9.654  16.598  68.619  0.00  0.00    +0.070 C 
ATOM     17  C   UNK A   0     -10.659  16.644  69.501  0.00  0.00    -0.008 C 
BRANCH  16  22
ATOM     18  N   UNK A   0      -7.171  19.221  65.444  0.00  0.00    -0.100 NA
ATOM     19  C   UNK A   0      -8.349  18.882  66.177  0.00  0.00    +0.201 A 
ATOM     20  S   UNK A   0      -9.864  19.674  66.318  0.00  0.00    -0.048 S 
ATOM     21  C   UNK A   0     -10.633  18.527  67.339  0.00  0.00    +0.057 A 
ATOM     22  C   UNK A   0      -9.551  17.708  67.649  0.00  0.00    +0.094 A 
ATOM     23  N   UNK A   0      -8.694  17.647  66.618  0.00  0.00    -0.221 NA
ENDBRANCH  16  22
BRANCH  17  24
ATOM     24  C   UNK A   0     -11.528  15.448  69.753  0.00  0.00    +0.140 C 
BRANCH  24  25
ATOM     25  C   UNK A   0     -12.165  15.575  71.066  0.00  0.00    +0.369 C 
ATOM     26  O   UNK A   0     -13.539  15.653  71.111  0.00  0.00    -0.245 OA
ATOM     27  O   UNK A   0     -11.523  15.179  72.084  0.00  0.00    -0.245 OA
ENDBRANCH  24  25
ENDBRANCH  17  24
ENDBRANCH   1  16
TORSDOF 6
ENDMDL
MODEL 7
REMARK VINA RESULT:      -6.2      1.750      2.053
REMARK  Name = 
REMARK  6 active torsions:
REMARK  status: ('A' for Active; 'I' for Inactive)
REMARK    1  A    between atoms: C_4  and  C_5
REMARK    2  A    between atoms: C_5  and  C_11
REMARK    3  A    between atoms: C_6  and  C_7
REMARK    4  A    between atoms: C_7  and  C_8
REMARK    5  A    between atoms: N_13  and  C_14
REMARK    6  A    between atoms: C_18  and  C_19
REMARK                            x       y       z     vdW  Elec       q    Type
REMARK                         _______ _______ _______ _____ _____    ______ ____
ROOT
ATOM      1  C   UNK A   0      -9.834  14.738  67.326  0.00  0.00    +0.266 C 
ATOM      2  N   UNK A   2      -9.423  16.074  67.431  0.00  0.00    -0.191 NA
ATOM      3  O   UNK A   0      -8.949  13.831  67.367  0.00  0.00    -0.268 OA
ENDROOT
BRANCH   2   4
ATOM      4  C   UNK A   2      -8.096  16.261  66.552  0.00  0.00    +0.200 C 
ATOM      5  C   UNK A   2      -8.296  17.904  66.180  0.00  0.00    +0.157 C 
ATOM      6  N   UNK A   2      -8.042  18.073  67.672  0.00  0.00    -0.242 N 
ATOM      7  C   UNK A   2      -7.997  19.451  68.036  0.00  0.00    +0.132 C 
ATOM      8  C   UNK A   2      -8.973  20.200  67.550  0.00  0.00    +0.007 C 
ATOM      9  C   UNK A   2     -10.327  19.632  67.257  0.00  0.00    +0.087 C 
ATOM     10  S   UNK A   2     -10.190  18.133  66.222  0.00  0.00    -0.114 S 
ATOM     11  C   UNK A   2      -7.284  16.862  67.827  0.00  0.00    +0.253 C 
ATOM     12  O   UNK A   2      -6.124  16.528  68.197  0.00  0.00    -0.273 OA
BRANCH   7  13
ATOM     13  C   UNK A   2      -6.912  20.030  68.840  0.00  0.00    +0.401 C 
ATOM     14  O   UNK A   2      -5.818  20.581  68.165  0.00  0.00    -0.239 OA
ATOM     15  O   UNK A   2      -6.669  19.425  69.922  0.00  0.00    -0.239 OA
ENDBRANCH   7  13
ENDBRANCH   2   4
BRANCH   1  16
ATOM     16  C   UNK A   0     -11.178  14.263  66.975  0.00  0.00    +0.070 C 
ATOM     17  C   UNK A   0     -11.929  13.990  68.048  0.00  0.00    -0.008 C 
BRANCH  16  22
ATOM     18  N   UNK A   0     -10.272  10.338  64.347  0.00  0.00    -0.100 NA
ATOM     19  C   UNK A   0     -10.931  11.580  64.603  0.00  0.00    +0.201 A 
ATOM     20  S   UNK A   0     -11.956  12.543  63.621  0.00  0.00    -0.048 S 
ATOM     21  C   UNK A   0     -12.282  13.780  64.769  0.00  0.00    +0.057 A 
ATOM     22  C   UNK A   0     -11.384  13.428  65.773  0.00  0.00    +0.094 A 
ATOM     23  N   UNK A   0     -11.227  12.096  65.820  0.00  0.00    -0.221 NA
ENDBRANCH  16  22
BRANCH  17  24
ATOM     24  C   UNK A   0     -11.320  13.866  69.412  0.00  0.00    +0.140 C 
BRANCH  24  25
ATOM     25  C   UNK A   0     -12.053  14.715  70.355  0.00  0.00    +0.369 C 
ATOM     26  O   UNK A   0     -12.344  16.004  69.968  0.00  0.00    -0.245 OA
ATOM     27  O   UNK A   0     -12.753  14.152  71.248  0.00  0.00    -0.245 OA
ENDBRANCH  24  25
ENDBRANCH  17  24
ENDBRANCH   1  16
TORSDOF 6
ENDMDL
MODEL 8
REMARK VINA RESULT:      -6.2      1.332      1.442
REMARK  Name = 
REMARK  6 active torsions:
REMARK  status: ('A' for Active; 'I' for Inactive)
REMARK    1  A    between atoms: C_4  and  C_5
REMARK    2  A    between atoms: C_5  and  C_11
REMARK    3  A    between atoms: C_6  and  C_7
REMARK    4  A    between atoms: C_7  and  C_8
REMARK    5  A    between atoms: N_13  and  C_14
REMARK    6  A    between atoms: C_18  and  C_19
REMARK                            x       y       z     vdW  Elec       q    Type
REMARK                         _______ _______ _______ _____ _____    ______ ____
ROOT
ATOM      1  C   UNK A   0     -10.087  15.228  69.068  0.00  0.00    +0.266 C 
ATOM      2  N   UNK A   2      -9.775  16.380  68.331  0.00  0.00    -0.191 NA
ATOM      3  O   UNK A   0      -9.146  14.617  69.658  0.00  0.00    -0.268 OA
ENDROOT
BRANCH   2   4
ATOM      4  C   UNK A   2      -8.417  16.107  67.525  0.00  0.00    +0.200 C 
ATOM      5  C   UNK A   2      -8.358  17.571  66.670  0.00  0.00    +0.157 C 
ATOM      6  N   UNK A   2      -8.113  18.147  68.059  0.00  0.00    -0.242 N 
ATOM      7  C   UNK A   2      -7.867  19.550  68.000  0.00  0.00    +0.132 C 
ATOM      8  C   UNK A   2      -8.708  20.244  67.251  0.00  0.00    +0.007 C 
ATOM      9  C   UNK A   2     -10.125  19.807  67.052  0.00  0.00    +0.087 C 
ATOM     10  S   UNK A   2     -10.196  18.061  66.518  0.00  0.00    -0.114 S 
ATOM     11  C   UNK A   2      -7.550  16.947  68.615  0.00  0.00    +0.253 C 
ATOM     12  O   UNK A   2      -6.462  16.584  69.142  0.00  0.00    -0.273 OA
BRANCH   7  13
ATOM     13  C   UNK A   2      -6.724  20.190  68.666  0.00  0.00    +0.401 C 
ATOM     14  O   UNK A   2      -5.506  20.234  67.979  0.00  0.00    -0.239 OA
ATOM     15  O   UNK A   2      -6.668  20.014  69.915  0.00  0.00    -0.239 OA
ENDBRANCH   7  13
ENDBRANCH   2   4
BRANCH   1  16
ATOM     16  C   UNK A   0     -11.374  14.521  69.078  0.00  0.00    +0.070 C 
ATOM     17  C   UNK A   0     -12.254  15.059  69.931  0.00  0.00    -0.008 C 
BRANCH  16  22
ATOM     18  N   UNK A   0     -11.329  10.028  70.794  0.00  0.00    -0.100 NA
ATOM     19  C   UNK A   0     -11.407  10.994  69.744  0.00  0.00    +0.201 A 
ATOM     20  S   UNK A   0     -11.402  10.816  68.038  0.00  0.00    -0.048 S 
ATOM     21  C   UNK A   0     -11.578  12.476  67.630  0.00  0.00    +0.057 A 
ATOM     22  C   UNK A   0     -11.423  13.056  68.887  0.00  0.00    +0.094 A 
ATOM     23  N   UNK A   0     -11.908  12.249  69.843  0.00  0.00    -0.221 NA
ENDBRANCH  16  22
BRANCH  17  24
ATOM     24  C   UNK A   0     -11.822  16.041  70.977  0.00  0.00    +0.140 C 
BRANCH  24  25
ATOM     25  C   UNK A   0     -12.663  15.890  72.167  0.00  0.00    +0.369 C 
ATOM     26  O   UNK A   0     -12.146  16.295  73.378  0.00  0.00    -0.245 OA
ATOM     27  O   UNK A   0     -13.919  15.825  72.009  0.00  0.00    -0.245 OA
ENDBRANCH  24  25
ENDBRANCH  17  24
ENDBRANCH   1  16
TORSDOF 6
ENDMDL
MODEL 9
REMARK VINA RESULT:      -6.1      3.122      8.148
REMARK  Name = 
REMARK  6 active torsions:
REMARK  status: ('A' for Active; 'I' for Inactive)
REMARK    1  A    between atoms: C_4  and  C_5
REMARK    2  A    between atoms: C_5  and  C_11
REMARK    3  A    between atoms: C_6  and  C_7
REMARK    4  A    between atoms: C_7  and  C_8
REMARK    5  A    between atoms: N_13  and  C_14
REMARK    6  A    between atoms: C_18  and  C_19
REMARK                            x       y       z     vdW  Elec       q    Type
REMARK                         _______ _______ _______ _____ _____    ______ ____
ROOT
ATOM      1  C   UNK A   0      -6.663  20.045  67.816  0.00  0.00    +0.266 C 
ATOM      2  N   UNK A   2      -7.556  18.965  67.876  0.00  0.00    -0.191 NA
ATOM      3  O   UNK A   0      -7.125  21.195  67.549  0.00  0.00    -0.268 OA
ENDROOT
BRANCH   2   4
ATOM      4  C   UNK A   2      -8.597  19.108  66.667  0.00  0.00    +0.200 C 
ATOM      5  C   UNK A   2      -8.760  17.458  66.308  0.00  0.00    +0.157 C 
ATOM      6  N   UNK A   2      -9.440  17.427  67.670  0.00  0.00    -0.242 N 
ATOM      7  C   UNK A   2      -9.954  16.130  67.962  0.00  0.00    +0.132 C 
ATOM      8  C   UNK A   2      -9.125  15.124  67.732  0.00  0.00    +0.007 C 
ATOM      9  C   UNK A   2      -7.641  15.292  67.833  0.00  0.00    +0.087 C 
ATOM     10  S   UNK A   2      -7.083  16.726  66.849  0.00  0.00    -0.114 S 
ATOM     11  C   UNK A   2      -9.853  18.804  67.656  0.00  0.00    +0.253 C 
ATOM     12  O   UNK A   2     -10.933  19.454  67.711  0.00  0.00    -0.273 OA
BRANCH   7  13
ATOM     13  C   UNK A   2     -11.329  15.900  68.425  0.00  0.00    +0.401 C 
ATOM     14  O   UNK A   2     -11.679  16.365  69.697  0.00  0.00    -0.239 OA
ATOM     15  O   UNK A   2     -11.839  14.805  68.058  0.00  0.00    -0.239 OA
ENDBRANCH   7  13
ENDBRANCH   2   4
BRANCH   1  16
ATOM     16  C   UNK A   0      -5.197  19.968  67.836  0.00  0.00    +0.070 C 
ATOM     17  C   UNK A   0      -4.689  20.071  69.070  0.00  0.00    -0.008 C 
BRANCH  16  22
ATOM     18  N   UNK A   0      -2.198  23.272  66.041  0.00  0.00    -0.100 NA
ATOM     19  C   UNK A   0      -3.002  22.093  65.953  0.00  0.00    +0.201 A 
ATOM     20  S   UNK A   0      -3.437  21.116  64.612  0.00  0.00    -0.048 S 
ATOM     21  C   UNK A   0      -4.352  19.940  65.469  0.00  0.00    +0.057 A 
ATOM     22  C   UNK A   0      -4.404  20.536  66.726  0.00  0.00    +0.094 A 
ATOM     23  N   UNK A   0      -3.284  21.236  66.964  0.00  0.00    -0.221 NA
ENDBRANCH  16  22
BRANCH  17  24
ATOM     24  C   UNK A   0      -5.524  20.554  70.217  0.00  0.00    +0.140 C 
BRANCH  24  25
ATOM     25  C   UNK A   0      -4.699  20.628  71.425  0.00  0.00    +0.369 C 
ATOM     26  O   UNK A   0      -4.542  21.858  72.024  0.00  0.00    -0.245 OA
ATOM     27  O   UNK A   0      -4.538  19.571  72.106  0.00  0.00    -0.245 OA
ENDBRANCH  24  25
ENDBRANCH  17  24
ENDBRANCH   1  16
TORSDOF 6
ENDMDL
