MODEL 1
REMARK VINA RESULT:      -6.1      0.000      0.000
REMARK  Name = 
REMARK  9 active torsions:
REMARK  status: ('A' for Active; 'I' for Inactive)
REMARK    1  A    between atoms: C_2  and  N_3
REMARK    2  A    between atoms: N_3  and  C_4
REMARK    3  A    between atoms: N_3  and  C_7
REMARK    4  A    between atoms: C_4  and  C_5
REMARK    5  A    between atoms: C_7  and  C_8
REMARK    6  A    between atoms: C_8  and  C_9
REMARK    7  A    between atoms: C_9  and  C_10
REMARK    8  A    between atoms: C_10  and  N_12
REMARK    9  A    between atoms: N_12  and  C_13
REMARK                            x       y       z     vdW  Elec       q    Type
REMARK                         _______ _______ _______ _____ _____    ______ ____
ROOT
ATOM      1  N   UNL     1     -11.664  14.993  67.986  0.00  0.00    -0.239 NA
ENDROOT
BRANCH   1   2
ATOM      2  C   UNL     1     -11.845  13.884  67.098  0.00  0.00    +0.068 A 
ATOM      3  C   UNL     1     -11.589  12.629  67.592  0.00  0.00    +0.033 A 
ATOM      4  C   UNL     1     -11.231  11.574  66.785  0.00  0.00    +0.083 A 
ATOM      5  C   UNL     1     -10.888  10.354  67.349  0.00  0.00    +0.031 A 
ATOM      6  C   UNL     1     -11.109  10.145  68.701  0.00  0.00    +0.059 A 
ATOM      7  C   UNL     1     -11.717  11.142  69.421  0.00  0.00    +0.012 A 
ATOM      8 CL   UNL     1     -10.257   8.875  69.560  0.00  0.00    -0.082 Cl
ATOM      9  N   UNL     1     -11.239  11.769  65.444  0.00  0.00    -0.244 NA
ATOM     10  C   UNL     1     -11.644  12.937  64.922  0.00  0.00    +0.100 A 
ATOM     11  C   UNL     1     -11.830  12.434  68.943  0.00  0.00    +0.004 A 
ATOM     12  C   UNL     1     -11.960  14.022  65.731  0.00  0.00    +0.037 A 
ENDBRANCH   1   2
BRANCH   1  13
ATOM     13  C   UNL     1     -10.159  15.527  67.994  0.00  0.00    +0.093 C 
ATOM     14  C   UNL     1     -10.675  17.109  67.866  0.00  0.00    +0.023 C 
BRANCH  13  15
ATOM     15  C   UNL     1     -10.154  15.619  69.660  0.00  0.00    +0.023 C 
BRANCH  15  16
ATOM     16  C   UNL     1     -11.582  15.999  70.010  0.00  0.00    +0.019 C 
BRANCH  16  17
ATOM     17  C   UNL     1     -11.735  16.138  71.500  0.00  0.00    +0.072 C 
BRANCH  17  18
ATOM     18  N   UNL     1     -12.607  15.152  72.086  0.00  0.00    -0.270 NA
BRANCH  18  20
ATOM     19  C   UNL     1     -14.913  15.012  71.505  0.00  0.00    +0.019 C 
ATOM     20  C   UNL     1     -13.659  14.770  71.172  0.00  0.00    +0.072 C 
ENDBRANCH  18  20
BRANCH  18  21
ATOM     21  C   UNL     1     -13.272  15.814  73.208  0.00  0.00    +0.108 C 
BRANCH  21  22
ATOM     22  C   UNL     1     -12.412  15.565  74.443  0.00  0.00    +0.199 C 
ATOM     23  O   UNL     1     -12.350  16.766  75.149  0.00  0.00    -0.219 OA
ENDBRANCH  21  22
ENDBRANCH  18  21
ENDBRANCH  17  18
ENDBRANCH  16  17
ENDBRANCH  15  16
ENDBRANCH  13  15
ENDBRANCH   1  13
TORSDOF 9
ENDMDL
MODEL 2
REMARK VINA RESULT:      -6.0      2.880      5.840
REMARK  Name = 
REMARK  9 active torsions:
REMARK  status: ('A' for Active; 'I' for Inactive)
REMARK    1  A    between atoms: C_2  and  N_3
REMARK    2  A    between atoms: N_3  and  C_4
REMARK    3  A    between atoms: N_3  and  C_7
REMARK    4  A    between atoms: C_4  and  C_5
REMARK    5  A    between atoms: C_7  and  C_8
REMARK    6  A    between atoms: C_8  and  C_9
REMARK    7  A    between atoms: C_9  and  C_10
REMARK    8  A    between atoms: C_10  and  N_12
REMARK    9  A    between atoms: N_12  and  C_13
REMARK                            x       y       z     vdW  Elec       q    Type
REMARK                         _______ _______ _______ _____ _____    ______ ____
ROOT
ATOM      1  N   UNL     1     -11.882  15.266  69.183  0.00  0.00    -0.239 NA
ENDROOT
BRANCH   1   2
ATOM      2  C   UNL     1     -12.164  14.916  70.543  0.00  0.00    +0.068 A 
ATOM      3  C   UNL     1     -12.426  13.597  70.816  0.00  0.00    +0.033 A 
ATOM      4  C   UNL     1     -13.177  13.199  71.897  0.00  0.00    +0.083 A 
ATOM      5  C   UNL     1     -13.492  11.859  72.068  0.00  0.00    +0.031 A 
ATOM      6  C   UNL     1     -12.877  10.909  71.269  0.00  0.00    +0.059 A 
ATOM      7  C   UNL     1     -11.928  11.332  70.372  0.00  0.00    +0.012 A 
ATOM      8 CL   UNL     1     -13.578   9.313  71.075  0.00  0.00    -0.082 Cl
ATOM      9  N   UNL     1     -13.577  14.149  72.777  0.00  0.00    -0.244 NA
ATOM     10  C   UNL     1     -13.198  15.428  72.626  0.00  0.00    +0.100 A 
ATOM     11  C   UNL     1     -11.789  12.660  70.016  0.00  0.00    +0.004 A 
ATOM     12  C   UNL     1     -12.481  15.845  71.511  0.00  0.00    +0.037 A 
ENDBRANCH   1   2
BRANCH   1  13
ATOM     13  C   UNL     1     -10.890  16.514  69.070  0.00  0.00    +0.093 C 
ATOM     14  C   UNL     1      -9.585  15.568  69.502  0.00  0.00    +0.023 C 
BRANCH  13  15
ATOM     15  C   UNL     1     -10.625  16.213  67.450  0.00  0.00    +0.023 C 
BRANCH  15  16
ATOM     16  C   UNL     1      -9.774  14.954  67.446  0.00  0.00    +0.019 C 
BRANCH  16  17
ATOM     17  C   UNL     1     -10.059  14.136  66.217  0.00  0.00    +0.072 C 
BRANCH  17  18
ATOM     18  N   UNL     1     -11.463  13.994  65.930  0.00  0.00    -0.270 NA
BRANCH  18  20
ATOM     19  C   UNL     1     -11.048  11.678  66.309  0.00  0.00    +0.019 C 
ATOM     20  C   UNL     1     -11.929  12.658  66.228  0.00  0.00    +0.072 C 
ENDBRANCH  18  20
BRANCH  18  21
ATOM     21  C   UNL     1     -11.601  14.152  64.482  0.00  0.00    +0.108 C 
BRANCH  21  22
ATOM     22  C   UNL     1     -12.426  15.413  64.251  0.00  0.00    +0.199 C 
ATOM     23  O   UNL     1     -11.534  16.433  63.921  0.00  0.00    -0.219 OA
ENDBRANCH  21  22
ENDBRANCH  18  21
ENDBRANCH  17  18
ENDBRANCH  16  17
ENDBRANCH  15  16
ENDBRANCH  13  15
ENDBRANCH   1  13
TORSDOF 9
ENDMDL
MODEL 3
REMARK VINA RESULT:      -5.8      1.205      1.693
REMARK  Name = 
REMARK  9 active torsions:
REMARK  status: ('A' for Active; 'I' for Inactive)
REMARK    1  A    between atoms: C_2  and  N_3
REMARK    2  A    between atoms: N_3  and  C_4
REMARK    3  A    between atoms: N_3  and  C_7
REMARK    4  A    between atoms: C_4  and  C_5
REMARK    5  A    between atoms: C_7  and  C_8
REMARK    6  A    between atoms: C_8  and  C_9
REMARK    7  A    between atoms: C_9  and  C_10
REMARK    8  A    between atoms: C_10  and  N_12
REMARK    9  A    between atoms: N_12  and  C_13
REMARK                            x       y       z     vdW  Elec       q    Type
REMARK                         _______ _______ _______ _____ _____    ______ ____
ROOT
ATOM      1  N   UNL     1     -11.627  15.032  68.050  0.00  0.00    -0.239 NA
ENDROOT
BRANCH   1   2
ATOM      2  C   UNL     1     -11.860  13.954  67.136  0.00  0.00    +0.068 A 
ATOM      3  C   UNL     1     -11.581  12.683  67.572  0.00  0.00    +0.033 A 
ATOM      4  C   UNL     1     -11.272  11.656  66.710  0.00  0.00    +0.083 A 
ATOM      5  C   UNL     1     -10.902  10.417  67.212  0.00  0.00    +0.031 A 
ATOM      6  C   UNL     1     -11.047  10.161  68.566  0.00  0.00    +0.059 A 
ATOM      7  C   UNL     1     -11.610  11.133  69.353  0.00  0.00    +0.012 A 
ATOM      8 CL   UNL     1     -10.152   8.861  69.332  0.00  0.00    -0.082 Cl
ATOM      9  N   UNL     1     -11.356  11.896  65.379  0.00  0.00    -0.244 NA
ATOM     10  C   UNL     1     -11.785  13.082  64.921  0.00  0.00    +0.100 A 
ATOM     11  C   UNL     1     -11.746  12.441  68.927  0.00  0.00    +0.004 A 
ATOM     12  C   UNL     1     -12.052  14.139  65.784  0.00  0.00    +0.037 A 
ENDBRANCH   1   2
BRANCH   1  13
ATOM     13  C   UNL     1     -10.112  15.540  68.017  0.00  0.00    +0.093 C 
ATOM     14  C   UNL     1     -10.603  17.134  68.025  0.00  0.00    +0.023 C 
BRANCH  13  15
ATOM     15  C   UNL     1     -10.022  15.516  69.683  0.00  0.00    +0.023 C 
BRANCH  15  16
ATOM     16  C   UNL     1     -11.340  16.125  70.130  0.00  0.00    +0.019 C 
BRANCH  16  17
ATOM     17  C   UNL     1     -11.667  15.690  71.532  0.00  0.00    +0.072 C 
BRANCH  17  18
ATOM     18  N   UNL     1     -13.055  15.855  71.880  0.00  0.00    -0.270 NA
BRANCH  18  20
ATOM     19  C   UNL     1     -12.401  16.309  74.126  0.00  0.00    +0.019 C 
ATOM     20  C   UNL     1     -13.259  15.731  73.306  0.00  0.00    +0.072 C 
ENDBRANCH  18  20
BRANCH  18  21
ATOM     21  C   UNL     1     -13.763  14.728  71.275  0.00  0.00    +0.108 C 
BRANCH  21  22
ATOM     22  C   UNL     1     -14.050  13.732  72.394  0.00  0.00    +0.199 C 
ATOM     23  O   UNL     1     -13.421  12.535  72.051  0.00  0.00    -0.219 OA
ENDBRANCH  21  22
ENDBRANCH  18  21
ENDBRANCH  17  18
ENDBRANCH  16  17
ENDBRANCH  15  16
ENDBRANCH  13  15
ENDBRANCH   1  13
TORSDOF 9
ENDMDL
MODEL 4
REMARK VINA RESULT:      -5.8      2.201      3.018
REMARK  Name = 
REMARK  9 active torsions:
REMARK  status: ('A' for Active; 'I' for Inactive)
REMARK    1  A    between atoms: C_2  and  N_3
REMARK    2  A    between atoms: N_3  and  C_4
REMARK    3  A    between atoms: N_3  and  C_7
REMARK    4  A    between atoms: C_4  and  C_5
REMARK    5  A    between atoms: C_7  and  C_8
REMARK    6  A    between atoms: C_8  and  C_9
REMARK    7  A    between atoms: C_9  and  C_10
REMARK    8  A    between atoms: C_10  and  N_12
REMARK    9  A    between atoms: N_12  and  C_13
REMARK                            x       y       z     vdW  Elec       q    Type
REMARK                         _______ _______ _______ _____ _____    ______ ____
ROOT
ATOM      1  N   UNL     1     -10.879  13.009  67.392  0.00  0.00    -0.239 NA
ENDROOT
BRANCH   1   2
ATOM      2  C   UNL     1     -11.418  12.711  66.098  0.00  0.00    +0.068 A 
ATOM      3  C   UNL     1     -10.773  11.761  65.347  0.00  0.00    +0.033 A 
ATOM      4  C   UNL     1     -10.842  11.730  63.974  0.00  0.00    +0.083 A 
ATOM      5  C   UNL     1     -10.089  10.807  63.262  0.00  0.00    +0.031 A 
ATOM      6  C   UNL     1      -9.439   9.792  63.943  0.00  0.00    +0.059 A 
ATOM      7  C   UNL     1      -9.614   9.705  65.300  0.00  0.00    +0.012 A 
ATOM      8 CL   UNL     1      -8.100   8.933  63.202  0.00  0.00    -0.082 Cl
ATOM      9  N   UNL     1     -11.667  12.612  63.359  0.00  0.00    -0.244 NA
ATOM     10  C   UNL     1     -12.437  13.446  64.076  0.00  0.00    +0.100 A 
ATOM     11  C   UNL     1     -10.140  10.744  66.045  0.00  0.00    +0.004 A 
ATOM     12  C   UNL     1     -12.337  13.516  65.460  0.00  0.00    +0.037 A 
ENDBRANCH   1   2
BRANCH   1  13
ATOM     13  C   UNL     1     -12.016  13.355  68.460  0.00  0.00    +0.093 C 
ATOM     14  C   UNL     1     -11.606  12.029  69.386  0.00  0.00    +0.023 C 
BRANCH  13  15
ATOM     15  C   UNL     1     -10.972  14.331  69.321  0.00  0.00    +0.023 C 
BRANCH  15  16
ATOM     16  C   UNL     1     -11.772  15.600  69.563  0.00  0.00    +0.019 C 
BRANCH  16  17
ATOM     17  C   UNL     1     -12.812  15.366  70.624  0.00  0.00    +0.072 C 
BRANCH  17  18
ATOM     18  N   UNL     1     -12.263  14.941  71.887  0.00  0.00    -0.270 NA
BRANCH  18  20
ATOM     19  C   UNL     1     -13.562  12.958  72.125  0.00  0.00    +0.019 C 
ATOM     20  C   UNL     1     -13.204  14.127  72.622  0.00  0.00    +0.072 C 
ENDBRANCH  18  20
BRANCH  18  21
ATOM     21  C   UNL     1     -12.079  16.156  72.680  0.00  0.00    +0.108 C 
BRANCH  21  22
ATOM     22  C   UNL     1     -12.808  15.937  74.001  0.00  0.00    +0.199 C 
ATOM     23  O   UNL     1     -12.325  16.888  74.900  0.00  0.00    -0.219 OA
ENDBRANCH  21  22
ENDBRANCH  18  21
ENDBRANCH  17  18
ENDBRANCH  16  17
ENDBRANCH  15  16
ENDBRANCH  13  15
ENDBRANCH   1  13
TORSDOF 9
ENDMDL
MODEL 5
REMARK VINA RESULT:      -5.7      2.896      4.514
REMARK  Name = 
REMARK  9 active torsions:
REMARK  status: ('A' for Active; 'I' for Inactive)
REMARK    1  A    between atoms: C_2  and  N_3
REMARK    2  A    between atoms: N_3  and  C_4
REMARK    3  A    between atoms: N_3  and  C_7
REMARK    4  A    between atoms: C_4  and  C_5
REMARK    5  A    between atoms: C_7  and  C_8
REMARK    6  A    between atoms: C_8  and  C_9
REMARK    7  A    between atoms: C_9  and  C_10
REMARK    8  A    between atoms: C_10  and  N_12
REMARK    9  A    between atoms: N_12  and  C_13
REMARK                            x       y       z     vdW  Elec       q    Type
REMARK                         _______ _______ _______ _____ _____    ______ ____
ROOT
ATOM      1  N   UNL     1     -10.316  13.860  68.171  0.00  0.00    -0.239 NA
ENDROOT
BRANCH   1   2
ATOM      2  C   UNL     1     -10.133  14.664  66.999  0.00  0.00    +0.068 A 
ATOM      3  C   UNL     1      -9.483  15.863  67.149  0.00  0.00    +0.033 A 
ATOM      4  C   UNL     1      -9.672  16.920  66.290  0.00  0.00    +0.083 A 
ATOM      5  C   UNL     1      -9.064  18.140  66.547  0.00  0.00    +0.031 A 
ATOM      6  C   UNL     1      -8.110  18.226  67.547  0.00  0.00    +0.059 A 
ATOM      7  C   UNL     1      -7.759  17.077  68.209  0.00  0.00    +0.012 A 
ATOM      8 CL   UNL     1      -7.693  19.777  68.255  0.00  0.00    -0.082 Cl
ATOM      9  N   UNL     1     -10.450  16.720  65.198  0.00  0.00    -0.244 NA
ATOM     10  C   UNL     1     -10.967  15.510  64.936  0.00  0.00    +0.100 A 
ATOM     11  C   UNL     1      -8.520  15.926  68.145  0.00  0.00    +0.004 A 
ATOM     12  C   UNL     1     -10.821  14.451  65.824  0.00  0.00    +0.037 A 
ENDBRANCH   1   2
BRANCH   1  13
ATOM     13  C   UNL     1     -11.753  14.070  68.835  0.00  0.00    +0.093 C 
ATOM     14  C   UNL     1     -11.775  12.495  69.387  0.00  0.00    +0.023 C 
BRANCH  13  15
ATOM     15  C   UNL     1     -11.066  14.603  70.259  0.00  0.00    +0.023 C 
BRANCH  15  16
ATOM     16  C   UNL     1     -11.700  15.966  70.484  0.00  0.00    +0.019 C 
BRANCH  16  17
ATOM     17  C   UNL     1     -12.584  15.936  71.700  0.00  0.00    +0.072 C 
BRANCH  17  18
ATOM     18  N   UNL     1     -12.696  14.632  72.302  0.00  0.00    -0.270 NA
BRANCH  18  20
ATOM     19  C   UNL     1     -14.957  14.841  71.582  0.00  0.00    +0.019 C 
ATOM     20  C   UNL     1     -14.049  14.131  72.225  0.00  0.00    +0.072 C 
ENDBRANCH  18  20
BRANCH  18  21
ATOM     21  C   UNL     1     -12.417  14.814  73.725  0.00  0.00    +0.108 C 
BRANCH  21  22
ATOM     22  C   UNL     1     -12.486  16.312  74.002  0.00  0.00    +0.199 C 
ATOM     23  O   UNL     1     -12.439  16.478  75.386  0.00  0.00    -0.219 OA
ENDBRANCH  21  22
ENDBRANCH  18  21
ENDBRANCH  17  18
ENDBRANCH  16  17
ENDBRANCH  15  16
ENDBRANCH  13  15
ENDBRANCH   1  13
TORSDOF 9
ENDMDL
MODEL 6
REMARK VINA RESULT:      -5.7      3.706      7.169
REMARK  Name = 
REMARK  9 active torsions:
REMARK  status: ('A' for Active; 'I' for Inactive)
REMARK    1  A    between atoms: C_2  and  N_3
REMARK    2  A    between atoms: N_3  and  C_4
REMARK    3  A    between atoms: N_3  and  C_7
REMARK    4  A    between atoms: C_4  and  C_5
REMARK    5  A    between atoms: C_7  and  C_8
REMARK    6  A    between atoms: C_8  and  C_9
REMARK    7  A    between atoms: C_9  and  C_10
REMARK    8  A    between atoms: C_10  and  N_12
REMARK    9  A    between atoms: N_12  and  C_13
REMARK                            x       y       z     vdW  Elec       q    Type
REMARK                         _______ _______ _______ _____ _____    ______ ____
ROOT
ATOM      1  N   UNL     1     -10.584  13.176  68.413  0.00  0.00    -0.239 NA
ENDROOT
BRANCH   1   2
ATOM      2  C   UNL     1     -11.614  12.575  69.206  0.00  0.00    +0.068 A 
ATOM      3  C   UNL     1     -12.179  13.340  70.197  0.00  0.00    +0.033 A 
ATOM      4  C   UNL     1     -12.769  12.790  71.311  0.00  0.00    +0.083 A 
ATOM      5  C   UNL     1     -13.235  13.613  72.326  0.00  0.00    +0.031 A 
ATOM      6  C   UNL     1     -13.291  14.981  72.120  0.00  0.00    +0.059 A 
ATOM      7  C   UNL     1     -12.936  15.467  70.887  0.00  0.00    +0.012 A 
ATOM      8 CL   UNL     1     -13.370  16.088  73.478  0.00  0.00    -0.082 Cl
ATOM      9  N   UNL     1     -12.886  11.441  71.368  0.00  0.00    -0.244 NA
ATOM     10  C   UNL     1     -12.492  10.674  70.340  0.00  0.00    +0.100 A 
ATOM     11  C   UNL     1     -12.240  14.706  69.966  0.00  0.00    +0.004 A 
ATOM     12  C   UNL     1     -11.851  11.218  69.233  0.00  0.00    +0.037 A 
ENDBRANCH   1   2
BRANCH   1  13
ATOM     13  C   UNL     1     -10.903  13.110  66.849  0.00  0.00    +0.093 C 
ATOM     14  C   UNL     1     -10.677  14.755  66.691  0.00  0.00    +0.023 C 
BRANCH  13  15
ATOM     15  C   UNL     1      -9.301  12.812  66.490  0.00  0.00    +0.023 C 
BRANCH  15  16
ATOM     16  C   UNL     1      -9.292  11.365  66.029  0.00  0.00    +0.019 C 
BRANCH  16  17
ATOM     17  C   UNL     1     -10.599  11.018  65.371  0.00  0.00    +0.072 C 
BRANCH  17  18
ATOM     18  N   UNL     1     -10.488  10.781  63.955  0.00  0.00    -0.270 NA
BRANCH  18  20
ATOM     19  C   UNL     1      -8.750  10.740  62.326  0.00  0.00    +0.019 C 
ATOM     20  C   UNL     1      -9.121  10.511  63.571  0.00  0.00    +0.072 C 
ENDBRANCH  18  20
BRANCH  18  21
ATOM     21  C   UNL     1     -10.846  12.040  63.302  0.00  0.00    +0.108 C 
BRANCH  21  22
ATOM     22  C   UNL     1     -12.345  12.231  63.500  0.00  0.00    +0.199 C 
ATOM     23  O   UNL     1     -12.572  13.602  63.628  0.00  0.00    -0.219 OA
ENDBRANCH  21  22
ENDBRANCH  18  21
ENDBRANCH  17  18
ENDBRANCH  16  17
ENDBRANCH  15  16
ENDBRANCH  13  15
ENDBRANCH   1  13
TORSDOF 9
ENDMDL
MODEL 7
REMARK VINA RESULT:      -5.7      2.667      4.452
REMARK  Name = 
REMARK  9 active torsions:
REMARK  status: ('A' for Active; 'I' for Inactive)
REMARK    1  A    between atoms: C_2  and  N_3
REMARK    2  A    between atoms: N_3  and  C_4
REMARK    3  A    between atoms: N_3  and  C_7
REMARK    4  A    between atoms: C_4  and  C_5
REMARK    5  A    between atoms: C_7  and  C_8
REMARK    6  A    between atoms: C_8  and  C_9
REMARK    7  A    between atoms: C_9  and  C_10
REMARK    8  A    between atoms: C_10  and  N_12
REMARK    9  A    between atoms: N_12  and  C_13
REMARK                            x       y       z     vdW  Elec       q    Type
REMARK                         _______ _______ _______ _____ _____    ______ ____
ROOT
ATOM      1  N   UNL     1     -10.183  11.844  66.938  0.00  0.00    -0.239 NA
ENDROOT
BRANCH   1   2
ATOM      2  C   UNL     1     -10.639  12.472  65.734  0.00  0.00    +0.068 A 
ATOM      3  C   UNL     1     -10.547  13.840  65.659  0.00  0.00    +0.033 A 
ATOM      4  C   UNL     1     -11.363  14.594  64.848  0.00  0.00    +0.083 A 
ATOM      5  C   UNL     1     -11.292  15.978  64.887  0.00  0.00    +0.031 A 
ATOM      6  C   UNL     1     -10.261  16.586  65.585  0.00  0.00    +0.059 A 
ATOM      7  C   UNL     1      -9.310  15.786  66.165  0.00  0.00    +0.012 A 
ATOM      8 CL   UNL     1     -10.392  18.258  66.098  0.00  0.00    -0.082 Cl
ATOM      9  N   UNL     1     -12.212  13.940  64.017  0.00  0.00    -0.244 NA
ATOM     10  C   UNL     1     -12.210  12.600  63.948  0.00  0.00    +0.100 A 
ATOM     11  C   UNL     1      -9.500  14.429  66.351  0.00  0.00    +0.004 A 
ATOM     12  C   UNL     1     -11.424  11.832  64.799  0.00  0.00    +0.037 A 
ENDBRANCH   1   2
BRANCH   1  13
ATOM     13  C   UNL     1     -11.368  11.133  67.739  0.00  0.00    +0.093 C 
ATOM     14  C   UNL     1     -10.347   9.920  68.256  0.00  0.00    +0.023 C 
BRANCH  13  15
ATOM     15  C   UNL     1     -11.049  12.040  69.103  0.00  0.00    +0.023 C 
BRANCH  15  16
ATOM     16  C   UNL     1     -11.981  13.233  68.977  0.00  0.00    +0.019 C 
BRANCH  16  17
ATOM     17  C   UNL     1     -12.247  13.833  70.330  0.00  0.00    +0.072 C 
BRANCH  17  18
ATOM     18  N   UNL     1     -12.485  15.253  70.296  0.00  0.00    -0.270 NA
BRANCH  18  20
ATOM     19  C   UNL     1     -10.752  16.645  69.438  0.00  0.00    +0.019 C 
ATOM     20  C   UNL     1     -11.795  15.876  69.189  0.00  0.00    +0.072 C 
ENDBRANCH  18  20
BRANCH  18  21
ATOM     21  C   UNL     1     -11.871  15.797  71.507  0.00  0.00    +0.108 C 
BRANCH  21  22
ATOM     22  C   UNL     1     -12.840  15.529  72.654  0.00  0.00    +0.199 C 
ATOM     23  O   UNL     1     -14.108  15.911  72.219  0.00  0.00    -0.219 OA
ENDBRANCH  21  22
ENDBRANCH  18  21
ENDBRANCH  17  18
ENDBRANCH  16  17
ENDBRANCH  15  16
ENDBRANCH  13  15
ENDBRANCH   1  13
TORSDOF 9
ENDMDL
MODEL 8
REMARK VINA RESULT:      -5.7      3.165      6.268
REMARK  Name = 
REMARK  9 active torsions:
REMARK  status: ('A' for Active; 'I' for Inactive)
REMARK    1  A    between atoms: C_2  and  N_3
REMARK    2  A    between atoms: N_3  and  C_4
REMARK    3  A    between atoms: N_3  and  C_7
REMARK    4  A    between atoms: C_4  and  C_5
REMARK    5  A    between atoms: C_7  and  C_8
REMARK    6  A    between atoms: C_8  and  C_9
REMARK    7  A    between atoms: C_9  and  C_10
REMARK    8  A    between atoms: C_10  and  N_12
REMARK    9  A    between atoms: N_12  and  C_13
REMARK                            x       y       z     vdW  Elec       q    Type
REMARK                         _______ _______ _______ _____ _____    ______ ____
ROOT
ATOM      1  N   UNL     1     -11.468  13.127  68.671  0.00  0.00    -0.239 NA
ENDROOT
BRANCH   1   2
ATOM      2  C   UNL     1     -11.901  12.938  70.023  0.00  0.00    +0.068 A 
ATOM      3  C   UNL     1     -12.072  11.648  70.458  0.00  0.00    +0.033 A 
ATOM      4  C   UNL     1     -12.924  11.320  71.487  0.00  0.00    +0.083 A 
ATOM      5  C   UNL     1     -13.131   9.989  71.819  0.00  0.00    +0.031 A 
ATOM      6  C   UNL     1     -12.325   9.015  71.254  0.00  0.00    +0.059 A 
ATOM      7  C   UNL     1     -11.306   9.415  70.427  0.00  0.00    +0.012 A 
ATOM      8 CL   UNL     1     -12.839   7.338  71.219  0.00  0.00    -0.082 Cl
ATOM      9  N   UNL     1     -13.529  12.331  72.157  0.00  0.00    -0.244 NA
ATOM     10  C   UNL     1     -13.256  13.611  71.862  0.00  0.00    +0.100 A 
ATOM     11  C   UNL     1     -11.245  10.688  69.893  0.00  0.00    +0.004 A 
ATOM     12  C   UNL     1     -12.434  13.949  70.793  0.00  0.00    +0.037 A 
ENDBRANCH   1   2
BRANCH   1  13
ATOM     13  C   UNL     1     -11.661  14.634  68.176  0.00  0.00    +0.093 C 
ATOM     14  C   UNL     1     -10.025  14.791  67.885  0.00  0.00    +0.023 C 
BRANCH  13  15
ATOM     15  C   UNL     1     -11.933  14.131  66.608  0.00  0.00    +0.023 C 
BRANCH  15  16
ATOM     16  C   UNL     1     -10.679  14.556  65.864  0.00  0.00    +0.019 C 
BRANCH  16  17
ATOM     17  C   UNL     1     -10.282  13.502  64.867  0.00  0.00    +0.072 C 
BRANCH  17  18
ATOM     18  N   UNL     1     -10.812  12.196  65.165  0.00  0.00    -0.270 NA
BRANCH  18  20
ATOM     19  C   UNL     1     -10.196  10.202  66.314  0.00  0.00    +0.019 C 
ATOM     20  C   UNL     1      -9.821  11.359  65.803  0.00  0.00    +0.072 C 
ENDBRANCH  18  20
BRANCH  18  21
ATOM     21  C   UNL     1     -11.096  11.567  63.876  0.00  0.00    +0.108 C 
BRANCH  21  22
ATOM     22  C   UNL     1     -12.325  12.265  63.304  0.00  0.00    +0.199 C 
ATOM     23  O   UNL     1     -13.388  11.998  64.167  0.00  0.00    -0.219 OA
ENDBRANCH  21  22
ENDBRANCH  18  21
ENDBRANCH  17  18
ENDBRANCH  16  17
ENDBRANCH  15  16
ENDBRANCH  13  15
ENDBRANCH   1  13
TORSDOF 9
ENDMDL
MODEL 9
REMARK VINA RESULT:      -5.6      3.068      5.471
REMARK  Name = 
REMARK  9 active torsions:
REMARK  status: ('A' for Active; 'I' for Inactive)
REMARK    1  A    between atoms: C_2  and  N_3
REMARK    2  A    between atoms: N_3  and  C_4
REMARK    3  A    between atoms: N_3  and  C_7
REMARK    4  A    between atoms: C_4  and  C_5
REMARK    5  A    between atoms: C_7  and  C_8
REMARK    6  A    between atoms: C_8  and  C_9
REMARK    7  A    between atoms: C_9  and  C_10
REMARK    8  A    between atoms: C_10  and  N_12
REMARK    9  A    between atoms: N_12  and  C_13
REMARK                            x       y       z     vdW  Elec       q    Type
REMARK                         _______ _______ _______ _____ _____    ______ ____
ROOT
ATOM      1  N   UNL     1     -10.670  13.574  68.050  0.00  0.00    -0.239 NA
ENDROOT
BRANCH   1   2
ATOM      2  C   UNL     1     -11.586  12.844  68.876  0.00  0.00    +0.068 A 
ATOM      3  C   UNL     1     -12.123  13.498  69.957  0.00  0.00    +0.033 A 
ATOM      4  C   UNL     1     -12.579  12.834  71.072  0.00  0.00    +0.083 A 
ATOM      5  C   UNL     1     -13.020  13.552  72.174  0.00  0.00    +0.031 A 
ATOM      6  C   UNL     1     -13.193  14.922  72.068  0.00  0.00    +0.059 A 
ATOM      7  C   UNL     1     -12.975  15.511  70.848  0.00  0.00    +0.012 A 
ATOM      8 CL   UNL     1     -13.243  15.931  73.502  0.00  0.00    -0.082 Cl
ATOM      9  N   UNL     1     -12.592  11.479  71.043  0.00  0.00    -0.244 NA
ATOM     10  C   UNL     1     -12.228  10.812  69.938  0.00  0.00    +0.100 A 
ATOM     11  C   UNL     1     -12.303  14.867  69.827  0.00  0.00    +0.004 A 
ATOM     12  C   UNL     1     -11.719  11.474  68.826  0.00  0.00    +0.037 A 
ENDBRANCH   1   2
BRANCH   1  13
ATOM     13  C   UNL     1     -10.715  13.099  66.526  0.00  0.00    +0.093 C 
ATOM     14  C   UNL     1     -12.175  13.870  66.286  0.00  0.00    +0.023 C 
BRANCH  13  15
ATOM     15  C   UNL     1      -9.872  14.452  66.033  0.00  0.00    +0.023 C 
BRANCH  15  16
ATOM     16  C   UNL     1     -10.799  15.606  66.376  0.00  0.00    +0.019 C 
BRANCH  16  17
ATOM     17  C   UNL     1     -10.035  16.902  66.391  0.00  0.00    +0.072 C 
BRANCH  17  18
ATOM     18  N   UNL     1     -10.497  17.833  67.389  0.00  0.00    -0.270 NA
BRANCH  18  20
ATOM     19  C   UNL     1     -10.479  19.728  65.945  0.00  0.00    +0.019 C 
ATOM     20  C   UNL     1     -10.084  19.183  67.080  0.00  0.00    +0.072 C 
ENDBRANCH  18  20
BRANCH  18  21
ATOM     21  C   UNL     1      -9.808  17.476  68.629  0.00  0.00    +0.108 C 
BRANCH  21  22
ATOM     22  C   UNL     1      -8.401  18.057  68.536  0.00  0.00    +0.199 C 
ATOM     23  O   UNL     1      -7.513  17.038  68.878  0.00  0.00    -0.219 OA
ENDBRANCH  21  22
ENDBRANCH  18  21
ENDBRANCH  17  18
ENDBRANCH  16  17
ENDBRANCH  15  16
ENDBRANCH  13  15
ENDBRANCH   1  13
TORSDOF 9
ENDMDL
