MODEL 1
REMARK VINA RESULT:      -7.6      0.000      0.000
REMARK  Name = 
REMARK  10 active torsions:
REMARK  status: ('A' for Active; 'I' for Inactive)
REMARK    1  A    between atoms: C_2  and  C_4
REMARK    2  A    between atoms: C_2  and  C_7
REMARK    3  A    between atoms: C_10  and  C_11
REMARK    4  A    between atoms: C_11  and  C_13
REMARK    5  A    between atoms: C_13  and  C_14
REMARK    6  A    between atoms: C_14  and  C_15
REMARK    7  A    between atoms: C_15  and  N_16
REMARK    8  A    between atoms: C_19  and  C_20
REMARK    9  A    between atoms: C_20  and  C_22
REMARK   10  A    between atoms: C_20  and  C_28
REMARK                            x       y       z     vdW  Elec       q    Type
REMARK                         _______ _______ _______ _____ _____    ______ ____
ROOT
ATOM      1  N   UNL     1      -8.829  10.421  66.872  0.00  0.00    -0.273 NA
ATOM      2  C   UNL     1      -8.827  11.067  68.183  0.00  0.00    +0.072 C 
ATOM      3  C   UNL     1      -9.125  10.075  69.271  0.00  0.00    +0.020 C 
ATOM      4  C   UNL     1     -10.239   9.129  68.921  0.00  0.00    +0.039 C 
ATOM      5  C   UNL     1     -10.020   8.414  67.616  0.00  0.00    +0.020 C 
ATOM      6  C   UNL     1      -8.744   8.967  67.001  0.00  0.00    +0.072 C 
ENDROOT
BRANCH   4   7
ATOM      7  C   UNL     1     -10.348   8.095  70.020  0.00  0.00    +0.164 C 
ATOM      8  O   UNL     1     -10.491   6.858  69.386  0.00  0.00    -0.217 OA
BRANCH   7   9
ATOM      9  C   UNL     1     -11.564   8.312  70.830  0.00  0.00    +0.009 A 
ATOM     10  C   UNL     1     -12.071   9.562  71.125  0.00  0.00    -0.002 A 
ATOM     11  C   UNL     1     -13.430   9.682  71.352  0.00  0.00    -0.000 A 
ATOM     12  C   UNL     1     -14.228   8.583  71.543  0.00  0.00    -0.000 A 
ATOM     13  C   UNL     1     -13.622   7.342  71.631  0.00  0.00    -0.000 A 
ATOM     14  C   UNL     1     -12.353   7.202  71.088  0.00  0.00    -0.002 A 
ENDBRANCH   7   9
BRANCH   7  15
ATOM     15  C   UNL     1      -9.111   8.044  70.858  0.00  0.00    +0.009 A 
ATOM     16  C   UNL     1      -8.058   7.223  70.479  0.00  0.00    -0.002 A 
ATOM     17  C   UNL     1      -7.216   6.677  71.439  0.00  0.00    -0.000 A 
ATOM     18  C   UNL     1      -7.409   6.947  72.788  0.00  0.00    -0.000 A 
ATOM     19  C   UNL     1      -8.376   7.841  73.161  0.00  0.00    -0.000 A 
ATOM     20  C   UNL     1      -9.115   8.446  72.180  0.00  0.00    -0.002 A 
ENDBRANCH   7  15
ENDBRANCH   4   7
BRANCH   1  21
ATOM     21  C   UNL     1     -10.157  10.650  66.330  0.00  0.00    +0.072 C 
BRANCH  21  22
ATOM     22  C   UNL     1     -10.506  12.048  66.270  0.00  0.00    +0.020 C 
BRANCH  22  23
ATOM     23  C   UNL     1     -11.858  12.476  66.710  0.00  0.00    +0.039 C 
BRANCH  23  24
ATOM     24  C   UNL     1     -11.751  14.116  66.904  0.00  0.00    +0.174 C 
ATOM     25  O   UNL     1     -10.302  14.140  66.435  0.00  0.00    -0.218 OA
BRANCH  24  29
ATOM     26  C   UNL     1     -12.299  14.253  71.101  0.00  0.00    -0.013 A 
ATOM     27  C   UNL     1     -11.896  15.364  70.383  0.00  0.00    -0.004 A 
ATOM     28  C   UNL     1     -11.342  15.232  69.113  0.00  0.00    -0.002 A 
ATOM     29  C   UNL     1     -11.308  14.001  68.464  0.00  0.00    +0.008 A 
ATOM     30  C   UNL     1     -11.949  12.976  69.137  0.00  0.00    -0.002 A 
ATOM     31  C   UNL     1     -12.041  13.033  70.516  0.00  0.00    -0.004 A 
BRANCH  26  33
ATOM     32  C   UNL     1     -13.653  13.601  72.379  0.00  0.00    +0.016 C 
ATOM     33  C   UNL     1     -13.301  14.330  72.214  0.00  0.00    +0.113 C 
ATOM     34  C   UNL     1     -12.552  14.869  73.430  0.00  0.00    +0.016 C 
BRANCH  33  35
ATOM     35  C   UNL     1     -14.380  15.305  71.863  0.00  0.00    +0.368 C 
ATOM     36  O   UNL     1     -15.538  14.735  71.322  0.00  0.00    -0.245 OA
ATOM     37  O   UNL     1     -14.567  16.248  72.685  0.00  0.00    -0.245 OA
ENDBRANCH  33  35
ENDBRANCH  26  33
ENDBRANCH  24  29
ENDBRANCH  23  24
ENDBRANCH  22  23
ENDBRANCH  21  22
ENDBRANCH   1  21
TORSDOF 10
ENDMDL
MODEL 2
REMARK VINA RESULT:      -7.6      1.592      2.961
REMARK  Name = 
REMARK  10 active torsions:
REMARK  status: ('A' for Active; 'I' for Inactive)
REMARK    1  A    between atoms: C_2  and  C_4
REMARK    2  A    between atoms: C_2  and  C_7
REMARK    3  A    between atoms: C_10  and  C_11
REMARK    4  A    between atoms: C_11  and  C_13
REMARK    5  A    between atoms: C_13  and  C_14
REMARK    6  A    between atoms: C_14  and  C_15
REMARK    7  A    between atoms: C_15  and  N_16
REMARK    8  A    between atoms: C_19  and  C_20
REMARK    9  A    between atoms: C_20  and  C_22
REMARK   10  A    between atoms: C_20  and  C_28
REMARK                            x       y       z     vdW  Elec       q    Type
REMARK                         _______ _______ _______ _____ _____    ______ ____
ROOT
ATOM      1  N   UNL     1      -8.679  11.341  66.179  0.00  0.00    -0.273 NA
ATOM      2  C   UNL     1      -8.712  12.115  67.418  0.00  0.00    +0.072 C 
ATOM      3  C   UNL     1      -8.711  11.209  68.618  0.00  0.00    +0.020 C 
ATOM      4  C   UNL     1      -9.625  10.026  68.467  0.00  0.00    +0.039 C 
ATOM      5  C   UNL     1      -9.361   9.230  67.218  0.00  0.00    +0.020 C 
ATOM      6  C   UNL     1      -8.281   9.957  66.432  0.00  0.00    +0.072 C 
ENDROOT
BRANCH   4   7
ATOM      7  C   UNL     1      -9.430   9.119  69.662  0.00  0.00    +0.164 C 
ATOM      8  O   UNL     1      -8.168   9.418  70.183  0.00  0.00    -0.217 OA
BRANCH   7   9
ATOM      9  C   UNL     1      -9.407   7.701  69.249  0.00  0.00    +0.009 A 
ATOM     10  C   UNL     1      -8.322   6.868  69.442  0.00  0.00    -0.002 A 
ATOM     11  C   UNL     1      -8.552   5.512  69.578  0.00  0.00    -0.000 A 
ATOM     12  C   UNL     1      -9.768   4.954  69.276  0.00  0.00    -0.000 A 
ATOM     13  C   UNL     1     -10.736   5.763  68.707  0.00  0.00    -0.000 A 
ATOM     14  C   UNL     1     -10.617   7.135  68.880  0.00  0.00    -0.002 A 
ENDBRANCH   7   9
BRANCH   7  15
ATOM     15  C   UNL     1     -10.444   9.382  70.729  0.00  0.00    +0.009 A 
ATOM     16  C   UNL     1     -10.481   8.571  71.856  0.00  0.00    -0.002 A 
ATOM     17  C   UNL     1     -11.678   8.360  72.525  0.00  0.00    -0.000 A 
ATOM     18  C   UNL     1     -12.853   8.957  72.086  0.00  0.00    -0.000 A 
ATOM     19  C   UNL     1     -12.806   9.842  71.043  0.00  0.00    -0.000 A 
ATOM     20  C   UNL     1     -11.588  10.113  70.476  0.00  0.00    -0.002 A 
ENDBRANCH   7  15
ENDBRANCH   4   7
BRANCH   1  21
ATOM     21  C   UNL     1     -10.063  11.237  65.751  0.00  0.00    +0.072 C 
BRANCH  21  22
ATOM     22  C   UNL     1     -10.703  12.520  65.604  0.00  0.00    +0.020 C 
BRANCH  22  23
ATOM     23  C   UNL     1     -12.014  12.755  66.262  0.00  0.00    +0.039 C 
BRANCH  23  24
ATOM     24  C   UNL     1     -12.112  14.395  66.459  0.00  0.00    +0.174 C 
ATOM     25  O   UNL     1     -10.741  14.616  65.834  0.00  0.00    -0.218 OA
BRANCH  24  29
ATOM     26  C   UNL     1     -12.167  14.714  70.682  0.00  0.00    -0.013 A 
ATOM     27  C   UNL     1     -11.861  15.794  69.874  0.00  0.00    -0.004 A 
ATOM     28  C   UNL     1     -11.458  15.608  68.555  0.00  0.00    -0.002 A 
ATOM     29  C   UNL     1     -11.489  14.350  67.960  0.00  0.00    +0.008 A 
ATOM     30  C   UNL     1     -12.038  13.353  68.747  0.00  0.00    -0.002 A 
ATOM     31  C   UNL     1     -11.969  13.470  70.124  0.00  0.00    -0.004 A 
BRANCH  26  33
ATOM     32  C   UNL     1     -13.664  15.357  71.794  0.00  0.00    +0.016 C 
ATOM     33  C   UNL     1     -13.032  14.835  71.900  0.00  0.00    +0.113 C 
ATOM     34  C   UNL     1     -13.527  13.426  72.218  0.00  0.00    +0.016 C 
BRANCH  33  35
ATOM     35  C   UNL     1     -12.217  15.314  73.060  0.00  0.00    +0.368 C 
ATOM     36  O   UNL     1     -12.062  16.703  73.139  0.00  0.00    -0.245 OA
ATOM     37  O   UNL     1     -12.413  14.722  74.161  0.00  0.00    -0.245 OA
ENDBRANCH  33  35
ENDBRANCH  26  33
ENDBRANCH  24  29
ENDBRANCH  23  24
ENDBRANCH  22  23
ENDBRANCH  21  22
ENDBRANCH   1  21
TORSDOF 10
ENDMDL
MODEL 3
REMARK VINA RESULT:      -7.4      2.455      7.112
REMARK  Name = 
REMARK  10 active torsions:
REMARK  status: ('A' for Active; 'I' for Inactive)
REMARK    1  A    between atoms: C_2  and  C_4
REMARK    2  A    between atoms: C_2  and  C_7
REMARK    3  A    between atoms: C_10  and  C_11
REMARK    4  A    between atoms: C_11  and  C_13
REMARK    5  A    between atoms: C_13  and  C_14
REMARK    6  A    between atoms: C_14  and  C_15
REMARK    7  A    between atoms: C_15  and  N_16
REMARK    8  A    between atoms: C_19  and  C_20
REMARK    9  A    between atoms: C_20  and  C_22
REMARK   10  A    between atoms: C_20  and  C_28
REMARK                            x       y       z     vdW  Elec       q    Type
REMARK                         _______ _______ _______ _____ _____    ______ ____
ROOT
ATOM      1  N   UNL     1     -12.131  13.889  64.190  0.00  0.00    -0.273 NA
ATOM      2  C   UNL     1     -12.801  13.217  65.302  0.00  0.00    +0.072 C 
ATOM      3  C   UNL     1     -12.382  13.808  66.618  0.00  0.00    +0.020 C 
ATOM      4  C   UNL     1     -10.906  14.074  66.705  0.00  0.00    +0.039 C 
ATOM      5  C   UNL     1     -10.390  14.918  65.572  0.00  0.00    +0.020 C 
ATOM      6  C   UNL     1     -11.548  15.160  64.617  0.00  0.00    +0.072 C 
ENDROOT
BRANCH   4   7
ATOM      7  C   UNL     1     -10.628  14.798  68.004  0.00  0.00    +0.164 C 
ATOM      8  O   UNL     1     -10.550  16.157  67.690  0.00  0.00    -0.217 OA
BRANCH   7   9
ATOM      9  C   UNL     1      -9.318  14.402  68.559  0.00  0.00    +0.009 A 
ATOM     10  C   UNL     1      -8.735  13.171  68.334  0.00  0.00    -0.002 A 
ATOM     11  C   UNL     1      -7.356  13.082  68.369  0.00  0.00    -0.000 A 
ATOM     12  C   UNL     1      -6.580  14.100  68.863  0.00  0.00    -0.000 A 
ATOM     13  C   UNL     1      -7.216  15.181  69.449  0.00  0.00    -0.000 A 
ATOM     14  C   UNL     1      -8.544  15.407  69.120  0.00  0.00    -0.002 A 
ENDBRANCH   7   9
BRANCH   7  15
ATOM     15  C   UNL     1     -11.739  14.615  68.989  0.00  0.00    +0.009 A 
ATOM     16  C   UNL     1     -12.235  15.714  69.676  0.00  0.00    -0.002 A 
ATOM     17  C   UNL     1     -12.769  15.560  70.949  0.00  0.00    -0.000 A 
ATOM     18  C   UNL     1     -12.820  14.309  71.551  0.00  0.00    -0.000 A 
ATOM     19  C   UNL     1     -12.434  13.206  70.838  0.00  0.00    -0.000 A 
ATOM     20  C   UNL     1     -12.017  13.381  69.544  0.00  0.00    -0.002 A 
ENDBRANCH   7  15
ENDBRANCH   4   7
BRANCH   1  21
ATOM     21  C   UNL     1     -10.979  13.061  63.876  0.00  0.00    +0.072 C 
BRANCH  21  22
ATOM     22  C   UNL     1     -11.295  11.655  63.823  0.00  0.00    +0.020 C 
BRANCH  22  23
ATOM     23  C   UNL     1     -10.200  10.661  63.955  0.00  0.00    +0.039 C 
BRANCH  23  24
ATOM     24  C   UNL     1      -9.395  11.085  65.338  0.00  0.00    +0.174 C 
ATOM     25  O   UNL     1      -8.279  10.084  65.069  0.00  0.00    -0.218 OA
BRANCH  24  29
ATOM     26  C   UNL     1     -10.376   8.988  68.884  0.00  0.00    -0.013 A 
ATOM     27  C   UNL     1      -9.443   8.503  67.986  0.00  0.00    -0.004 A 
ATOM     28  C   UNL     1      -9.410   8.960  66.673  0.00  0.00    -0.002 A 
ATOM     29  C   UNL     1     -10.212  10.020  66.256  0.00  0.00    +0.008 A 
ATOM     30  C   UNL     1     -10.944  10.621  67.265  0.00  0.00    -0.002 A 
ATOM     31  C   UNL     1     -11.300   9.874  68.372  0.00  0.00    -0.004 A 
BRANCH  26  33
ATOM     32  C   UNL     1      -9.443   9.192  70.611  0.00  0.00    +0.016 C 
ATOM     33  C   UNL     1     -10.183   8.915  70.369  0.00  0.00    +0.113 C 
ATOM     34  C   UNL     1     -11.310   9.738  70.990  0.00  0.00    +0.016 C 
BRANCH  33  35
ATOM     35  C   UNL     1     -10.331   7.501  70.834  0.00  0.00    +0.368 C 
ATOM     36  O   UNL     1     -11.406   6.803  70.272  0.00  0.00    -0.245 OA
ATOM     37  O   UNL     1      -9.258   6.842  70.962  0.00  0.00    -0.245 OA
ENDBRANCH  33  35
ENDBRANCH  26  33
ENDBRANCH  24  29
ENDBRANCH  23  24
ENDBRANCH  22  23
ENDBRANCH  21  22
ENDBRANCH   1  21
TORSDOF 10
ENDMDL
MODEL 4
REMARK VINA RESULT:      -7.2      1.946      5.943
REMARK  Name = 
REMARK  10 active torsions:
REMARK  status: ('A' for Active; 'I' for Inactive)
REMARK    1  A    between atoms: C_2  and  C_4
REMARK    2  A    between atoms: C_2  and  C_7
REMARK    3  A    between atoms: C_10  and  C_11
REMARK    4  A    between atoms: C_11  and  C_13
REMARK    5  A    between atoms: C_13  and  C_14
REMARK    6  A    between atoms: C_14  and  C_15
REMARK    7  A    between atoms: C_15  and  N_16
REMARK    8  A    between atoms: C_19  and  C_20
REMARK    9  A    between atoms: C_20  and  C_22
REMARK   10  A    between atoms: C_20  and  C_28
REMARK                            x       y       z     vdW  Elec       q    Type
REMARK                         _______ _______ _______ _____ _____    ______ ____
ROOT
ATOM      1  N   UNL     1      -9.070   7.574  68.427  0.00  0.00    -0.273 NA
ATOM      2  C   UNL     1     -10.145   7.737  67.450  0.00  0.00    +0.072 C 
ATOM      3  C   UNL     1      -9.969   9.006  66.664  0.00  0.00    +0.020 C 
ATOM      4  C   UNL     1      -9.565  10.177  67.514  0.00  0.00    +0.039 C 
ATOM      5  C   UNL     1      -8.341   9.911  68.346  0.00  0.00    +0.020 C 
ATOM      6  C   UNL     1      -7.946   8.459  68.126  0.00  0.00    +0.072 C 
ENDROOT
BRANCH   4   7
ATOM      7  C   UNL     1      -9.277  11.350  66.602  0.00  0.00    +0.164 C 
ATOM      8  O   UNL     1      -8.284  10.925  65.715  0.00  0.00    -0.217 OA
BRANCH   7   9
ATOM      9  C   UNL     1      -8.724  12.487  67.364  0.00  0.00    +0.009 A 
ATOM     10  C   UNL     1      -7.460  13.004  67.154  0.00  0.00    -0.002 A 
ATOM     11  C   UNL     1      -7.240  14.336  67.447  0.00  0.00    -0.000 A 
ATOM     12  C   UNL     1      -8.145  15.076  68.165  0.00  0.00    -0.000 A 
ATOM     13  C   UNL     1      -9.240  14.424  68.706  0.00  0.00    -0.000 A 
ATOM     14  C   UNL     1      -9.611  13.210  68.147  0.00  0.00    -0.002 A 
ENDBRANCH   7   9
BRANCH   7  15
ATOM     15  C   UNL     1     -10.479  11.736  65.800  0.00  0.00    +0.009 A 
ATOM     16  C   UNL     1     -10.361  11.907  64.427  0.00  0.00    -0.002 A 
ATOM     17  C   UNL     1     -11.189  12.801  63.761  0.00  0.00    -0.000 A 
ATOM     18  C   UNL     1     -12.146  13.533  64.452  0.00  0.00    -0.000 A 
ATOM     19  C   UNL     1     -12.341  13.291  65.785  0.00  0.00    -0.000 A 
ATOM     20  C   UNL     1     -11.584  12.321  66.387  0.00  0.00    -0.002 A 
ENDBRANCH   7  15
ENDBRANCH   4   7
BRANCH   1  21
ATOM     21  C   UNL     1      -9.601   8.090  69.677  0.00  0.00    +0.072 C 
BRANCH  21  22
ATOM     22  C   UNL     1     -10.701   7.308  70.185  0.00  0.00    +0.020 C 
BRANCH  22  23
ATOM     23  C   UNL     1     -11.945   7.999  70.610  0.00  0.00    +0.039 C 
BRANCH  23  24
ATOM     24  C   UNL     1     -11.454   9.140  71.704  0.00  0.00    +0.174 C 
ATOM     25  O   UNL     1     -12.557   8.763  72.685  0.00  0.00    -0.218 OA
BRANCH  24  29
ATOM     26  C   UNL     1     -12.843  13.097  71.120  0.00  0.00    -0.013 A 
ATOM     27  C   UNL     1     -13.434  12.246  72.035  0.00  0.00    -0.004 A 
ATOM     28  C   UNL     1     -13.255  10.869  71.950  0.00  0.00    -0.002 A 
ATOM     29  C   UNL     1     -12.363  10.311  71.038  0.00  0.00    +0.008 A 
ATOM     30  C   UNL     1     -11.621  11.233  70.320  0.00  0.00    -0.002 A 
ATOM     31  C   UNL     1     -12.149  12.491  70.096  0.00  0.00    -0.004 A 
BRANCH  26  33
ATOM     32  C   UNL     1     -11.892  14.678  71.821  0.00  0.00    +0.016 C 
ATOM     33  C   UNL     1     -12.596  14.548  71.408  0.00  0.00    +0.113 C 
ATOM     34  C   UNL     1     -12.581  15.258  70.056  0.00  0.00    +0.016 C 
BRANCH  33  35
ATOM     35  C   UNL     1     -13.725  15.108  72.214  0.00  0.00    +0.368 C 
ATOM     36  O   UNL     1     -13.339  15.819  73.357  0.00  0.00    -0.245 OA
ATOM     37  O   UNL     1     -14.684  15.608  71.557  0.00  0.00    -0.245 OA
ENDBRANCH  33  35
ENDBRANCH  26  33
ENDBRANCH  24  29
ENDBRANCH  23  24
ENDBRANCH  22  23
ENDBRANCH  21  22
ENDBRANCH   1  21
TORSDOF 10
ENDMDL
MODEL 5
REMARK VINA RESULT:      -7.2      2.048      5.745
REMARK  Name = 
REMARK  10 active torsions:
REMARK  status: ('A' for Active; 'I' for Inactive)
REMARK    1  A    between atoms: C_2  and  C_4
REMARK    2  A    between atoms: C_2  and  C_7
REMARK    3  A    between atoms: C_10  and  C_11
REMARK    4  A    between atoms: C_11  and  C_13
REMARK    5  A    between atoms: C_13  and  C_14
REMARK    6  A    between atoms: C_14  and  C_15
REMARK    7  A    between atoms: C_15  and  N_16
REMARK    8  A    between atoms: C_19  and  C_20
REMARK    9  A    between atoms: C_20  and  C_22
REMARK   10  A    between atoms: C_20  and  C_28
REMARK                            x       y       z     vdW  Elec       q    Type
REMARK                         _______ _______ _______ _____ _____    ______ ____
ROOT
ATOM      1  N   UNL     1      -9.275   7.425  68.255  0.00  0.00    -0.273 NA
ATOM      2  C   UNL     1     -10.277   7.595  67.204  0.00  0.00    +0.072 C 
ATOM      3  C   UNL     1      -9.946   8.775  66.334  0.00  0.00    +0.020 C 
ATOM      4  C   UNL     1      -9.488   9.976  67.113  0.00  0.00    +0.039 C 
ATOM      5  C   UNL     1      -8.339   9.678  68.037  0.00  0.00    +0.020 C 
ATOM      6  C   UNL     1      -8.062   8.185  67.955  0.00  0.00    +0.072 C 
ENDROOT
BRANCH   4   7
ATOM      7  C   UNL     1      -9.048  11.040  66.131  0.00  0.00    +0.164 C 
ATOM      8  O   UNL     1      -7.854  11.568  66.629  0.00  0.00    -0.217 OA
BRANCH   7   9
ATOM      9  C   UNL     1     -10.026  12.146  66.079  0.00  0.00    +0.009 A 
ATOM     10  C   UNL     1     -11.392  11.962  66.169  0.00  0.00    -0.002 A 
ATOM     11  C   UNL     1     -12.159  12.990  66.682  0.00  0.00    -0.000 A 
ATOM     12  C   UNL     1     -11.649  14.251  66.859  0.00  0.00    -0.000 A 
ATOM     13  C   UNL     1     -10.373  14.512  66.392  0.00  0.00    -0.000 A 
ATOM     14  C   UNL     1      -9.524  13.433  66.194  0.00  0.00    -0.002 A 
ENDBRANCH   7   9
BRANCH   7  15
ATOM     15  C   UNL     1      -8.771  10.466  64.779  0.00  0.00    +0.009 A 
ATOM     16  C   UNL     1      -7.482  10.063  64.455  0.00  0.00    -0.002 A 
ATOM     17  C   UNL     1      -7.044  10.112  63.139  0.00  0.00    -0.000 A 
ATOM     18  C   UNL     1      -7.885  10.558  62.127  0.00  0.00    -0.000 A 
ATOM     19  C   UNL     1      -9.189  10.853  62.420  0.00  0.00    -0.000 A 
ATOM     20  C   UNL     1      -9.618  10.686  63.711  0.00  0.00    -0.002 A 
ENDBRANCH   7  15
ENDBRANCH   4   7
BRANCH   1  21
ATOM     21  C   UNL     1      -9.825   8.086  69.426  0.00  0.00    +0.072 C 
BRANCH  21  22
ATOM     22  C   UNL     1     -11.011   7.439  69.931  0.00  0.00    +0.020 C 
BRANCH  22  23
ATOM     23  C   UNL     1     -12.124   8.272  70.450  0.00  0.00    +0.039 C 
BRANCH  23  24
ATOM     24  C   UNL     1     -11.405   9.391  71.435  0.00  0.00    +0.174 C 
ATOM     25  O   UNL     1     -12.370   9.098  72.577  0.00  0.00    -0.218 OA
BRANCH  24  29
ATOM     26  C   UNL     1     -12.810  13.380  71.209  0.00  0.00    -0.013 A 
ATOM     27  C   UNL     1     -13.381  12.454  72.063  0.00  0.00    -0.004 A 
ATOM     28  C   UNL     1     -13.202  11.089  71.860  0.00  0.00    -0.002 A 
ATOM     29  C   UNL     1     -12.329  10.611  70.887  0.00  0.00    +0.008 A 
ATOM     30  C   UNL     1     -11.603  11.591  70.232  0.00  0.00    -0.002 A 
ATOM     31  C   UNL     1     -12.137  12.862  70.124  0.00  0.00    -0.004 A 
BRANCH  26  33
ATOM     32  C   UNL     1     -11.875  14.891  72.068  0.00  0.00    +0.016 C 
ATOM     33  C   UNL     1     -12.558  14.802  71.611  0.00  0.00    +0.113 C 
ATOM     34  C   UNL     1     -12.462  15.605  70.315  0.00  0.00    +0.016 C 
BRANCH  33  35
ATOM     35  C   UNL     1     -13.721  15.325  72.395  0.00  0.00    +0.368 C 
ATOM     36  O   UNL     1     -13.380  16.110  73.503  0.00  0.00    -0.245 OA
ATOM     37  O   UNL     1     -14.711  15.732  71.720  0.00  0.00    -0.245 OA
ENDBRANCH  33  35
ENDBRANCH  26  33
ENDBRANCH  24  29
ENDBRANCH  23  24
ENDBRANCH  22  23
ENDBRANCH  21  22
ENDBRANCH   1  21
TORSDOF 10
ENDMDL
MODEL 6
REMARK VINA RESULT:      -7.1      1.219      1.869
REMARK  Name = 
REMARK  10 active torsions:
REMARK  status: ('A' for Active; 'I' for Inactive)
REMARK    1  A    between atoms: C_2  and  C_4
REMARK    2  A    between atoms: C_2  and  C_7
REMARK    3  A    between atoms: C_10  and  C_11
REMARK    4  A    between atoms: C_11  and  C_13
REMARK    5  A    between atoms: C_13  and  C_14
REMARK    6  A    between atoms: C_14  and  C_15
REMARK    7  A    between atoms: C_15  and  N_16
REMARK    8  A    between atoms: C_19  and  C_20
REMARK    9  A    between atoms: C_20  and  C_22
REMARK   10  A    between atoms: C_20  and  C_28
REMARK                            x       y       z     vdW  Elec       q    Type
REMARK                         _______ _______ _______ _____ _____    ______ ____
ROOT
ATOM      1  N   UNL     1      -7.711  10.767  67.587  0.00  0.00    -0.273 NA
ATOM      2  C   UNL     1      -7.218  10.629  68.956  0.00  0.00    +0.072 C 
ATOM      3  C   UNL     1      -7.994   9.581  69.703  0.00  0.00    +0.020 C 
ATOM      4  C   UNL     1      -9.475   9.655  69.460  0.00  0.00    +0.039 C 
ATOM      5  C   UNL     1      -9.837   9.624  68.000  0.00  0.00    +0.020 C 
ATOM      6  C   UNL     1      -8.540   9.625  67.207  0.00  0.00    +0.072 C 
ENDROOT
BRANCH   4   7
ATOM      7  C   UNL     1     -10.128   8.472  70.140  0.00  0.00    +0.164 C 
ATOM      8  O   UNL     1     -10.277   7.486  69.160  0.00  0.00    -0.217 OA
BRANCH   7   9
ATOM      9  C   UNL     1     -11.482   8.819  70.617  0.00  0.00    +0.009 A 
ATOM     10  C   UNL     1     -12.370   7.895  71.131  0.00  0.00    -0.002 A 
ATOM     11  C   UNL     1     -13.311   8.329  72.046  0.00  0.00    -0.000 A 
ATOM     12  C   UNL     1     -13.550   9.662  72.258  0.00  0.00    -0.000 A 
ATOM     13  C   UNL     1     -12.912  10.579  71.439  0.00  0.00    -0.000 A 
ATOM     14  C   UNL     1     -11.764  10.167  70.778  0.00  0.00    -0.002 A 
ENDBRANCH   7   9
BRANCH   7  15
ATOM     15  C   UNL     1      -9.269   7.914  71.229  0.00  0.00    +0.009 A 
ATOM     16  C   UNL     1      -8.779   6.619  71.122  0.00  0.00    -0.002 A 
ATOM     17  C   UNL     1      -8.533   5.870  72.265  0.00  0.00    -0.000 A 
ATOM     18  C   UNL     1      -8.766   6.400  73.527  0.00  0.00    -0.000 A 
ATOM     19  C   UNL     1      -9.145   7.710  73.644  0.00  0.00    -0.000 A 
ATOM     20  C   UNL     1      -9.270   8.455  72.500  0.00  0.00    -0.002 A 
ENDBRANCH   7  15
ENDBRANCH   4   7
BRANCH   1  21
ATOM     21  C   UNL     1      -8.641  11.883  67.622  0.00  0.00    +0.072 C 
BRANCH  21  22
ATOM     22  C   UNL     1      -8.041  13.100  68.107  0.00  0.00    +0.020 C 
BRANCH  22  23
ATOM     23  C   UNL     1      -8.862  14.336  68.172  0.00  0.00    +0.039 C 
BRANCH  23  24
ATOM     24  C   UNL     1      -9.701  14.374  66.746  0.00  0.00    +0.174 C 
ATOM     25  O   UNL     1      -9.375  15.845  66.521  0.00  0.00    -0.218 OA
BRANCH  24  29
ATOM     26  C   UNL     1     -12.377  14.806  70.000  0.00  0.00    -0.013 A 
ATOM     27  C   UNL     1     -12.288  13.628  69.282  0.00  0.00    -0.004 A 
ATOM     28  C   UNL     1     -11.730  13.608  68.007  0.00  0.00    -0.002 A 
ATOM     29  C   UNL     1     -11.110  14.734  67.472  0.00  0.00    +0.008 A 
ATOM     30  C   UNL     1     -11.016  15.808  68.340  0.00  0.00    -0.002 A 
ATOM     31  C   UNL     1     -11.956  15.943  69.345  0.00  0.00    -0.004 A 
BRANCH  26  33
ATOM     32  C   UNL     1     -12.160  14.182  71.860  0.00  0.00    +0.016 C 
ATOM     33  C   UNL     1     -12.511  14.835  71.493  0.00  0.00    +0.113 C 
ATOM     34  C   UNL     1     -11.869  16.140  71.958  0.00  0.00    +0.016 C 
BRANCH  33  35
ATOM     35  C   UNL     1     -13.957  14.867  71.875  0.00  0.00    +0.368 C 
ATOM     36  O   UNL     1     -14.449  13.678  72.426  0.00  0.00    -0.245 OA
ATOM     37  O   UNL     1     -14.365  15.933  72.422  0.00  0.00    -0.245 OA
ENDBRANCH  33  35
ENDBRANCH  26  33
ENDBRANCH  24  29
ENDBRANCH  23  24
ENDBRANCH  22  23
ENDBRANCH  21  22
ENDBRANCH   1  21
TORSDOF 10
ENDMDL
MODEL 7
REMARK VINA RESULT:      -7.0      2.456      3.485
REMARK  Name = 
REMARK  10 active torsions:
REMARK  status: ('A' for Active; 'I' for Inactive)
REMARK    1  A    between atoms: C_2  and  C_4
REMARK    2  A    between atoms: C_2  and  C_7
REMARK    3  A    between atoms: C_10  and  C_11
REMARK    4  A    between atoms: C_11  and  C_13
REMARK    5  A    between atoms: C_13  and  C_14
REMARK    6  A    between atoms: C_14  and  C_15
REMARK    7  A    between atoms: C_15  and  N_16
REMARK    8  A    between atoms: C_19  and  C_20
REMARK    9  A    between atoms: C_20  and  C_22
REMARK   10  A    between atoms: C_20  and  C_28
REMARK                            x       y       z     vdW  Elec       q    Type
REMARK                         _______ _______ _______ _____ _____    ______ ____
ROOT
ATOM      1  N   UNL     1      -8.848   9.918  65.287  0.00  0.00    -0.273 NA
ATOM      2  C   UNL     1      -8.448  10.796  66.384  0.00  0.00    +0.072 C 
ATOM      3  C   UNL     1      -8.666  10.128  67.713  0.00  0.00    +0.020 C 
ATOM      4  C   UNL     1      -9.974   9.393  67.799  0.00  0.00    +0.039 C 
ATOM      5  C   UNL     1     -10.170   8.403  66.685  0.00  0.00    +0.020 C 
ATOM      6  C   UNL     1      -8.985   8.535  65.741  0.00  0.00    +0.072 C 
ENDROOT
BRANCH   4   7
ATOM      7  C   UNL     1     -10.013   8.647  69.115  0.00  0.00    +0.164 C 
ATOM      8  O   UNL     1     -10.648   7.429  68.859  0.00  0.00    -0.217 OA
BRANCH   7   9
ATOM      9  C   UNL     1     -10.837   9.368  70.106  0.00  0.00    +0.009 A 
ATOM     10  C   UNL     1     -11.206  10.692  69.973  0.00  0.00    -0.002 A 
ATOM     11  C   UNL     1     -12.380  11.109  70.571  0.00  0.00    -0.000 A 
ATOM     12  C   UNL     1     -13.039  10.329  71.486  0.00  0.00    -0.000 A 
ATOM     13  C   UNL     1     -12.435   9.154  71.900  0.00  0.00    -0.000 A 
ATOM     14  C   UNL     1     -11.463   8.603  71.079  0.00  0.00    -0.002 A 
ENDBRANCH   7   9
BRANCH   7  15
ATOM     15  C   UNL     1      -8.640   8.353  69.627  0.00  0.00    +0.009 A 
ATOM     16  C   UNL     1      -8.072   7.107  69.393  0.00  0.00    -0.002 A 
ATOM     17  C   UNL     1      -7.157   6.577  70.293  0.00  0.00    -0.000 A 
ATOM     18  C   UNL     1      -6.791   7.281  71.433  0.00  0.00    -0.000 A 
ATOM     19  C   UNL     1      -7.262   8.553  71.614  0.00  0.00    -0.000 A 
ATOM     20  C   UNL     1      -8.076   9.089  70.650  0.00  0.00    -0.002 A 
ENDBRANCH   7  15
ENDBRANCH   4   7
BRANCH   1  21
ATOM     21  C   UNL     1     -10.204  10.314  64.947  0.00  0.00    +0.072 C 
BRANCH  21  22
ATOM     22  C   UNL     1     -10.272  11.117  63.752  0.00  0.00    +0.020 C 
BRANCH  22  23
ATOM     23  C   UNL     1     -10.690  12.538  63.858  0.00  0.00    +0.039 C 
BRANCH  23  24
ATOM     24  C   UNL     1     -12.303  12.490  64.226  0.00  0.00    +0.174 C 
ATOM     25  O   UNL     1     -12.618  13.640  63.278  0.00  0.00    -0.218 OA
BRANCH  24  29
ATOM     26  C   UNL     1     -10.284  14.393  67.425  0.00  0.00    -0.013 A 
ATOM     27  C   UNL     1     -10.984  13.214  67.604  0.00  0.00    -0.004 A 
ATOM     28  C   UNL     1     -11.951  12.810  66.689  0.00  0.00    -0.002 A 
ATOM     29  C   UNL     1     -12.144  13.496  65.493  0.00  0.00    +0.008 A 
ATOM     30  C   UNL     1     -11.243  14.521  65.263  0.00  0.00    -0.002 A 
ATOM     31  C   UNL     1     -10.662  15.159  66.344  0.00  0.00    -0.004 A 
BRANCH  26  33
ATOM     32  C   UNL     1      -8.621  13.969  68.400  0.00  0.00    +0.016 C 
ATOM     33  C   UNL     1      -8.954  14.649  68.068  0.00  0.00    +0.113 C 
ATOM     34  C   UNL     1      -8.054  15.228  66.979  0.00  0.00    +0.016 C 
BRANCH  33  35
ATOM     35  C   UNL     1      -9.097  15.677  69.147  0.00  0.00    +0.368 C 
ATOM     36  O   UNL     1      -8.825  16.991  68.749  0.00  0.00    -0.245 OA
ATOM     37  O   UNL     1     -10.085  15.533  69.924  0.00  0.00    -0.245 OA
ENDBRANCH  33  35
ENDBRANCH  26  33
ENDBRANCH  24  29
ENDBRANCH  23  24
ENDBRANCH  22  23
ENDBRANCH  21  22
ENDBRANCH   1  21
TORSDOF 10
ENDMDL
MODEL 8
REMARK VINA RESULT:      -6.9      2.729      4.336
REMARK  Name = 
REMARK  10 active torsions:
REMARK  status: ('A' for Active; 'I' for Inactive)
REMARK    1  A    between atoms: C_2  and  C_4
REMARK    2  A    between atoms: C_2  and  C_7
REMARK    3  A    between atoms: C_10  and  C_11
REMARK    4  A    between atoms: C_11  and  C_13
REMARK    5  A    between atoms: C_13  and  C_14
REMARK    6  A    between atoms: C_14  and  C_15
REMARK    7  A    between atoms: C_15  and  N_16
REMARK    8  A    between atoms: C_19  and  C_20
REMARK    9  A    between atoms: C_20  and  C_22
REMARK   10  A    between atoms: C_20  and  C_28
REMARK                            x       y       z     vdW  Elec       q    Type
REMARK                         _______ _______ _______ _____ _____    ______ ____
ROOT
ATOM      1  N   UNL     1      -8.758  10.184  65.226  0.00  0.00    -0.273 NA
ATOM      2  C   UNL     1      -8.432  11.239  66.184  0.00  0.00    +0.072 C 
ATOM      3  C   UNL     1      -8.481  10.718  67.593  0.00  0.00    +0.020 C 
ATOM      4  C   UNL     1      -9.662   9.828  67.855  0.00  0.00    +0.039 C 
ATOM      5  C   UNL     1      -9.773   8.688  66.879  0.00  0.00    +0.020 C 
ATOM      6  C   UNL     1      -8.671   8.863  65.846  0.00  0.00    +0.072 C 
ENDROOT
BRANCH   4   7
ATOM      7  C   UNL     1      -9.525   9.252  69.248  0.00  0.00    +0.164 C 
ATOM      8  O   UNL     1      -8.261   9.631  69.708  0.00  0.00    -0.217 OA
BRANCH   7   9
ATOM      9  C   UNL     1      -9.552   7.776  69.213  0.00  0.00    +0.009 A 
ATOM     10  C   UNL     1      -8.473   6.985  69.554  0.00  0.00    -0.002 A 
ATOM     11  C   UNL     1      -8.719   5.717  70.047  0.00  0.00    -0.000 A 
ATOM     12  C   UNL     1      -9.961   5.141  69.966  0.00  0.00    -0.000 A 
ATOM     13  C   UNL     1     -10.947   5.809  69.261  0.00  0.00    -0.000 A 
ATOM     14  C   UNL     1     -10.793   7.174  69.069  0.00  0.00    -0.002 A 
ENDBRANCH   7   9
BRANCH   7  15
ATOM     15  C   UNL     1     -10.545   9.816  70.184  0.00  0.00    +0.009 A 
ATOM     16  C   UNL     1     -10.791   9.181  71.394  0.00  0.00    -0.002 A 
ATOM     17  C   UNL     1     -12.048   9.257  71.980  0.00  0.00    -0.000 A 
ATOM     18  C   UNL     1     -13.073   9.971  71.372  0.00  0.00    -0.000 A 
ATOM     19  C   UNL     1     -12.809  10.688  70.237  0.00  0.00    -0.000 A 
ATOM     20  C   UNL     1     -11.529  10.681  69.747  0.00  0.00    -0.002 A 
ENDBRANCH   7  15
ENDBRANCH   4   7
BRANCH   1  21
ATOM     21  C   UNL     1     -10.173  10.346  64.939  0.00  0.00    +0.072 C 
BRANCH  21  22
ATOM     22  C   UNL     1     -10.419  11.102  63.737  0.00  0.00    +0.020 C 
BRANCH  22  23
ATOM     23  C   UNL     1     -10.799  12.534  63.846  0.00  0.00    +0.039 C 
BRANCH  23  24
ATOM     24  C   UNL     1     -12.430  12.529  64.128  0.00  0.00    +0.174 C 
ATOM     25  O   UNL     1     -12.670  13.652  63.128  0.00  0.00    -0.218 OA
BRANCH  24  29
ATOM     26  C   UNL     1     -10.490  14.637  67.247  0.00  0.00    -0.013 A 
ATOM     27  C   UNL     1     -11.109  13.420  67.466  0.00  0.00    -0.004 A 
ATOM     28  C   UNL     1     -12.061  12.932  66.577  0.00  0.00    -0.002 A 
ATOM     29  C   UNL     1     -12.318  13.574  65.368  0.00  0.00    +0.008 A 
ATOM     30  C   UNL     1     -11.489  14.650  65.100  0.00  0.00    -0.002 A 
ATOM     31  C   UNL     1     -10.934  15.350  66.155  0.00  0.00    -0.004 A 
BRANCH  26  33
ATOM     32  C   UNL     1      -8.756  14.335  68.140  0.00  0.00    +0.016 C 
ATOM     33  C   UNL     1      -9.170  14.994  67.861  0.00  0.00    +0.113 C 
ATOM     34  C   UNL     1      -8.377  15.727  66.781  0.00  0.00    +0.016 C 
BRANCH  33  35
ATOM     35  C   UNL     1      -9.377  15.937  69.005  0.00  0.00    +0.368 C 
ATOM     36  O   UNL     1      -9.442  17.289  68.650  0.00  0.00    -0.245 OA
ATOM     37  O   UNL     1     -10.198  15.564  69.893  0.00  0.00    -0.245 OA
ENDBRANCH  33  35
ENDBRANCH  26  33
ENDBRANCH  24  29
ENDBRANCH  23  24
ENDBRANCH  22  23
ENDBRANCH  21  22
ENDBRANCH   1  21
TORSDOF 10
ENDMDL
MODEL 9
REMARK VINA RESULT:      -6.9      3.143      4.641
REMARK  Name = 
REMARK  10 active torsions:
REMARK  status: ('A' for Active; 'I' for Inactive)
REMARK    1  A    between atoms: C_2  and  C_4
REMARK    2  A    between atoms: C_2  and  C_7
REMARK    3  A    between atoms: C_10  and  C_11
REMARK    4  A    between atoms: C_11  and  C_13
REMARK    5  A    between atoms: C_13  and  C_14
REMARK    6  A    between atoms: C_14  and  C_15
REMARK    7  A    between atoms: C_15  and  N_16
REMARK    8  A    between atoms: C_19  and  C_20
REMARK    9  A    between atoms: C_20  and  C_22
REMARK   10  A    between atoms: C_20  and  C_28
REMARK                            x       y       z     vdW  Elec       q    Type
REMARK                         _______ _______ _______ _____ _____    ______ ____
ROOT
ATOM      1  N   UNL     1      -9.070   9.418  64.353  0.00  0.00    -0.273 NA
ATOM      2  C   UNL     1      -7.963  10.336  64.616  0.00  0.00    +0.072 C 
ATOM      3  C   UNL     1      -7.658  10.402  66.086  0.00  0.00    +0.020 C 
ATOM      4  C   UNL     1      -8.890  10.473  66.944  0.00  0.00    +0.039 C 
ATOM      5  C   UNL     1      -9.867   9.363  66.668  0.00  0.00    +0.020 C 
ATOM      6  C   UNL     1      -9.321   8.552  65.504  0.00  0.00    +0.072 C 
ENDROOT
BRANCH   4   7
ATOM      7  C   UNL     1      -8.466  10.388  68.393  0.00  0.00    +0.164 C 
ATOM      8  O   UNL     1      -8.007   9.084  68.594  0.00  0.00    -0.217 OA
BRANCH   7   9
ATOM      9  C   UNL     1      -9.621  10.587  69.293  0.00  0.00    +0.009 A 
ATOM     10  C   UNL     1     -10.614  11.518  69.065  0.00  0.00    -0.002 A 
ATOM     11  C   UNL     1     -11.876  11.268  69.570  0.00  0.00    -0.000 A 
ATOM     12  C   UNL     1     -12.101  10.273  70.488  0.00  0.00    -0.000 A 
ATOM     13  C   UNL     1     -11.008   9.597  71.000  0.00  0.00    -0.000 A 
ATOM     14  C   UNL     1      -9.829   9.624  70.269  0.00  0.00    -0.002 A 
ENDBRANCH   7   9
BRANCH   7  15
ATOM     15  C   UNL     1      -7.342  11.326  68.698  0.00  0.00    +0.009 A 
ATOM     16  C   UNL     1      -6.396  10.976  69.653  0.00  0.00    -0.002 A 
ATOM     17  C   UNL     1      -5.750  11.960  70.389  0.00  0.00    -0.000 A 
ATOM     18  C   UNL     1      -6.033  13.304  70.181  0.00  0.00    -0.000 A 
ATOM     19  C   UNL     1      -6.882  13.661  69.169  0.00  0.00    -0.000 A 
ATOM     20  C   UNL     1      -7.417  12.670  68.388  0.00  0.00    -0.002 A 
ENDBRANCH   7  15
ENDBRANCH   4   7
BRANCH   1  21
ATOM     21  C   UNL     1     -10.255  10.254  64.274  0.00  0.00    +0.072 C 
BRANCH  21  22
ATOM     22  C   UNL     1     -10.074  11.407  63.429  0.00  0.00    +0.020 C 
BRANCH  22  23
ATOM     23  C   UNL     1     -10.891  12.622  63.677  0.00  0.00    +0.039 C 
BRANCH  23  24
ATOM     24  C   UNL     1     -11.764  12.286  65.043  0.00  0.00    +0.174 C 
ATOM     25  O   UNL     1     -13.086  12.355  64.291  0.00  0.00    -0.218 OA
BRANCH  24  29
ATOM     26  C   UNL     1     -10.486  15.867  66.907  0.00  0.00    -0.013 A 
ATOM     27  C   UNL     1     -11.280  14.947  67.566  0.00  0.00    -0.004 A 
ATOM     28  C   UNL     1     -12.013  13.999  66.859  0.00  0.00    -0.002 A 
ATOM     29  C   UNL     1     -11.862  13.848  65.483  0.00  0.00    +0.008 A 
ATOM     30  C   UNL     1     -10.871  14.634  64.922  0.00  0.00    -0.002 A 
ATOM     31  C   UNL     1     -10.538  15.830  65.531  0.00  0.00    -0.004 A 
BRANCH  26  33
ATOM     32  C   UNL     1      -9.233  16.336  68.358  0.00  0.00    +0.016 C 
ATOM     33  C   UNL     1      -9.344  16.573  67.574  0.00  0.00    +0.113 C 
ATOM     34  C   UNL     1      -8.106  16.281  66.729  0.00  0.00    +0.016 C 
BRANCH  33  35
ATOM     35  C   UNL     1      -9.578  18.051  67.559  0.00  0.00    +0.368 C 
ATOM     36  O   UNL     1     -10.900  18.442  67.799  0.00  0.00    -0.245 OA
ATOM     37  O   UNL     1      -8.689  18.761  68.112  0.00  0.00    -0.245 OA
ENDBRANCH  33  35
ENDBRANCH  26  33
ENDBRANCH  24  29
ENDBRANCH  23  24
ENDBRANCH  22  23
ENDBRANCH  21  22
ENDBRANCH   1  21
TORSDOF 10
ENDMDL
