MODEL 1
REMARK VINA RESULT:      -7.8      0.000      0.000
REMARK  Name = 
REMARK  10 active torsions:
REMARK  status: ('A' for Active; 'I' for Inactive)
REMARK    1  A    between atoms: C_2  and  C_3
REMARK    2  A    between atoms: C_13  and  C_14
REMARK    3  A    between atoms: C_14  and  C_15
REMARK    4  A    between atoms: C_15  and  O_17
REMARK    5  A    between atoms: C_24  and  C_26
REMARK    6  A    between atoms: C_40  and  O_41
REMARK    7  A    between atoms: C_49  and  C_51
REMARK    8  A    between atoms: C_51  and  O_53
REMARK    9  A    between atoms: C_55  and  O_56
REMARK   10  A    between atoms: O_56  and  C_57
REMARK                            x       y       z     vdW  Elec       q    Type
REMARK                         _______ _______ _______ _____ _____    ______ ____
ROOT
ATOM      1  C   UNL     1      -8.584  11.818  67.743  0.00  0.00    +0.072 C 
ATOM      2  C   UNL     1      -7.982  13.047  66.875  0.00  0.00    +0.070 C 
ATOM      3  N   UNL     1      -6.495  12.746  67.262  0.00  0.00    -0.269 NA
ATOM      4  C   UNL     1      -6.006  13.917  67.835  0.00  0.00    +0.073 C 
ATOM      5  C   UNL     1      -7.078  14.090  68.911  0.00  0.00    +0.024 C 
ATOM      6  C   UNL     1      -6.258  11.510  67.782  0.00  0.00    +0.099 C 
ATOM      7  C   UNL     1      -6.877  11.387  69.149  0.00  0.00    -0.013 C 
ATOM      8  C   UNL     1      -8.209  14.211  67.990  0.00  0.00    +0.055 C 
ATOM      9  C   UNL     1      -9.594  13.819  68.737  0.00  0.00    +0.127 C 
ATOM     10  C   UNL     1     -10.427  13.356  67.431  0.00  0.00    +0.268 C 
ATOM     11  O   UNL     1     -11.755  13.465  67.879  0.00  0.00    -0.209 OA
ATOM     12  N   UNL     1     -10.241  15.253  68.697  0.00  0.00    -0.250 N 
ATOM     13  C   UNL     1     -11.101  15.434  69.832  0.00  0.00    +0.307 C 
ATOM     14  O   UNL     1     -11.988  16.312  69.773  0.00  0.00    -0.265 OA
ATOM     15  C   UNL     1      -9.267  16.151  68.289  0.00  0.00    +0.053 A 
ATOM     16  C   UNL     1      -9.576  17.499  68.095  0.00  0.00    +0.051 A 
ATOM     17  C   UNL     1      -8.735  18.273  67.309  0.00  0.00    +0.137 A 
ATOM     18  C   UNL     1      -7.515  17.722  66.977  0.00  0.00    +0.026 A 
ATOM     19  C   UNL     1      -7.447  16.355  66.898  0.00  0.00    -0.003 A 
ATOM     20  C   UNL     1      -8.413  15.490  67.407  0.00  0.00    -0.006 A 
ATOM     21  C   UNL     1     -10.156  11.745  67.371  0.00  0.00    +0.213 C 
ATOM     22  C   UNL     1      -8.190  11.664  69.033  0.00  0.00    -0.025 C 
ENDROOT
BRANCH  18  23
ATOM     23  C   UNL     1      -6.363  18.647  66.716  0.00  0.00    +0.146 C 
ATOM     24  C   UNL     1      -6.152  19.482  67.903  0.00  0.00    +0.068 A 
ATOM     25  C   UNL     1      -4.998  20.262  67.908  0.00  0.00    -0.005 A 
ATOM     26  C   UNL     1      -4.664  20.436  69.249  0.00  0.00    +0.015 A 
ATOM     27  C   UNL     1      -5.631  19.773  69.994  0.00  0.00    +0.081 A 
ATOM     28  C   UNL     1      -5.738  19.942  71.371  0.00  0.00    +0.019 A 
ATOM     29  C   UNL     1      -4.779  20.673  72.032  0.00  0.00    +0.002 A 
ATOM     30  C   UNL     1      -3.850  21.363  71.293  0.00  0.00    +0.000 A 
ATOM     31  C   UNL     1      -3.733  21.187  69.928  0.00  0.00    +0.001 A 
ATOM     32  C   UNL     1      -4.979  21.292  66.856  0.00  0.00    +0.045 C 
ATOM     33  C   UNL     1      -3.730  21.251  65.983  0.00  0.00    +0.077 C 
ATOM     34  N   UNL     1      -4.062  21.588  64.592  0.00  0.00    -0.270 NA
ATOM     35  C   UNL     1      -3.422  20.666  63.653  0.00  0.00    +0.103 C 
ATOM     36  C   UNL     1      -4.415  20.079  62.662  0.00  0.00    +0.141 C 
ATOM     37  C   UNL     1      -5.470  19.198  63.331  0.00  0.00    +0.033 C 
ATOM     38  C   UNL     1      -5.157  19.611  64.874  0.00  0.00    +0.020 C 
ATOM     39  O   UNL     1      -3.668  19.251  61.822  0.00  0.00    -0.224 OA
ATOM     40  C   UNL     1      -5.472  21.183  64.535  0.00  0.00    +0.072 C 
ATOM     41  N   UNL     1      -6.569  19.285  69.181  0.00  0.00    -0.249 NA
ATOM     42  C   UNL     1      -6.661  19.364  65.449  0.00  0.00    +0.022 C 
BRANCH  36  43
ATOM     43  C   UNL     1      -5.066  21.144  61.814  0.00  0.00    +0.032 C 
ATOM     44  C   UNL     1      -6.063  20.438  60.915  0.00  0.00    +0.003 C 
ENDBRANCH  36  43
BRANCH  23  45
ATOM     45  C   UNL     1      -5.208  17.726  66.449  0.00  0.00    +0.325 C 
ATOM     46  O   UNL     1      -5.286  17.063  65.375  0.00  0.00    -0.249 OA
BRANCH  45  47
ATOM     47  O   UNL     1      -4.114  17.607  67.264  0.00  0.00    -0.444 OA
ATOM     48  C   UNL     1      -3.296  16.457  67.064  0.00  0.00    +0.256 C 
ENDBRANCH  45  47
ENDBRANCH  23  45
ENDBRANCH  18  23
BRANCH  17  49
ATOM     49  O   UNL     1      -8.925  19.657  67.333  0.00  0.00    -0.472 OA
ATOM     50  C   UNL     1     -10.187  20.245  67.174  0.00  0.00    +0.252 C 
ENDBRANCH  17  49
BRANCH  10  51
ATOM     51  C   UNL     1     -10.298  13.983  66.218  0.00  0.00    +0.350 C 
ATOM     52  O   UNL     1     -10.188  13.195  65.214  0.00  0.00    -0.247 OA
BRANCH  51  53
ATOM     53  O   UNL     1     -11.232  14.963  65.839  0.00  0.00    -0.443 OA
ATOM     54  C   UNL     1     -10.938  15.939  64.842  0.00  0.00    +0.256 C 
ENDBRANCH  51  53
ENDBRANCH  10  51
BRANCH   1  56
ATOM     55  C   UNL     1      -8.969  10.225  66.249  0.00  0.00    +0.001 C 
ATOM     56  C   UNL     1      -8.095  10.633  66.907  0.00  0.00    +0.009 C 
ENDBRANCH   1  56
BRANCH  21  57
ATOM     57  O   UNL     1     -10.588  11.560  68.844  0.00  0.00    -0.449 OA
BRANCH  57  58
ATOM     58  C   UNL     1     -11.388  10.460  69.010  0.00  0.00    +0.318 C 
ATOM     59  O   UNL     1     -12.604  10.687  69.249  0.00  0.00    -0.250 OA
ATOM     60  C   UNL     1     -10.833   9.131  69.379  0.00  0.00    +0.121 C 
ENDBRANCH  57  58
ENDBRANCH  21  57
TORSDOF 10
ENDMDL
MODEL 2
REMARK VINA RESULT:      -6.8      4.128     10.714
REMARK  Name = 
REMARK  10 active torsions:
REMARK  status: ('A' for Active; 'I' for Inactive)
REMARK    1  A    between atoms: C_2  and  C_3
REMARK    2  A    between atoms: C_13  and  C_14
REMARK    3  A    between atoms: C_14  and  C_15
REMARK    4  A    between atoms: C_15  and  O_17
REMARK    5  A    between atoms: C_24  and  C_26
REMARK    6  A    between atoms: C_40  and  O_41
REMARK    7  A    between atoms: C_49  and  C_51
REMARK    8  A    between atoms: C_51  and  O_53
REMARK    9  A    between atoms: C_55  and  O_56
REMARK   10  A    between atoms: O_56  and  C_57
REMARK                            x       y       z     vdW  Elec       q    Type
REMARK                         _______ _______ _______ _____ _____    ______ ____
ROOT
ATOM      1  C   UNL     1      -8.983  15.328  67.775  0.00  0.00    +0.072 C 
ATOM      2  C   UNL     1      -8.903  14.023  68.732  0.00  0.00    +0.070 C 
ATOM      3  N   UNL     1      -7.407  14.260  69.127  0.00  0.00    -0.269 NA
ATOM      4  C   UNL     1      -6.731  13.095  68.774  0.00  0.00    +0.073 C 
ATOM      5  C   UNL     1      -7.156  13.040  67.307  0.00  0.00    +0.024 C 
ATOM      6  C   UNL     1      -6.920  15.507  68.877  0.00  0.00    +0.099 C 
ATOM      7  C   UNL     1      -6.802  15.737  67.394  0.00  0.00    -0.013 C 
ATOM      8  C   UNL     1      -8.593  12.934  67.562  0.00  0.00    +0.055 C 
ATOM      9  C   UNL     1      -9.437  13.442  66.274  0.00  0.00    +0.127 C 
ATOM     10  C   UNL     1     -10.785  13.881  67.052  0.00  0.00    +0.268 C 
ATOM     11  O   UNL     1     -11.735  13.870  66.016  0.00  0.00    -0.209 OA
ATOM     12  N   UNL     1     -10.057  12.046  65.894  0.00  0.00    -0.250 N 
ATOM     13  C   UNL     1     -10.268  11.975  64.476  0.00  0.00    +0.307 C 
ATOM     14  O   UNL     1     -11.095  11.145  64.038  0.00  0.00    -0.265 OA
ATOM     15  C   UNL     1      -9.422  11.075  66.651  0.00  0.00    +0.053 A 
ATOM     16  C   UNL     1      -9.817   9.738  66.574  0.00  0.00    +0.051 A 
ATOM     17  C   UNL     1      -9.477   8.878  67.608  0.00  0.00    +0.137 A 
ATOM     18  C   UNL     1      -8.555   9.340  68.522  0.00  0.00    +0.026 A 
ATOM     19  C   UNL     1      -8.501  10.696  68.724  0.00  0.00    -0.003 A 
ATOM     20  C   UNL     1      -9.082  11.639  67.881  0.00  0.00    -0.006 A 
ATOM     21  C   UNL     1     -10.539  15.469  67.353  0.00  0.00    +0.213 C 
ATOM     22  C   UNL     1      -8.014  15.528  66.846  0.00  0.00    -0.025 C 
ENDROOT
BRANCH  18  23
ATOM     23  C   UNL     1      -7.693   8.340  69.234  0.00  0.00    +0.146 C 
ATOM     24  C   UNL     1      -6.605   7.935  68.337  0.00  0.00    +0.068 A 
ATOM     25  C   UNL     1      -5.598   7.158  68.906  0.00  0.00    -0.005 A 
ATOM     26  C   UNL     1      -4.450   7.423  68.163  0.00  0.00    +0.015 A 
ATOM     27  C   UNL     1      -4.811   8.329  67.174  0.00  0.00    +0.081 A 
ATOM     28  C   UNL     1      -3.966   8.626  66.109  0.00  0.00    +0.019 A 
ATOM     29  C   UNL     1      -2.688   8.119  66.108  0.00  0.00    +0.002 A 
ATOM     30  C   UNL     1      -2.346   7.190  67.060  0.00  0.00    +0.000 A 
ATOM     31  C   UNL     1      -3.178   6.903  68.125  0.00  0.00    +0.001 A 
ATOM     32  C   UNL     1      -6.062   5.840  69.368  0.00  0.00    +0.045 C 
ATOM     33  C   UNL     1      -5.714   5.546  70.824  0.00  0.00    +0.077 C 
ATOM     34  N   UNL     1      -6.793   4.782  71.467  0.00  0.00    -0.270 NA
ATOM     35  C   UNL     1      -7.110   5.320  72.790  0.00  0.00    +0.103 C 
ATOM     36  C   UNL     1      -8.599   5.584  72.957  0.00  0.00    +0.141 C 
ATOM     37  C   UNL     1      -9.117   6.674  72.019  0.00  0.00    +0.033 C 
ATOM     38  C   UNL     1      -7.806   6.780  71.060  0.00  0.00    +0.020 C 
ATOM     39  O   UNL     1      -8.755   6.062  74.260  0.00  0.00    -0.224 OA
ATOM     40  C   UNL     1      -7.949   5.197  70.662  0.00  0.00    +0.072 C 
ATOM     41  N   UNL     1      -6.125   8.556  67.229  0.00  0.00    -0.249 NA
ATOM     42  C   UNL     1      -8.591   7.258  69.714  0.00  0.00    +0.022 C 
BRANCH  36  43
ATOM     43  C   UNL     1      -9.417   4.324  72.818  0.00  0.00    +0.032 C 
ATOM     44  C   UNL     1     -10.852   4.697  73.139  0.00  0.00    +0.003 C 
ENDBRANCH  36  43
BRANCH  23  45
ATOM     45  C   UNL     1      -7.196   9.079  70.442  0.00  0.00    +0.325 C 
ATOM     46  O   UNL     1      -8.098   9.562  71.185  0.00  0.00    -0.249 OA
BRANCH  45  47
ATOM     47  O   UNL     1      -5.874   9.215  70.772  0.00  0.00    -0.444 OA
ATOM     48  C   UNL     1      -5.408  10.544  70.991  0.00  0.00    +0.256 C 
ENDBRANCH  45  47
ENDBRANCH  23  45
ENDBRANCH  18  23
BRANCH  17  49
ATOM     49  O   UNL     1      -9.665   7.509  67.393  0.00  0.00    -0.472 OA
ATOM     50  C   UNL     1     -10.857   6.986  66.875  0.00  0.00    +0.252 C 
ENDBRANCH  17  49
BRANCH  10  51
ATOM     51  C   UNL     1     -11.271  13.184  68.129  0.00  0.00    +0.350 C 
ATOM     52  O   UNL     1     -11.900  13.894  68.990  0.00  0.00    -0.247 OA
BRANCH  51  53
ATOM     53  O   UNL     1     -12.063  12.041  67.918  0.00  0.00    -0.443 OA
ATOM     54  C   UNL     1     -12.280  11.076  68.944  0.00  0.00    +0.256 C 
ENDBRANCH  51  53
ENDBRANCH  10  51
BRANCH   1  56
ATOM     55  C   UNL     1     -10.014  16.754  69.126  0.00  0.00    +0.001 C 
ATOM     56  C   UNL     1      -8.930  16.437  68.827  0.00  0.00    +0.009 C 
ENDBRANCH   1  56
BRANCH  21  57
ATOM     57  O   UNL     1     -10.203  15.756  65.871  0.00  0.00    -0.449 OA
BRANCH  57  58
ATOM     58  C   UNL     1     -10.831  16.885  65.413  0.00  0.00    +0.318 C 
ATOM     59  O   UNL     1     -11.313  16.821  64.250  0.00  0.00    -0.250 OA
ATOM     60  C   UNL     1     -10.554  18.228  65.989  0.00  0.00    +0.121 C 
ENDBRANCH  57  58
ENDBRANCH  21  57
TORSDOF 10
ENDMDL
MODEL 3
REMARK VINA RESULT:      -6.3      3.143      6.210
REMARK  Name = 
REMARK  10 active torsions:
REMARK  status: ('A' for Active; 'I' for Inactive)
REMARK    1  A    between atoms: C_2  and  C_3
REMARK    2  A    between atoms: C_13  and  C_14
REMARK    3  A    between atoms: C_14  and  C_15
REMARK    4  A    between atoms: C_15  and  O_17
REMARK    5  A    between atoms: C_24  and  C_26
REMARK    6  A    between atoms: C_40  and  O_41
REMARK    7  A    between atoms: C_49  and  C_51
REMARK    8  A    between atoms: C_51  and  O_53
REMARK    9  A    between atoms: C_55  and  O_56
REMARK   10  A    between atoms: O_56  and  C_57
REMARK                            x       y       z     vdW  Elec       q    Type
REMARK                         _______ _______ _______ _____ _____    ______ ____
ROOT
ATOM      1  C   UNL     1      -4.752   8.961  68.519  0.00  0.00    +0.072 C 
ATOM      2  C   UNL     1      -4.943  10.543  68.218  0.00  0.00    +0.070 C 
ATOM      3  N   UNL     1      -4.788  10.966  69.718  0.00  0.00    -0.269 NA
ATOM      4  C   UNL     1      -5.947  11.669  70.036  0.00  0.00    +0.073 C 
ATOM      5  C   UNL     1      -6.961  10.603  69.622  0.00  0.00    +0.024 C 
ATOM      6  C   UNL     1      -4.234  10.033  70.541  0.00  0.00    +0.099 C 
ATOM      7  C   UNL     1      -5.176   8.873  70.729  0.00  0.00    -0.013 C 
ATOM      8  C   UNL     1      -6.571  10.551  68.213  0.00  0.00    +0.055 C 
ATOM      9  C   UNL     1      -7.001   9.133  67.556  0.00  0.00    +0.127 C 
ATOM     10  C   UNL     1      -5.887   9.084  66.384  0.00  0.00    +0.268 C 
ATOM     11  O   UNL     1      -6.459   8.176  65.477  0.00  0.00    -0.209 OA
ATOM     12  N   UNL     1      -8.082   9.704  66.566  0.00  0.00    -0.250 N 
ATOM     13  C   UNL     1      -9.113   8.729  66.352  0.00  0.00    +0.307 C 
ATOM     14  O   UNL     1      -9.822   8.826  65.326  0.00  0.00    -0.265 OA
ATOM     15  C   UNL     1      -8.303  11.033  66.894  0.00  0.00    +0.053 A 
ATOM     16  C   UNL     1      -9.170  11.821  66.135  0.00  0.00    +0.051 A 
ATOM     17  C   UNL     1      -9.061  13.201  66.209  0.00  0.00    +0.137 A 
ATOM     18  C   UNL     1      -8.271  13.707  67.219  0.00  0.00    +0.026 A 
ATOM     19  C   UNL     1      -7.235  12.921  67.655  0.00  0.00    -0.003 A 
ATOM     20  C   UNL     1      -7.106  11.564  67.373  0.00  0.00    -0.006 A 
ATOM     21  C   UNL     1      -4.663   8.246  67.071  0.00  0.00    +0.213 C 
ATOM     22  C   UNL     1      -5.476   8.385  69.511  0.00  0.00    -0.025 C 
ENDROOT
BRANCH  18  23
ATOM     23  C   UNL     1      -8.587  15.071  67.756  0.00  0.00    +0.146 C 
ATOM     24  C   UNL     1      -9.897  15.026  68.414  0.00  0.00    +0.068 A 
ATOM     25  C   UNL     1     -10.259  16.158  69.140  0.00  0.00    -0.005 A 
ATOM     26  C   UNL     1     -11.123  15.710  70.137  0.00  0.00    +0.015 A 
ATOM     27  C   UNL     1     -11.258  14.338  69.964  0.00  0.00    +0.081 A 
ATOM     28  C   UNL     1     -12.233  13.608  70.637  0.00  0.00    +0.019 A 
ATOM     29  C   UNL     1     -12.990  14.231  71.601  0.00  0.00    +0.002 A 
ATOM     30  C   UNL     1     -12.887  15.594  71.741  0.00  0.00    +0.000 A 
ATOM     31  C   UNL     1     -11.912  16.319  71.083  0.00  0.00    +0.001 A 
ATOM     32  C   UNL     1     -10.426  17.362  68.308  0.00  0.00    +0.045 C 
ATOM     33  C   UNL     1      -9.609  18.556  68.791  0.00  0.00    +0.077 C 
ATOM     34  N   UNL     1      -9.111  19.335  67.649  0.00  0.00    -0.270 NA
ATOM     35  C   UNL     1      -7.701  19.689  67.820  0.00  0.00    +0.103 C 
ATOM     36  C   UNL     1      -6.866  19.314  66.605  0.00  0.00    +0.141 C 
ATOM     37  C   UNL     1      -6.806  17.805  66.370  0.00  0.00    +0.033 C 
ATOM     38  C   UNL     1      -7.980  17.372  67.412  0.00  0.00    +0.020 C 
ATOM     39  O   UNL     1      -5.566  19.732  66.896  0.00  0.00    -0.224 OA
ATOM     40  C   UNL     1      -9.061  18.302  66.606  0.00  0.00    +0.072 C 
ATOM     41  N   UNL     1     -10.594  13.954  68.872  0.00  0.00    -0.249 NA
ATOM     42  C   UNL     1      -8.449  16.025  66.625  0.00  0.00    +0.022 C 
BRANCH  36  43
ATOM     43  C   UNL     1      -7.323  20.033  65.360  0.00  0.00    +0.032 C 
ATOM     44  C   UNL     1      -6.075  20.364  64.564  0.00  0.00    +0.003 C 
ENDBRANCH  36  43
BRANCH  23  45
ATOM     45  C   UNL     1      -7.470  15.354  68.718  0.00  0.00    +0.325 C 
ATOM     46  O   UNL     1      -7.780  15.272  69.942  0.00  0.00    -0.249 OA
BRANCH  45  47
ATOM     47  O   UNL     1      -6.187  15.651  68.343  0.00  0.00    -0.444 OA
ATOM     48  C   UNL     1      -5.207  15.649  69.377  0.00  0.00    +0.256 C 
ENDBRANCH  45  47
ENDBRANCH  23  45
ENDBRANCH  18  23
BRANCH  17  49
ATOM     49  O   UNL     1     -10.088  13.960  65.640  0.00  0.00    -0.472 OA
ATOM     50  C   UNL     1     -10.914  13.463  64.623  0.00  0.00    +0.252 C 
ENDBRANCH  17  49
BRANCH  10  51
ATOM     51  C   UNL     1      -5.479  10.209  65.714  0.00  0.00    +0.350 C 
ATOM     52  O   UNL     1      -4.210  10.320  65.574  0.00  0.00    -0.247 OA
BRANCH  51  53
ATOM     53  O   UNL     1      -6.033  10.509  64.457  0.00  0.00    -0.443 OA
ATOM     54  C   UNL     1      -5.227  10.631  63.288  0.00  0.00    +0.256 C 
ENDBRANCH  51  53
ENDBRANCH  10  51
BRANCH   1  56
ATOM     55  C   UNL     1      -2.638   8.601  67.953  0.00  0.00    +0.001 C 
ATOM     56  C   UNL     1      -3.265   8.934  68.880  0.00  0.00    +0.009 C 
ENDBRANCH   1  56
BRANCH  21  57
ATOM     57  O   UNL     1      -5.607   7.093  67.483  0.00  0.00    -0.449 OA
BRANCH  57  58
ATOM     58  C   UNL     1      -5.054   5.864  67.236  0.00  0.00    +0.318 C 
ATOM     59  O   UNL     1      -5.655   5.142  66.397  0.00  0.00    -0.250 OA
ATOM     60  C   UNL     1      -4.134   5.207  68.202  0.00  0.00    +0.121 C 
ENDBRANCH  57  58
ENDBRANCH  21  57
TORSDOF 10
ENDMDL
MODEL 4
REMARK VINA RESULT:      -6.3      2.793      9.824
REMARK  Name = 
REMARK  10 active torsions:
REMARK  status: ('A' for Active; 'I' for Inactive)
REMARK    1  A    between atoms: C_2  and  C_3
REMARK    2  A    between atoms: C_13  and  C_14
REMARK    3  A    between atoms: C_14  and  C_15
REMARK    4  A    between atoms: C_15  and  O_17
REMARK    5  A    between atoms: C_24  and  C_26
REMARK    6  A    between atoms: C_40  and  O_41
REMARK    7  A    between atoms: C_49  and  C_51
REMARK    8  A    between atoms: C_51  and  O_53
REMARK    9  A    between atoms: C_55  and  O_56
REMARK   10  A    between atoms: O_56  and  C_57
REMARK                            x       y       z     vdW  Elec       q    Type
REMARK                         _______ _______ _______ _____ _____    ______ ____
ROOT
ATOM      1  C   UNL     1      -6.365  18.653  67.640  0.00  0.00    +0.072 C 
ATOM      2  C   UNL     1      -6.550  17.185  66.980  0.00  0.00    +0.070 C 
ATOM      3  N   UNL     1      -8.027  17.445  66.530  0.00  0.00    -0.269 NA
ATOM      4  C   UNL     1      -8.786  16.435  67.114  0.00  0.00    +0.073 C 
ATOM      5  C   UNL     1      -8.356  16.659  68.564  0.00  0.00    +0.024 C 
ATOM      6  C   UNL     1      -8.417  18.749  66.506  0.00  0.00    +0.099 C 
ATOM      7  C   UNL     1      -8.508  19.295  67.907  0.00  0.00    -0.013 C 
ATOM      8  C   UNL     1      -6.933  16.394  68.350  0.00  0.00    +0.055 C 
ATOM      9  C   UNL     1      -6.044  17.098  69.509  0.00  0.00    +0.127 C 
ATOM     10  C   UNL     1      -4.673  17.261  68.668  0.00  0.00    +0.268 C 
ATOM     11  O   UNL     1      -3.719  17.398  69.691  0.00  0.00    -0.209 OA
ATOM     12  N   UNL     1      -5.528  15.772  70.181  0.00  0.00    -0.250 N 
ATOM     13  C   UNL     1      -5.312  15.986  71.584  0.00  0.00    +0.307 C 
ATOM     14  O   UNL     1      -4.548  15.209  72.195  0.00  0.00    -0.265 OA
ATOM     15  C   UNL     1      -6.240  14.713  69.641  0.00  0.00    +0.053 A 
ATOM     16  C   UNL     1      -5.945  13.397  70.002  0.00  0.00    +0.051 A 
ATOM     17  C   UNL     1      -6.356  12.365  69.170  0.00  0.00    +0.137 A 
ATOM     18  C   UNL     1      -7.247  12.692  68.170  0.00  0.00    +0.026 A 
ATOM     19  C   UNL     1      -7.200  13.974  67.686  0.00  0.00    -0.003 A 
ATOM     20  C   UNL     1      -6.545  15.028  68.316  0.00  0.00    -0.006 A 
ATOM     21  C   UNL     1      -4.801  18.763  68.037  0.00  0.00    +0.213 C 
ATOM     22  C   UNL     1      -7.311  19.117  68.496  0.00  0.00    -0.025 C 
ENDROOT
BRANCH  18  23
ATOM     23  C   UNL     1      -8.187  11.632  67.678  0.00  0.00    +0.146 C 
ATOM     24  C   UNL     1      -9.389  12.280  67.144  0.00  0.00    +0.068 A 
ATOM     25  C   UNL     1     -10.283  11.453  66.467  0.00  0.00    -0.005 A 
ATOM     26  C   UNL     1     -10.937  12.273  65.550  0.00  0.00    +0.015 A 
ATOM     27  C   UNL     1     -10.427  13.554  65.720  0.00  0.00    +0.081 A 
ATOM     28  C   UNL     1     -11.026  14.664  65.133  0.00  0.00    +0.019 A 
ATOM     29  C   UNL     1     -12.063  14.477  64.250  0.00  0.00    +0.002 A 
ATOM     30  C   UNL     1     -12.595  13.217  64.115  0.00  0.00    +0.000 A 
ATOM     31  C   UNL     1     -11.995  12.112  64.687  0.00  0.00    +0.001 A 
ATOM     32  C   UNL     1     -10.898  10.425  67.323  0.00  0.00    +0.045 C 
ATOM     33  C   UNL     1     -10.749   9.008  66.779  0.00  0.00    +0.077 C 
ATOM     34  N   UNL     1     -10.555   8.052  67.878  0.00  0.00    -0.270 NA
ATOM     35  C   UNL     1      -9.475   7.110  67.580  0.00  0.00    +0.103 C 
ATOM     36  C   UNL     1      -8.458   7.033  68.709  0.00  0.00    +0.141 C 
ATOM     37  C   UNL     1      -7.707   8.347  68.922  0.00  0.00    +0.033 C 
ATOM     38  C   UNL     1      -8.648   9.292  67.989  0.00  0.00    +0.020 C 
ATOM     39  O   UNL     1      -7.514   6.087  68.303  0.00  0.00    -0.224 OA
ATOM     40  C   UNL     1      -9.957   8.919  68.901  0.00  0.00    +0.072 C 
ATOM     41  N   UNL     1      -9.569  13.565  66.742  0.00  0.00    -0.249 NA
ATOM     42  C   UNL     1      -8.393  10.681  68.802  0.00  0.00    +0.022 C 
BRANCH  36  43
ATOM     43  C   UNL     1      -9.078   6.554  69.998  0.00  0.00    +0.032 C 
ATOM     44  C   UNL     1      -9.625   5.165  69.730  0.00  0.00    +0.003 C 
ENDBRANCH  36  43
BRANCH  23  45
ATOM     45  C   UNL     1      -7.405  10.911  66.620  0.00  0.00    +0.325 C 
ATOM     46  O   UNL     1      -7.992  10.788  65.506  0.00  0.00    -0.249 OA
BRANCH  45  47
ATOM     47  O   UNL     1      -6.133  10.433  66.794  0.00  0.00    -0.444 OA
ATOM     48  C   UNL     1      -5.183  10.775  65.788  0.00  0.00    +0.256 C 
ENDBRANCH  45  47
ENDBRANCH  23  45
ENDBRANCH  18  23
BRANCH  17  49
ATOM     49  O   UNL     1      -6.270  11.063  69.671  0.00  0.00    -0.472 OA
ATOM     50  C   UNL     1      -5.233  10.651  70.518  0.00  0.00    +0.252 C 
ENDBRANCH  17  49
BRANCH  10  51
ATOM     51  C   UNL     1      -4.248  16.318  67.767  0.00  0.00    +0.350 C 
ATOM     52  O   UNL     1      -3.842  16.788  66.647  0.00  0.00    -0.247 OA
BRANCH  51  53
ATOM     53  O   UNL     1      -3.288  15.366  68.157  0.00  0.00    -0.443 OA
ATOM     54  C   UNL     1      -3.160  14.111  67.493  0.00  0.00    +0.256 C 
ENDBRANCH  51  53
ENDBRANCH  10  51
BRANCH   1  56
ATOM     55  C   UNL     1      -5.240  19.764  66.085  0.00  0.00    +0.001 C 
ATOM     56  C   UNL     1      -6.342  19.516  66.377  0.00  0.00    +0.009 C 
ENDBRANCH   1  56
BRANCH  21  57
ATOM     57  O   UNL     1      -5.103  19.382  69.421  0.00  0.00    -0.449 OA
BRANCH  57  58
ATOM     58  C   UNL     1      -4.353  20.504  69.657  0.00  0.00    +0.318 C 
ATOM     59  O   UNL     1      -4.937  21.450  70.250  0.00  0.00    -0.250 OA
ATOM     60  C   UNL     1      -3.131  20.813  68.868  0.00  0.00    +0.121 C 
ENDBRANCH  57  58
ENDBRANCH  21  57
TORSDOF 10
ENDMDL
MODEL 5
REMARK VINA RESULT:      -6.3      3.393      7.838
REMARK  Name = 
REMARK  10 active torsions:
REMARK  status: ('A' for Active; 'I' for Inactive)
REMARK    1  A    between atoms: C_2  and  C_3
REMARK    2  A    between atoms: C_13  and  C_14
REMARK    3  A    between atoms: C_14  and  C_15
REMARK    4  A    between atoms: C_15  and  O_17
REMARK    5  A    between atoms: C_24  and  C_26
REMARK    6  A    between atoms: C_40  and  O_41
REMARK    7  A    between atoms: C_49  and  C_51
REMARK    8  A    between atoms: C_51  and  O_53
REMARK    9  A    between atoms: C_55  and  O_56
REMARK   10  A    between atoms: O_56  and  C_57
REMARK                            x       y       z     vdW  Elec       q    Type
REMARK                         _______ _______ _______ _____ _____    ______ ____
ROOT
ATOM      1  C   UNL     1     -10.056   7.575  71.482  0.00  0.00    +0.072 C 
ATOM      2  C   UNL     1      -9.663   9.141  71.341  0.00  0.00    +0.070 C 
ATOM      3  N   UNL     1     -11.142   9.615  71.140  0.00  0.00    -0.269 NA
ATOM      4  C   UNL     1     -11.160  10.300  69.928  0.00  0.00    +0.073 C 
ATOM      5  C   UNL     1     -10.563   9.199  69.053  0.00  0.00    +0.024 C 
ATOM      6  C   UNL     1     -12.103   8.721  71.504  0.00  0.00    +0.099 C 
ATOM      7  C   UNL     1     -12.111   7.547  70.562  0.00  0.00    -0.013 C 
ATOM      8  C   UNL     1      -9.284   9.112  69.758  0.00  0.00    +0.055 C 
ATOM      9  C   UNL     1      -8.597   7.664  69.513  0.00  0.00    +0.127 C 
ATOM     10  C   UNL     1      -7.714   7.605  70.866  0.00  0.00    +0.268 C 
ATOM     11  O   UNL     1      -6.733   6.656  70.532  0.00  0.00    -0.209 OA
ATOM     12  N   UNL     1      -7.366   8.179  68.679  0.00  0.00    -0.250 N 
ATOM     13  C   UNL     1      -6.955   7.174  67.740  0.00  0.00    +0.307 C 
ATOM     14  O   UNL     1      -5.792   7.222  67.285  0.00  0.00    -0.265 OA
ATOM     15  C   UNL     1      -7.586   9.512  68.368  0.00  0.00    +0.053 A 
ATOM     16  C   UNL     1      -6.620  10.255  67.687  0.00  0.00    +0.051 A 
ATOM     17  C   UNL     1      -6.669  11.640  67.755  0.00  0.00    +0.137 A 
ATOM     18  C   UNL     1      -7.814  12.195  68.284  0.00  0.00    +0.026 A 
ATOM     19  C   UNL     1      -8.504  11.448  69.203  0.00  0.00    -0.003 A 
ATOM     20  C   UNL     1      -8.308  10.086  69.415  0.00  0.00    -0.006 A 
ATOM     21  C   UNL     1      -8.693   6.817  71.912  0.00  0.00    +0.213 C 
ATOM     22  C   UNL     1     -10.875   7.013  70.557  0.00  0.00    -0.025 C 
ENDROOT
BRANCH  18  23
ATOM     23  C   UNL     1      -8.216  13.568  67.832  0.00  0.00    +0.146 C 
ATOM     24  C   UNL     1      -9.012  13.445  66.607  0.00  0.00    +0.068 A 
ATOM     25  C   UNL     1      -9.632  14.610  66.158  0.00  0.00    -0.005 A 
ATOM     26  C   UNL     1     -10.763  14.192  65.460  0.00  0.00    +0.015 A 
ATOM     27  C   UNL     1     -10.771  12.804  65.501  0.00  0.00    +0.081 A 
ATOM     28  C   UNL     1     -11.629  12.052  64.704  0.00  0.00    +0.019 A 
ATOM     29  C   UNL     1     -12.587  12.698  63.958  0.00  0.00    +0.002 A 
ATOM     30  C   UNL     1     -12.551  14.069  63.883  0.00  0.00    +0.000 A 
ATOM     31  C   UNL     1     -11.710  14.817  64.684  0.00  0.00    +0.001 A 
ATOM     32  C   UNL     1      -8.685  15.661  65.751  0.00  0.00    +0.045 C 
ATOM     33  C   UNL     1      -8.930  17.002  66.435  0.00  0.00    +0.077 C 
ATOM     34  N   UNL     1      -7.656  17.678  66.713  0.00  0.00    -0.270 NA
ATOM     35  C   UNL     1      -7.630  18.228  68.069  0.00  0.00    +0.103 C 
ATOM     36  C   UNL     1      -6.385  17.802  68.834  0.00  0.00    +0.141 C 
ATOM     37  C   UNL     1      -6.327  16.295  69.081  0.00  0.00    +0.033 C 
ATOM     38  C   UNL     1      -7.534  15.861  68.079  0.00  0.00    +0.020 C 
ATOM     39  O   UNL     1      -6.481  18.416  70.084  0.00  0.00    -0.224 OA
ATOM     40  C   UNL     1      -6.745  16.531  66.810  0.00  0.00    +0.072 C 
ATOM     41  N   UNL     1      -9.668  12.365  66.110  0.00  0.00    -0.249 NA
ATOM     42  C   UNL     1      -6.970  14.373  67.731  0.00  0.00    +0.022 C 
BRANCH  36  43
ATOM     43  C   UNL     1      -5.120  18.286  68.169  0.00  0.00    +0.032 C 
ATOM     44  C   UNL     1      -5.096  19.795  68.320  0.00  0.00    +0.003 C 
ENDBRANCH  36  43
BRANCH  23  45
ATOM     45  C   UNL     1      -9.010  14.115  68.981  0.00  0.00    +0.325 C 
ATOM     46  O   UNL     1      -8.326  14.499  69.974  0.00  0.00    -0.249 OA
BRANCH  45  47
ATOM     47  O   UNL     1     -10.374  14.239  68.985  0.00  0.00    -0.444 OA
ATOM     48  C   UNL     1     -10.903  15.411  69.599  0.00  0.00    +0.256 C 
ENDBRANCH  45  47
ENDBRANCH  23  45
ENDBRANCH  18  23
BRANCH  17  49
ATOM     49  O   UNL     1      -5.853  12.356  66.875  0.00  0.00    -0.472 OA
ATOM     50  C   UNL     1      -4.578  11.910  66.500  0.00  0.00    +0.252 C 
ENDBRANCH  17  49
BRANCH  10  51
ATOM     51  C   UNL     1      -7.115   8.717  71.401  0.00  0.00    +0.350 C 
ATOM     52  O   UNL     1      -7.204   8.815  72.675  0.00  0.00    -0.247 OA
BRANCH  51  53
ATOM     53  O   UNL     1      -5.776   9.006  71.084  0.00  0.00    -0.443 OA
ATOM     54  C   UNL     1      -5.223  10.307  71.268  0.00  0.00    +0.256 C 
ENDBRANCH  51  53
ENDBRANCH  10  51
BRANCH   1  56
ATOM     55  C   UNL     1     -10.020   7.195  73.667  0.00  0.00    +0.001 C 
ATOM     56  C   UNL     1     -10.748   7.593  72.846  0.00  0.00    +0.009 C 
ENDBRANCH   1  56
BRANCH  21  57
ATOM     57  O   UNL     1      -8.919   5.656  70.916  0.00  0.00    -0.449 OA
BRANCH  57  58
ATOM     58  C   UNL     1      -8.871   4.434  71.534  0.00  0.00    +0.318 C 
ATOM     59  O   UNL     1      -7.890   3.699  71.241  0.00  0.00    -0.250 OA
ATOM     60  C   UNL     1     -10.086   3.794  72.106  0.00  0.00    +0.121 C 
ENDBRANCH  57  58
ENDBRANCH  21  57
TORSDOF 10
ENDMDL
MODEL 6
REMARK VINA RESULT:      -6.3      3.413      7.693
REMARK  Name = 
REMARK  10 active torsions:
REMARK  status: ('A' for Active; 'I' for Inactive)
REMARK    1  A    between atoms: C_2  and  C_3
REMARK    2  A    between atoms: C_13  and  C_14
REMARK    3  A    between atoms: C_14  and  C_15
REMARK    4  A    between atoms: C_15  and  O_17
REMARK    5  A    between atoms: C_24  and  C_26
REMARK    6  A    between atoms: C_40  and  O_41
REMARK    7  A    between atoms: C_49  and  C_51
REMARK    8  A    between atoms: C_51  and  O_53
REMARK    9  A    between atoms: C_55  and  O_56
REMARK   10  A    between atoms: O_56  and  C_57
REMARK                            x       y       z     vdW  Elec       q    Type
REMARK                         _______ _______ _______ _____ _____    ______ ____
ROOT
ATOM      1  C   UNL     1      -8.320   7.269  69.386  0.00  0.00    +0.072 C 
ATOM      2  C   UNL     1      -8.768   8.819  69.541  0.00  0.00    +0.070 C 
ATOM      3  N   UNL     1     -10.070   8.649  68.689  0.00  0.00    -0.269 NA
ATOM      4  C   UNL     1      -9.974   9.578  67.656  0.00  0.00    +0.073 C 
ATOM      5  C   UNL     1      -8.614   9.145  67.108  0.00  0.00    +0.024 C 
ATOM      6  C   UNL     1     -10.489   7.367  68.498  0.00  0.00    +0.099 C 
ATOM      7  C   UNL     1      -9.532   6.630  67.599  0.00  0.00    -0.013 C 
ATOM      8  C   UNL     1      -7.856   9.414  68.330  0.00  0.00    +0.055 C 
ATOM      9  C   UNL     1      -6.492   8.539  68.357  0.00  0.00    +0.127 C 
ATOM     10  C   UNL     1      -6.301   8.475  69.961  0.00  0.00    +0.268 C 
ATOM     11  O   UNL     1      -4.932   8.179  70.080  0.00  0.00    -0.209 OA
ATOM     12  N   UNL     1      -5.492   9.749  68.241  0.00  0.00    -0.250 N 
ATOM     13  C   UNL     1      -4.301   9.335  67.554  0.00  0.00    +0.307 C 
ATOM     14  O   UNL     1      -3.258  10.006  67.711  0.00  0.00    -0.265 OA
ATOM     15  C   UNL     1      -6.226  10.885  67.942  0.00  0.00    +0.053 A 
ATOM     16  C   UNL     1      -5.606  12.132  67.847  0.00  0.00    +0.051 A 
ATOM     17  C   UNL     1      -6.380  13.277  67.965  0.00  0.00    +0.137 A 
ATOM     18  C   UNL     1      -7.747  13.109  67.917  0.00  0.00    +0.026 A 
ATOM     19  C   UNL     1      -8.245  11.908  68.351  0.00  0.00    -0.003 A 
ATOM     20  C   UNL     1      -7.476  10.764  68.551  0.00  0.00    -0.006 A 
ATOM     21  C   UNL     1      -7.048   7.079  70.368  0.00  0.00    +0.213 C 
ATOM     22  C   UNL     1      -8.307   6.704  68.152  0.00  0.00    -0.025 C 
ENDROOT
BRANCH  18  23
ATOM     23  C   UNL     1      -8.587  14.243  67.409  0.00  0.00    +0.146 C 
ATOM     24  C   UNL     1      -9.256  13.818  66.175  0.00  0.00    +0.068 A 
ATOM     25  C   UNL     1     -10.228  14.681  65.675  0.00  0.00    -0.005 A 
ATOM     26  C   UNL     1     -11.123  13.877  64.972  0.00  0.00    +0.015 A 
ATOM     27  C   UNL     1     -10.649  12.574  65.062  0.00  0.00    +0.081 A 
ATOM     28  C   UNL     1     -11.169  11.550  64.276  0.00  0.00    +0.019 A 
ATOM     29  C   UNL     1     -12.270  11.801  63.492  0.00  0.00    +0.002 A 
ATOM     30  C   UNL     1     -12.710  13.097  63.369  0.00  0.00    +0.000 A 
ATOM     31  C   UNL     1     -12.205  14.112  64.157  0.00  0.00    +0.001 A 
ATOM     32  C   UNL     1      -9.694  15.985  65.247  0.00  0.00    +0.045 C 
ATOM     33  C   UNL     1     -10.410  17.174  65.879  0.00  0.00    +0.077 C 
ATOM     34  N   UNL     1      -9.459  18.260  66.156  0.00  0.00    -0.270 NA
ATOM     35  C   UNL     1      -9.664  18.820  67.492  0.00  0.00    +0.103 C 
ATOM     36  C   UNL     1      -8.372  18.875  68.293  0.00  0.00    +0.141 C 
ATOM     37  C   UNL     1      -7.801  17.490  68.595  0.00  0.00    +0.033 C 
ATOM     38  C   UNL     1      -8.753  16.636  67.588  0.00  0.00    +0.020 C 
ATOM     39  O   UNL     1      -8.712  19.451  69.520  0.00  0.00    -0.224 OA
ATOM     40  C   UNL     1      -8.208  17.504  66.310  0.00  0.00    +0.072 C 
ATOM     41  N   UNL     1      -9.480  12.564  65.705  0.00  0.00    -0.249 NA
ATOM     42  C   UNL     1      -7.696  15.428  67.303  0.00  0.00    +0.022 C 
BRANCH  36  43
ATOM     43  C   UNL     1      -7.335  19.751  67.635  0.00  0.00    +0.032 C 
ATOM     44  C   UNL     1      -6.240  19.977  68.660  0.00  0.00    +0.003 C 
ENDBRANCH  36  43
BRANCH  23  45
ATOM     45  C   UNL     1      -9.555  14.510  68.524  0.00  0.00    +0.325 C 
ATOM     46  O   UNL     1      -9.029  14.840  69.626  0.00  0.00    -0.249 OA
BRANCH  45  47
ATOM     47  O   UNL     1     -10.917  14.445  68.394  0.00  0.00    -0.444 OA
ATOM     48  C   UNL     1     -11.563  13.345  69.030  0.00  0.00    +0.256 C 
ENDBRANCH  45  47
ENDBRANCH  23  45
ENDBRANCH  18  23
BRANCH  17  49
ATOM     49  O   UNL     1      -5.784  14.494  67.623  0.00  0.00    -0.472 OA
ATOM     50  C   UNL     1      -4.478  14.826  68.007  0.00  0.00    +0.252 C 
ENDBRANCH  17  49
BRANCH  10  51
ATOM     51  C   UNL     1      -6.616   9.529  70.781  0.00  0.00    +0.350 C 
ATOM     52  O   UNL     1      -7.184   9.202  71.882  0.00  0.00    -0.247 OA
BRANCH  51  53
ATOM     53  O   UNL     1      -5.625  10.467  71.120  0.00  0.00    -0.443 OA
ATOM     54  C   UNL     1      -4.913  10.397  72.353  0.00  0.00    +0.256 C 
ENDBRANCH  51  53
ENDBRANCH  10  51
BRANCH   1  56
ATOM     55  C   UNL     1      -8.949   6.378  71.317  0.00  0.00    +0.001 C 
ATOM     56  C   UNL     1      -9.383   6.593  70.254  0.00  0.00    +0.009 C 
ENDBRANCH   1  56
BRANCH  21  57
ATOM     57  O   UNL     1      -6.245   6.276  69.318  0.00  0.00    -0.449 OA
BRANCH  57  58
ATOM     58  C   UNL     1      -5.813   5.074  69.813  0.00  0.00    +0.318 C 
ATOM     59  O   UNL     1      -4.565   4.930  69.918  0.00  0.00    -0.250 OA
ATOM     60  C   UNL     1      -6.662   3.854  69.766  0.00  0.00    +0.121 C 
ENDBRANCH  57  58
ENDBRANCH  21  57
TORSDOF 10
ENDMDL
MODEL 7
REMARK VINA RESULT:      -6.2      5.012      9.597
REMARK  Name = 
REMARK  10 active torsions:
REMARK  status: ('A' for Active; 'I' for Inactive)
REMARK    1  A    between atoms: C_2  and  C_3
REMARK    2  A    between atoms: C_13  and  C_14
REMARK    3  A    between atoms: C_14  and  C_15
REMARK    4  A    between atoms: C_15  and  O_17
REMARK    5  A    between atoms: C_24  and  C_26
REMARK    6  A    between atoms: C_40  and  O_41
REMARK    7  A    between atoms: C_49  and  C_51
REMARK    8  A    between atoms: C_51  and  O_53
REMARK    9  A    between atoms: C_55  and  O_56
REMARK   10  A    between atoms: O_56  and  C_57
REMARK                            x       y       z     vdW  Elec       q    Type
REMARK                         _______ _______ _______ _____ _____    ______ ____
ROOT
ATOM      1  C   UNL     1      -4.701   7.320  63.302  0.00  0.00    +0.072 C 
ATOM      2  C   UNL     1      -5.170   8.584  64.203  0.00  0.00    +0.070 C 
ATOM      3  N   UNL     1      -5.019   7.820  65.561  0.00  0.00    -0.269 NA
ATOM      4  C   UNL     1      -6.263   7.896  66.181  0.00  0.00    +0.073 C 
ATOM      5  C   UNL     1      -7.102   7.314  65.043  0.00  0.00    +0.024 C 
ATOM      6  C   UNL     1      -4.277   6.679  65.518  0.00  0.00    +0.099 C 
ATOM      7  C   UNL     1      -5.001   5.612  64.739  0.00  0.00    -0.013 C 
ATOM      8  C   UNL     1      -6.775   8.348  64.060  0.00  0.00    +0.055 C 
ATOM      9  C   UNL     1      -6.990   7.788  62.554  0.00  0.00    +0.127 C 
ATOM     10  C   UNL     1      -5.941   8.763  61.803  0.00  0.00    +0.268 C 
ATOM     11  O   UNL     1      -6.394   8.708  60.474  0.00  0.00    -0.209 OA
ATOM     12  N   UNL     1      -8.198   8.723  62.177  0.00  0.00    -0.250 N 
ATOM     13  C   UNL     1      -9.059   8.057  61.241  0.00  0.00    +0.307 C 
ATOM     14  O   UNL     1      -9.821   8.751  60.534  0.00  0.00    -0.265 OA
ATOM     15  C   UNL     1      -8.624   9.359  63.332  0.00  0.00    +0.053 A 
ATOM     16  C   UNL     1      -9.646  10.309  63.289  0.00  0.00    +0.051 A 
ATOM     17  C   UNL     1      -9.768  11.212  64.335  0.00  0.00    +0.137 A 
ATOM     18  C   UNL     1      -9.027  10.952  65.468  0.00  0.00    +0.026 A 
ATOM     19  C   UNL     1      -7.855  10.261  65.303  0.00  0.00    -0.003 A 
ATOM     20  C   UNL     1      -7.512   9.559  64.151  0.00  0.00    -0.006 A 
ATOM     21  C   UNL     1      -4.562   7.885  61.792  0.00  0.00    +0.213 C 
ATOM     22  C   UNL     1      -5.271   6.107  63.517  0.00  0.00    -0.025 C 
ENDROOT
BRANCH  18  23
ATOM     23  C   UNL     1      -9.543  11.448  66.786  0.00  0.00    +0.146 C 
ATOM     24  C   UNL     1     -10.347  10.389  67.405  0.00  0.00    +0.068 A 
ATOM     25  C   UNL     1     -10.741  10.608  68.724  0.00  0.00    -0.005 A 
ATOM     26  C   UNL     1     -10.888   9.345  69.291  0.00  0.00    +0.015 A 
ATOM     27  C   UNL     1     -10.593   8.421  68.296  0.00  0.00    +0.081 A 
ATOM     28  C   UNL     1     -10.870   7.066  68.450  0.00  0.00    +0.019 A 
ATOM     29  C   UNL     1     -11.316   6.608  69.667  0.00  0.00    +0.002 A 
ATOM     30  C   UNL     1     -11.648   7.525  70.635  0.00  0.00    +0.000 A 
ATOM     31  C   UNL     1     -11.363   8.868  70.489  0.00  0.00    +0.001 A 
ATOM     32  C   UNL     1     -11.652  11.754  68.882  0.00  0.00    +0.045 C 
ATOM     33  C   UNL     1     -11.183  12.768  69.921  0.00  0.00    +0.077 C 
ATOM     34  N   UNL     1     -11.519  14.134  69.496  0.00  0.00    -0.270 NA
ATOM     35  C   UNL     1     -10.392  15.045  69.693  0.00  0.00    +0.103 C 
ATOM     36  C   UNL     1     -10.073  15.839  68.435  0.00  0.00    +0.141 C 
ATOM     37  C   UNL     1      -9.593  14.957  67.283  0.00  0.00    +0.033 C 
ATOM     38  C   UNL     1      -9.986  13.516  67.930  0.00  0.00    +0.020 C 
ATOM     39  O   UNL     1      -9.008  16.677  68.776  0.00  0.00    -0.224 OA
ATOM     40  C   UNL     1     -11.555  13.973  68.037  0.00  0.00    +0.072 C 
ATOM     41  N   UNL     1     -10.363   9.056  67.145  0.00  0.00    -0.249 NA
ATOM     42  C   UNL     1     -10.238  12.735  66.523  0.00  0.00    +0.022 C 
BRANCH  36  43
ATOM     43  C   UNL     1     -11.231  16.704  68.002  0.00  0.00    +0.032 C 
ATOM     44  C   UNL     1     -10.638  18.006  67.495  0.00  0.00    +0.003 C 
ENDBRANCH  36  43
BRANCH  23  45
ATOM     45  C   UNL     1      -8.303  11.762  67.571  0.00  0.00    +0.325 C 
ATOM     46  O   UNL     1      -7.500  12.562  67.010  0.00  0.00    -0.249 OA
BRANCH  45  47
ATOM     47  O   UNL     1      -8.036  11.266  68.820  0.00  0.00    -0.444 OA
ATOM     48  C   UNL     1      -6.948  10.351  68.920  0.00  0.00    +0.256 C 
ENDBRANCH  45  47
ENDBRANCH  23  45
ENDBRANCH  18  23
BRANCH  17  49
ATOM     49  O   UNL     1     -10.934  11.981  64.388  0.00  0.00    -0.472 OA
ATOM     50  C   UNL     1     -12.001  11.791  63.500  0.00  0.00    +0.252 C 
ENDBRANCH  17  49
BRANCH  10  51
ATOM     51  C   UNL     1      -5.760  10.071  62.174  0.00  0.00    +0.350 C 
ATOM     52  O   UNL     1      -4.540  10.462  62.187  0.00  0.00    -0.247 OA
BRANCH  51  53
ATOM     53  O   UNL     1      -6.484  11.085  61.524  0.00  0.00    -0.443 OA
ATOM     54  C   UNL     1      -5.834  12.150  60.834  0.00  0.00    +0.256 C 
ENDBRANCH  51  53
ENDBRANCH  10  51
BRANCH   1  56
ATOM     55  C   UNL     1      -2.583   7.764  62.819  0.00  0.00    +0.001 C 
ATOM     56  C   UNL     1      -3.216   7.267  63.665  0.00  0.00    +0.009 C 
ENDBRANCH   1  56
BRANCH  21  57
ATOM     57  O   UNL     1      -5.278   6.662  61.173  0.00  0.00    -0.449 OA
BRANCH  57  58
ATOM     58  C   UNL     1      -4.513   6.050  60.215  0.00  0.00    +0.318 C 
ATOM     59  O   UNL     1      -4.272   4.826  60.393  0.00  0.00    -0.250 OA
ATOM     60  C   UNL     1      -3.618   6.822  59.312  0.00  0.00    +0.121 C 
ENDBRANCH  57  58
ENDBRANCH  21  57
TORSDOF 10
ENDMDL
MODEL 8
REMARK VINA RESULT:      -6.1      2.885      9.627
REMARK  Name = 
REMARK  10 active torsions:
REMARK  status: ('A' for Active; 'I' for Inactive)
REMARK    1  A    between atoms: C_2  and  C_3
REMARK    2  A    between atoms: C_13  and  C_14
REMARK    3  A    between atoms: C_14  and  C_15
REMARK    4  A    between atoms: C_15  and  O_17
REMARK    5  A    between atoms: C_24  and  C_26
REMARK    6  A    between atoms: C_40  and  O_41
REMARK    7  A    between atoms: C_49  and  C_51
REMARK    8  A    between atoms: C_51  and  O_53
REMARK    9  A    between atoms: C_55  and  O_56
REMARK   10  A    between atoms: O_56  and  C_57
REMARK                            x       y       z     vdW  Elec       q    Type
REMARK                         _______ _______ _______ _____ _____    ______ ____
ROOT
ATOM      1  C   UNL     1      -8.040  17.451  67.643  0.00  0.00    +0.072 C 
ATOM      2  C   UNL     1      -7.836  16.044  66.865  0.00  0.00    +0.070 C 
ATOM      3  N   UNL     1      -9.368  15.813  66.639  0.00  0.00    -0.269 NA
ATOM      4  C   UNL     1      -9.654  14.576  67.211  0.00  0.00    +0.073 C 
ATOM      5  C   UNL     1      -9.100  14.855  68.608  0.00  0.00    +0.024 C 
ATOM      6  C   UNL     1     -10.161  16.908  66.800  0.00  0.00    +0.099 C 
ATOM      7  C   UNL     1     -10.205  17.316  68.249  0.00  0.00    -0.013 C 
ATOM      8  C   UNL     1      -7.720  15.099  68.186  0.00  0.00    +0.055 C 
ATOM      9  C   UNL     1      -6.941  16.000  69.286  0.00  0.00    +0.127 C 
ATOM     10  C   UNL     1      -5.846  16.660  68.296  0.00  0.00    +0.268 C 
ATOM     11  O   UNL     1      -4.842  17.058  69.195  0.00  0.00    -0.209 OA
ATOM     12  N   UNL     1      -5.921  14.892  69.746  0.00  0.00    -0.250 N 
ATOM     13  C   UNL     1      -5.571  15.092  71.124  0.00  0.00    +0.307 C 
ATOM     14  O   UNL     1      -4.509  14.587  71.548  0.00  0.00    -0.265 OA
ATOM     15  C   UNL     1      -6.323  13.685  69.197  0.00  0.00    +0.053 A 
ATOM     16  C   UNL     1      -5.562  12.529  69.380  0.00  0.00    +0.051 A 
ATOM     17  C   UNL     1      -5.739  11.465  68.507  0.00  0.00    +0.137 A 
ATOM     18  C   UNL     1      -6.832  11.524  67.670  0.00  0.00    +0.026 A 
ATOM     19  C   UNL     1      -7.283  12.770  67.318  0.00  0.00    -0.003 A 
ATOM     20  C   UNL     1      -6.917  13.949  67.962  0.00  0.00    -0.006 A 
ATOM     21  C   UNL     1      -6.556  18.063  67.843  0.00  0.00    +0.213 C 
ATOM     22  C   UNL     1      -8.939  17.522  68.658  0.00  0.00    -0.025 C 
ENDROOT
BRANCH  18  23
ATOM     23  C   UNL     1      -7.438  10.236  67.198  0.00  0.00    +0.146 C 
ATOM     24  C   UNL     1      -8.045   9.553  68.345  0.00  0.00    +0.068 A 
ATOM     25  C   UNL     1      -8.824   8.436  68.054  0.00  0.00    -0.005 A 
ATOM     26  C   UNL     1      -9.761   8.347  69.081  0.00  0.00    +0.015 A 
ATOM     27  C   UNL     1      -9.501   9.397  69.953  0.00  0.00    +0.081 A 
ATOM     28  C   UNL     1     -10.094   9.469  71.210  0.00  0.00    +0.019 A 
ATOM     29  C   UNL     1     -11.066   8.555  71.544  0.00  0.00    +0.002 A 
ATOM     30  C   UNL     1     -11.291   7.494  70.702  0.00  0.00    +0.000 A 
ATOM     31  C   UNL     1     -10.713   7.427  69.449  0.00  0.00    +0.001 A 
ATOM     32  C   UNL     1      -8.061   7.325  67.461  0.00  0.00    +0.045 C 
ATOM     33  C   UNL     1      -8.643   6.816  66.147  0.00  0.00    +0.077 C 
ATOM     34  N   UNL     1      -7.569   6.421  65.226  0.00  0.00    -0.270 NA
ATOM     35  C   UNL     1      -7.811   6.929  63.875  0.00  0.00    +0.103 C 
ATOM     36  C   UNL     1      -6.606   7.675  63.321  0.00  0.00    +0.141 C 
ATOM     37  C   UNL     1      -6.283   8.946  64.105  0.00  0.00    +0.033 C 
ATOM     38  C   UNL     1      -7.255   8.671  65.382  0.00  0.00    +0.020 C 
ATOM     39  O   UNL     1      -6.968   8.073  62.032  0.00  0.00    -0.224 OA
ATOM     40  C   UNL     1      -6.468   7.270  65.700  0.00  0.00    +0.072 C 
ATOM     41  N   UNL     1      -8.413  10.057  69.552  0.00  0.00    -0.249 NA
ATOM     42  C   UNL     1      -6.372   9.493  66.476  0.00  0.00    +0.022 C 
BRANCH  36  43
ATOM     43  C   UNL     1      -5.391   6.787  63.214  0.00  0.00    +0.032 C 
ATOM     44  C   UNL     1      -4.257   7.658  62.708  0.00  0.00    +0.003 C 
ENDBRANCH  36  43
BRANCH  23  45
ATOM     45  C   UNL     1      -8.455  10.661  66.179  0.00  0.00    +0.325 C 
ATOM     46  O   UNL     1      -7.978  11.056  65.076  0.00  0.00    -0.249 OA
BRANCH  45  47
ATOM     47  O   UNL     1      -9.810  10.612  66.376  0.00  0.00    -0.444 OA
ATOM     48  C   UNL     1     -10.611  11.351  65.458  0.00  0.00    +0.256 C 
ENDBRANCH  45  47
ENDBRANCH  23  45
ENDBRANCH  18  23
BRANCH  17  49
ATOM     49  O   UNL     1      -5.154  10.244  68.857  0.00  0.00    -0.472 OA
ATOM     50  C   UNL     1      -4.698   9.972  70.153  0.00  0.00    +0.252 C 
ENDBRANCH  17  49
BRANCH  10  51
ATOM     51  C   UNL     1      -5.284  15.966  67.256  0.00  0.00    +0.350 C 
ATOM     52  O   UNL     1      -5.108  16.648  66.185  0.00  0.00    -0.247 OA
BRANCH  51  53
ATOM     53  O   UNL     1      -4.088  15.254  67.461  0.00  0.00    -0.443 OA
ATOM     54  C   UNL     1      -2.853  15.676  66.887  0.00  0.00    +0.256 C 
ENDBRANCH  51  53
ENDBRANCH  10  51
BRANCH   1  56
ATOM     55  C   UNL     1      -7.586  18.918  66.043  0.00  0.00    +0.001 C 
ATOM     56  C   UNL     1      -8.498  18.336  66.483  0.00  0.00    +0.009 C 
ENDBRANCH   1  56
BRANCH  21  57
ATOM     57  O   UNL     1      -6.823  18.467  69.311  0.00  0.00    -0.449 OA
BRANCH  57  58
ATOM     58  C   UNL     1      -6.316  19.707  69.602  0.00  0.00    +0.318 C 
ATOM     59  O   UNL     1      -6.584  20.164  70.745  0.00  0.00    -0.250 OA
ATOM     60  C   UNL     1      -5.914  20.662  68.536  0.00  0.00    +0.121 C 
ENDBRANCH  57  58
ENDBRANCH  21  57
TORSDOF 10
ENDMDL
MODEL 9
REMARK VINA RESULT:      -6.0      7.107     11.207
REMARK  Name = 
REMARK  10 active torsions:
REMARK  status: ('A' for Active; 'I' for Inactive)
REMARK    1  A    between atoms: C_2  and  C_3
REMARK    2  A    between atoms: C_13  and  C_14
REMARK    3  A    between atoms: C_14  and  C_15
REMARK    4  A    between atoms: C_15  and  O_17
REMARK    5  A    between atoms: C_24  and  C_26
REMARK    6  A    between atoms: C_40  and  O_41
REMARK    7  A    between atoms: C_49  and  C_51
REMARK    8  A    between atoms: C_51  and  O_53
REMARK    9  A    between atoms: C_55  and  O_56
REMARK   10  A    between atoms: O_56  and  C_57
REMARK                            x       y       z     vdW  Elec       q    Type
REMARK                         _______ _______ _______ _____ _____    ______ ____
ROOT
ATOM      1  C   UNL     1      -9.775   3.513  72.797  0.00  0.00    +0.072 C 
ATOM      2  C   UNL     1     -10.140   4.324  71.441  0.00  0.00    +0.070 C 
ATOM      3  N   UNL     1      -9.539   3.234  70.490  0.00  0.00    -0.269 NA
ATOM      4  C   UNL     1      -8.588   3.890  69.713  0.00  0.00    +0.073 C 
ATOM      5  C   UNL     1      -7.758   4.483  70.852  0.00  0.00    +0.024 C 
ATOM      6  C   UNL     1      -9.327   2.012  71.051  0.00  0.00    +0.099 C 
ATOM      7  C   UNL     1      -8.204   2.082  72.052  0.00  0.00    -0.013 C 
ATOM      8  C   UNL     1      -8.832   5.292  71.428  0.00  0.00    +0.055 C 
ATOM      9  C   UNL     1      -8.526   5.615  72.987  0.00  0.00    +0.127 C 
ATOM     10  C   UNL     1     -10.054   5.821  73.474  0.00  0.00    +0.268 C 
ATOM     11  O   UNL     1      -9.886   6.568  74.652  0.00  0.00    -0.209 OA
ATOM     12  N   UNL     1      -8.323   7.167  72.820  0.00  0.00    -0.250 N 
ATOM     13  C   UNL     1      -7.390   7.647  73.800  0.00  0.00    +0.307 C 
ATOM     14  O   UNL     1      -7.402   8.863  74.090  0.00  0.00    -0.265 OA
ATOM     15  C   UNL     1      -8.264   7.449  71.465  0.00  0.00    +0.053 A 
ATOM     16  C   UNL     1      -8.157   8.765  71.013  0.00  0.00    +0.051 A 
ATOM     17  C   UNL     1      -8.514   9.056  69.704  0.00  0.00    +0.137 A 
ATOM     18  C   UNL     1      -8.712   7.983  68.862  0.00  0.00    +0.026 A 
ATOM     19  C   UNL     1      -9.132   6.810  69.433  0.00  0.00    -0.003 A 
ATOM     20  C   UNL     1      -9.087   6.540  70.798  0.00  0.00    -0.006 A 
ATOM     21  C   UNL     1     -10.478   4.333  74.002  0.00  0.00    +0.213 C 
ATOM     22  C   UNL     1      -8.519   3.026  72.959  0.00  0.00    -0.025 C 
ENDROOT
BRANCH  18  23
ATOM     23  C   UNL     1      -8.469   8.174  67.394  0.00  0.00    +0.146 C 
ATOM     24  C   UNL     1      -7.157   7.613  67.058  0.00  0.00    +0.068 A 
ATOM     25  C   UNL     1      -6.854   7.529  65.700  0.00  0.00    -0.005 A 
ATOM     26  C   UNL     1      -5.965   6.464  65.575  0.00  0.00    +0.015 A 
ATOM     27  C   UNL     1      -5.756   5.962  66.853  0.00  0.00    +0.081 A 
ATOM     28  C   UNL     1      -4.741   5.049  67.125  0.00  0.00    +0.019 A 
ATOM     29  C   UNL     1      -4.017   4.524  66.081  0.00  0.00    +0.002 A 
ATOM     30  C   UNL     1      -4.193   5.051  64.825  0.00  0.00    +0.000 A 
ATOM     31  C   UNL     1      -5.207   5.948  64.551  0.00  0.00    +0.001 A 
ATOM     32  C   UNL     1      -6.755   8.840  65.038  0.00  0.00    +0.045 C 
ATOM     33  C   UNL     1      -7.634   8.966  63.798  0.00  0.00    +0.077 C 
ATOM     34  N   UNL     1      -8.177  10.326  63.687  0.00  0.00    -0.270 NA
ATOM     35  C   UNL     1      -9.603  10.306  63.359  0.00  0.00    +0.103 C 
ATOM     36  C   UNL     1     -10.420  11.169  64.310  0.00  0.00    +0.141 C 
ATOM     37  C   UNL     1     -10.399  10.650  65.748  0.00  0.00    +0.033 C 
ATOM     38  C   UNL     1      -9.201   9.562  65.572  0.00  0.00    +0.020 C 
ATOM     39  O   UNL     1     -11.740  11.077  63.864  0.00  0.00    -0.224 OA
ATOM     40  C   UNL     1      -8.173  10.746  65.095  0.00  0.00    +0.072 C 
ATOM     41  N   UNL     1      -6.401   6.717  67.745  0.00  0.00    -0.249 NA
ATOM     42  C   UNL     1      -8.661   9.620  67.108  0.00  0.00    +0.022 C 
BRANCH  36  43
ATOM     43  C   UNL     1     -10.006  12.619  64.257  0.00  0.00    +0.032 C 
ATOM     44  C   UNL     1     -11.243  13.438  64.573  0.00  0.00    +0.003 C 
ENDBRANCH  36  43
BRANCH  23  45
ATOM     45  C   UNL     1      -9.596   7.435  66.736  0.00  0.00    +0.325 C 
ATOM     46  O   UNL     1     -10.754   7.857  67.019  0.00  0.00    -0.249 OA
BRANCH  45  47
ATOM     47  O   UNL     1      -9.428   6.394  65.861  0.00  0.00    -0.444 OA
ATOM     48  C   UNL     1      -9.927   5.127  66.280  0.00  0.00    +0.256 C 
ENDBRANCH  45  47
ENDBRANCH  23  45
ENDBRANCH  18  23
BRANCH  17  49
ATOM     49  O   UNL     1      -8.166  10.316  69.208  0.00  0.00    -0.472 OA
ATOM     50  C   UNL     1      -7.014  10.997  69.625  0.00  0.00    +0.252 C 
ENDBRANCH  17  49
BRANCH  10  51
ATOM     51  C   UNL     1     -11.003   6.418  72.683  0.00  0.00    +0.350 C 
ATOM     52  O   UNL     1     -12.115   5.785  72.607  0.00  0.00    -0.247 OA
BRANCH  51  53
ATOM     53  O   UNL     1     -11.340   7.766  72.897  0.00  0.00    -0.443 OA
ATOM     54  C   UNL     1     -11.931   8.566  71.876  0.00  0.00    +0.256 C 
ENDBRANCH  51  53
ENDBRANCH  10  51
BRANCH   1  56
ATOM     55  C   UNL     1     -11.542   2.418  73.569  0.00  0.00    +0.001 C 
ATOM     56  C   UNL     1     -10.770   2.356  72.696  0.00  0.00    +0.009 C 
ENDBRANCH   1  56
BRANCH  21  57
ATOM     57  O   UNL     1      -9.233   4.238  74.913  0.00  0.00    -0.449 OA
BRANCH  57  58
ATOM     58  C   UNL     1      -9.525   3.668  76.124  0.00  0.00    +0.318 C 
ATOM     59  O   UNL     1     -10.298   4.321  76.875  0.00  0.00    -0.250 OA
ATOM     60  C   UNL     1      -8.650   2.635  76.738  0.00  0.00    +0.121 C 
ENDBRANCH  57  58
ENDBRANCH  21  57
TORSDOF 10
ENDMDL
