MODEL 1
REMARK VINA RESULT:      -6.3      0.000      0.000
REMARK  Name = 
REMARK  5 active torsions:
REMARK  status: ('A' for Active; 'I' for Inactive)
REMARK    1  A    between atoms: C_2  and  C_4
REMARK    2  A    between atoms: C_4  and  C_5
REMARK    3  A    between atoms: C_5  and  C_6
REMARK    4  A    between atoms: C_6  and  C_7
REMARK    5  A    between atoms: C_7  and  N_8
REMARK                            x       y       z     vdW  Elec       q    Type
REMARK                         _______ _______ _______ _____ _____    ______ ____
ROOT
ATOM      1  N   UNL     1     -11.457  14.848  68.394  0.00  0.00    -0.247 N 
ATOM      2  C   UNL     1     -11.599  14.422  67.143  0.00  0.00    +0.335 A 
ATOM      3  O   UNL     1     -12.013  13.235  66.976  0.00  0.00    -0.246 OA
ATOM      4  N   UNL     1     -10.990  15.108  66.146  0.00  0.00    -0.263 N 
ATOM      5  C   UNL     1     -11.220  14.696  64.765  0.00  0.00    +0.137 C 
ATOM      6  C   UNL     1     -10.482  16.343  66.315  0.00  0.00    +0.170 A 
ATOM      7  N   UNL     1     -10.118  17.358  65.508  0.00  0.00    -0.206 NA
ATOM      8  C   UNL     1      -9.617  18.346  66.287  0.00  0.00    +0.180 A 
ATOM      9  N   UNL     1     -10.005  18.128  67.552  0.00  0.00    -0.302 N 
ATOM     10  C   UNL     1      -9.722  18.878  68.760  0.00  0.00    +0.132 C 
ATOM     11  C   UNL     1     -10.477  16.865  67.582  0.00  0.00    +0.153 A 
ATOM     12  C   UNL     1     -11.171  16.161  68.558  0.00  0.00    +0.283 A 
ATOM     13  O   UNL     1     -11.372  16.690  69.692  0.00  0.00    -0.265 OA
ENDROOT
BRANCH   1  14
ATOM     14  C   UNL     1     -11.529  14.038  69.576  0.00  0.00    +0.114 C 
BRANCH  14  15
ATOM     15  C   UNL     1     -12.896  13.980  70.191  0.00  0.00    +0.025 C 
BRANCH  15  16
ATOM     16  C   UNL     1     -12.749  13.203  71.495  0.00  0.00    +0.010 C 
BRANCH  16  17
ATOM     17  C   UNL     1     -13.814  13.677  72.473  0.00  0.00    +0.065 C 
BRANCH  17  19
ATOM     18  C   UNL     1     -12.411  15.390  73.870  0.00  0.00    +0.072 C 
ATOM     19  C   UNL     1     -13.438  15.076  72.854  0.00  0.00    +0.151 C 
ATOM     20  O   UNL     1     -14.239  15.949  72.556  0.00  0.00    -0.296 OA
ENDBRANCH  17  19
ENDBRANCH  16  17
ENDBRANCH  15  16
ENDBRANCH  14  15
ENDBRANCH   1  14
TORSDOF 5
ENDMDL
MODEL 2
REMARK VINA RESULT:      -6.3      1.492      3.273
REMARK  Name = 
REMARK  5 active torsions:
REMARK  status: ('A' for Active; 'I' for Inactive)
REMARK    1  A    between atoms: C_2  and  C_4
REMARK    2  A    between atoms: C_4  and  C_5
REMARK    3  A    between atoms: C_5  and  C_6
REMARK    4  A    between atoms: C_6  and  C_7
REMARK    5  A    between atoms: C_7  and  N_8
REMARK                            x       y       z     vdW  Elec       q    Type
REMARK                         _______ _______ _______ _____ _____    ______ ____
ROOT
ATOM      1  N   UNL     1     -10.115  16.184  68.381  0.00  0.00    -0.247 N 
ATOM      2  C   UNL     1      -9.931  17.420  67.927  0.00  0.00    +0.335 A 
ATOM      3  O   UNL     1      -9.601  18.308  68.770  0.00  0.00    -0.246 OA
ATOM      4  N   UNL     1     -10.422  17.746  66.707  0.00  0.00    -0.263 N 
ATOM      5  C   UNL     1     -10.141  19.072  66.167  0.00  0.00    +0.137 C 
ATOM      6  C   UNL     1     -10.842  16.826  65.819  0.00  0.00    +0.170 A 
ATOM      7  N   UNL     1     -11.075  16.798  64.493  0.00  0.00    -0.206 NA
ATOM      8  C   UNL     1     -11.545  15.565  64.182  0.00  0.00    +0.180 A 
ATOM      9  N   UNL     1     -11.253  14.733  65.192  0.00  0.00    -0.302 N 
ATOM     10  C   UNL     1     -11.550  13.324  65.358  0.00  0.00    +0.132 C 
ATOM     11  C   UNL     1     -10.884  15.518  66.225  0.00  0.00    +0.153 A 
ATOM     12  C   UNL     1     -10.308  15.219  67.453  0.00  0.00    +0.283 A 
ATOM     13  O   UNL     1     -10.135  14.009  67.789  0.00  0.00    -0.265 OA
ENDROOT
BRANCH   1  14
ATOM     14  C   UNL     1     -10.178  15.793  69.760  0.00  0.00    +0.114 C 
BRANCH  14  15
ATOM     15  C   UNL     1     -11.546  15.912  70.365  0.00  0.00    +0.025 C 
BRANCH  15  16
ATOM     16  C   UNL     1     -11.464  15.272  71.746  0.00  0.00    +0.010 C 
BRANCH  16  17
ATOM     17  C   UNL     1     -12.509  15.914  72.648  0.00  0.00    +0.065 C 
BRANCH  17  19
ATOM     18  C   UNL     1     -13.839  13.680  72.332  0.00  0.00    +0.072 C 
ATOM     19  C   UNL     1     -13.780  15.156  72.421  0.00  0.00    +0.151 C 
ATOM     20  O   UNL     1     -14.717  15.797  71.969  0.00  0.00    -0.296 OA
ENDBRANCH  17  19
ENDBRANCH  16  17
ENDBRANCH  15  16
ENDBRANCH  14  15
ENDBRANCH   1  14
TORSDOF 5
ENDMDL
MODEL 3
REMARK VINA RESULT:      -6.0      2.340      6.413
REMARK  Name = 
REMARK  5 active torsions:
REMARK  status: ('A' for Active; 'I' for Inactive)
REMARK    1  A    between atoms: C_2  and  C_4
REMARK    2  A    between atoms: C_4  and  C_5
REMARK    3  A    between atoms: C_5  and  C_6
REMARK    4  A    between atoms: C_6  and  C_7
REMARK    5  A    between atoms: C_7  and  N_8
REMARK                            x       y       z     vdW  Elec       q    Type
REMARK                         _______ _______ _______ _____ _____    ______ ____
ROOT
ATOM      1  N   UNL     1     -12.122  14.820  69.341  0.00  0.00    -0.247 N 
ATOM      2  C   UNL     1     -12.748  14.778  70.513  0.00  0.00    +0.335 A 
ATOM      3  O   UNL     1     -13.044  15.886  71.055  0.00  0.00    -0.246 OA
ATOM      4  N   UNL     1     -12.730  13.624  71.221  0.00  0.00    -0.263 N 
ATOM      5  C   UNL     1     -13.493  13.548  72.462  0.00  0.00    +0.137 C 
ATOM      6  C   UNL     1     -12.356  12.446  70.687  0.00  0.00    +0.170 A 
ATOM      7  N   UNL     1     -12.513  11.147  71.005  0.00  0.00    -0.206 NA
ATOM      8  C   UNL     1     -11.845  10.412  70.083  0.00  0.00    +0.180 A 
ATOM      9  N   UNL     1     -11.606  11.187  69.015  0.00  0.00    -0.302 N 
ATOM     10  C   UNL     1     -10.914  10.886  67.777  0.00  0.00    +0.132 C 
ATOM     11  C   UNL     1     -11.857  12.451  69.411  0.00  0.00    +0.153 A 
ATOM     12  C   UNL     1     -11.957  13.640  68.699  0.00  0.00    +0.283 A 
ATOM     13  O   UNL     1     -11.701  13.653  67.457  0.00  0.00    -0.265 OA
ENDROOT
BRANCH   1  14
ATOM     14  C   UNL     1     -11.566  15.989  68.721  0.00  0.00    +0.114 C 
BRANCH  14  15
ATOM     15  C   UNL     1     -10.142  16.263  69.108  0.00  0.00    +0.025 C 
BRANCH  15  16
ATOM     16  C   UNL     1      -9.842  17.690  68.663  0.00  0.00    +0.010 C 
BRANCH  16  17
ATOM     17  C   UNL     1      -9.099  17.644  67.335  0.00  0.00    +0.065 C 
BRANCH  17  19
ATOM     18  C   UNL     1     -10.536  19.705  66.596  0.00  0.00    +0.072 C 
ATOM     19  C   UNL     1      -9.964  18.364  66.347  0.00  0.00    +0.151 C 
ATOM     20  O   UNL     1     -10.467  17.677  65.471  0.00  0.00    -0.296 OA
ENDBRANCH  17  19
ENDBRANCH  16  17
ENDBRANCH  15  16
ENDBRANCH  14  15
ENDBRANCH   1  14
TORSDOF 5
ENDMDL
MODEL 4
REMARK VINA RESULT:      -6.0      2.409      6.651
REMARK  Name = 
REMARK  5 active torsions:
REMARK  status: ('A' for Active; 'I' for Inactive)
REMARK    1  A    between atoms: C_2  and  C_4
REMARK    2  A    between atoms: C_4  and  C_5
REMARK    3  A    between atoms: C_5  and  C_6
REMARK    4  A    between atoms: C_6  and  C_7
REMARK    5  A    between atoms: C_7  and  N_8
REMARK                            x       y       z     vdW  Elec       q    Type
REMARK                         _______ _______ _______ _____ _____    ______ ____
ROOT
ATOM      1  N   UNL     1     -11.197  14.378  68.476  0.00  0.00    -0.247 N 
ATOM      2  C   UNL     1     -11.896  15.171  69.282  0.00  0.00    +0.335 A 
ATOM      3  O   UNL     1     -11.800  16.421  69.095  0.00  0.00    -0.246 OA
ATOM      4  N   UNL     1     -12.379  14.661  70.440  0.00  0.00    -0.263 N 
ATOM      5  C   UNL     1     -13.223  15.503  71.281  0.00  0.00    +0.137 C 
ATOM      6  C   UNL     1     -12.429  13.340  70.692  0.00  0.00    +0.170 A 
ATOM      7  N   UNL     1     -13.093  12.544  71.552  0.00  0.00    -0.206 NA
ATOM      8  C   UNL     1     -12.670  11.273  71.348  0.00  0.00    +0.180 A 
ATOM      9  N   UNL     1     -12.061  11.214  70.156  0.00  0.00    -0.302 N 
ATOM     10  C   UNL     1     -11.424  10.098  69.484  0.00  0.00    +0.132 C 
ATOM     11  C   UNL     1     -11.851  12.493  69.783  0.00  0.00    +0.153 A 
ATOM     12  C   UNL     1     -11.431  13.049  68.581  0.00  0.00    +0.283 A 
ATOM     13  O   UNL     1     -11.077  12.292  67.627  0.00  0.00    -0.265 OA
ENDROOT
BRANCH   1  14
ATOM     14  C   UNL     1     -10.187  14.796  67.546  0.00  0.00    +0.114 C 
BRANCH  14  15
ATOM     15  C   UNL     1     -10.720  15.570  66.377  0.00  0.00    +0.025 C 
BRANCH  15  16
ATOM     16  C   UNL     1     -10.591  14.658  65.162  0.00  0.00    +0.010 C 
BRANCH  16  17
ATOM     17  C   UNL     1     -11.971  14.452  64.553  0.00  0.00    +0.065 C 
BRANCH  17  19
ATOM     18  C   UNL     1     -11.284  12.151  63.509  0.00  0.00    +0.072 C 
ATOM     19  C   UNL     1     -12.140  12.973  64.391  0.00  0.00    +0.151 C 
ATOM     20  O   UNL     1     -13.217  12.513  64.740  0.00  0.00    -0.296 OA
ENDBRANCH  17  19
ENDBRANCH  16  17
ENDBRANCH  15  16
ENDBRANCH  14  15
ENDBRANCH   1  14
TORSDOF 5
ENDMDL
MODEL 5
REMARK VINA RESULT:      -6.0      2.976      4.511
REMARK  Name = 
REMARK  5 active torsions:
REMARK  status: ('A' for Active; 'I' for Inactive)
REMARK    1  A    between atoms: C_2  and  C_4
REMARK    2  A    between atoms: C_4  and  C_5
REMARK    3  A    between atoms: C_5  and  C_6
REMARK    4  A    between atoms: C_6  and  C_7
REMARK    5  A    between atoms: C_7  and  N_8
REMARK                            x       y       z     vdW  Elec       q    Type
REMARK                         _______ _______ _______ _____ _____    ______ ____
ROOT
ATOM      1  N   UNL     1     -11.939  13.139  68.642  0.00  0.00    -0.247 N 
ATOM      2  C   UNL     1     -11.787  11.985  69.284  0.00  0.00    +0.335 A 
ATOM      3  O   UNL     1     -12.074  11.964  70.519  0.00  0.00    -0.246 OA
ATOM      4  N   UNL     1     -11.034  11.015  68.714  0.00  0.00    -0.263 N 
ATOM      5  C   UNL     1     -10.942   9.716  69.372  0.00  0.00    +0.137 C 
ATOM      6  C   UNL     1     -10.659  11.047  67.421  0.00  0.00    +0.170 A 
ATOM      7  N   UNL     1     -10.207  10.151  66.523  0.00  0.00    -0.206 NA
ATOM      8  C   UNL     1      -9.948  10.816  65.371  0.00  0.00    +0.180 A 
ATOM      9  N   UNL     1     -10.575  12.000  65.415  0.00  0.00    -0.302 N 
ATOM     10  C   UNL     1     -10.603  13.080  64.447  0.00  0.00    +0.132 C 
ATOM     11  C   UNL     1     -10.954  12.172  66.697  0.00  0.00    +0.153 A 
ATOM     12  C   UNL     1     -11.785  13.109  67.298  0.00  0.00    +0.283 A 
ATOM     13  O   UNL     1     -12.255  14.066  66.611  0.00  0.00    -0.265 OA
ENDROOT
BRANCH   1  14
ATOM     14  C   UNL     1     -12.199  14.414  69.246  0.00  0.00    +0.114 C 
BRANCH  14  15
ATOM     15  C   UNL     1     -10.997  15.040  69.889  0.00  0.00    +0.025 C 
BRANCH  15  16
ATOM     16  C   UNL     1     -11.461  15.582  71.236  0.00  0.00    +0.010 C 
BRANCH  16  17
ATOM     17  C   UNL     1     -12.971  15.411  71.340  0.00  0.00    +0.065 C 
BRANCH  17  19
ATOM     18  C   UNL     1     -12.478  15.257  73.908  0.00  0.00    +0.072 C 
ATOM     19  C   UNL     1     -13.234  14.851  72.703  0.00  0.00    +0.151 C 
ATOM     20  O   UNL     1     -13.857  13.800  72.742  0.00  0.00    -0.296 OA
ENDBRANCH  17  19
ENDBRANCH  16  17
ENDBRANCH  15  16
ENDBRANCH  14  15
ENDBRANCH   1  14
TORSDOF 5
ENDMDL
MODEL 6
REMARK VINA RESULT:      -6.0      2.721      6.146
REMARK  Name = 
REMARK  5 active torsions:
REMARK  status: ('A' for Active; 'I' for Inactive)
REMARK    1  A    between atoms: C_2  and  C_4
REMARK    2  A    between atoms: C_4  and  C_5
REMARK    3  A    between atoms: C_5  and  C_6
REMARK    4  A    between atoms: C_6  and  C_7
REMARK    5  A    between atoms: C_7  and  N_8
REMARK                            x       y       z     vdW  Elec       q    Type
REMARK                         _______ _______ _______ _____ _____    ______ ____
ROOT
ATOM      1  N   UNL     1     -11.140  12.727  68.378  0.00  0.00    -0.247 N 
ATOM      2  C   UNL     1     -11.083  11.473  68.814  0.00  0.00    +0.335 A 
ATOM      3  O   UNL     1     -10.580  10.608  68.034  0.00  0.00    -0.246 OA
ATOM      4  N   UNL     1     -11.846  11.114  69.874  0.00  0.00    -0.263 N 
ATOM      5  C   UNL     1     -11.715   9.764  70.411  0.00  0.00    +0.137 C 
ATOM      6  C   UNL     1     -12.447  12.011  70.678  0.00  0.00    +0.170 A 
ATOM      7  N   UNL     1     -12.979  11.997  71.914  0.00  0.00    -0.206 NA
ATOM      8  C   UNL     1     -13.491  13.228  72.158  0.00  0.00    +0.180 A 
ATOM      9  N   UNL     1     -12.962  14.089  71.277  0.00  0.00    -0.302 N 
ATOM     10  C   UNL     1     -13.194  15.510  71.103  0.00  0.00    +0.132 C 
ATOM     11  C   UNL     1     -12.376  13.334  70.326  0.00  0.00    +0.153 A 
ATOM     12  C   UNL     1     -11.528  13.663  69.276  0.00  0.00    +0.283 A 
ATOM     13  O   UNL     1     -11.267  14.880  69.036  0.00  0.00    -0.265 OA
ENDROOT
BRANCH   1  14
ATOM     14  C   UNL     1     -10.879  13.169  67.039  0.00  0.00    +0.114 C 
BRANCH  14  15
ATOM     15  C   UNL     1     -12.080  13.132  66.140  0.00  0.00    +0.025 C 
BRANCH  15  16
ATOM     16  C   UNL     1     -11.885  14.244  65.115  0.00  0.00    +0.010 C 
BRANCH  16  17
ATOM     17  C   UNL     1     -10.475  14.800  65.256  0.00  0.00    +0.065 C 
BRANCH  17  19
ATOM     18  C   UNL     1     -10.266  17.204  66.275  0.00  0.00    +0.072 C 
ATOM     19  C   UNL     1     -10.603  16.289  65.162  0.00  0.00    +0.151 C 
ATOM     20  O   UNL     1     -11.315  16.714  64.264  0.00  0.00    -0.296 OA
ENDBRANCH  17  19
ENDBRANCH  16  17
ENDBRANCH  15  16
ENDBRANCH  14  15
ENDBRANCH   1  14
TORSDOF 5
ENDMDL
MODEL 7
REMARK VINA RESULT:      -5.9      2.399      6.284
REMARK  Name = 
REMARK  5 active torsions:
REMARK  status: ('A' for Active; 'I' for Inactive)
REMARK    1  A    between atoms: C_2  and  C_4
REMARK    2  A    between atoms: C_4  and  C_5
REMARK    3  A    between atoms: C_5  and  C_6
REMARK    4  A    between atoms: C_6  and  C_7
REMARK    5  A    between atoms: C_7  and  N_8
REMARK                            x       y       z     vdW  Elec       q    Type
REMARK                         _______ _______ _______ _____ _____    ______ ____
ROOT
ATOM      1  N   UNL     1     -10.570  16.343  67.171  0.00  0.00    -0.247 N 
ATOM      2  C   UNL     1     -11.155  16.045  68.327  0.00  0.00    +0.335 A 
ATOM      3  O   UNL     1     -11.122  16.925  69.240  0.00  0.00    -0.246 OA
ATOM      4  N   UNL     1     -11.441  14.750  68.600  0.00  0.00    -0.263 N 
ATOM      5  C   UNL     1     -12.166  14.431  69.825  0.00  0.00    +0.137 C 
ATOM      6  C   UNL     1     -11.418  13.784  67.662  0.00  0.00    +0.170 A 
ATOM      7  N   UNL     1     -11.920  12.540  67.543  0.00  0.00    -0.206 NA
ATOM      8  C   UNL     1     -11.501  12.038  66.355  0.00  0.00    +0.180 A 
ATOM      9  N   UNL     1     -11.083  13.055  65.589  0.00  0.00    -0.302 N 
ATOM     10  C   UNL     1     -10.529  13.050  64.249  0.00  0.00    +0.132 C 
ATOM     11  C   UNL     1     -10.966  14.117  66.412  0.00  0.00    +0.153 A 
ATOM     12  C   UNL     1     -10.751  15.465  66.157  0.00  0.00    +0.283 A 
ATOM     13  O   UNL     1     -10.530  15.854  64.970  0.00  0.00    -0.265 OA
ENDROOT
BRANCH   1  14
ATOM     14  C   UNL     1      -9.727  17.476  66.918  0.00  0.00    +0.114 C 
BRANCH  14  15
ATOM     15  C   UNL     1     -10.480  18.740  66.622  0.00  0.00    +0.025 C 
BRANCH  15  16
ATOM     16  C   UNL     1      -9.589  19.889  67.081  0.00  0.00    +0.010 C 
BRANCH  16  17
ATOM     17  C   UNL     1      -8.204  19.708  66.476  0.00  0.00    +0.065 C 
BRANCH  17  19
ATOM     18  C   UNL     1      -7.041  19.676  68.822  0.00  0.00    +0.072 C 
ATOM     19  C   UNL     1      -7.235  20.259  67.477  0.00  0.00    +0.151 C 
ATOM     20  O   UNL     1      -6.855  21.404  67.285  0.00  0.00    -0.296 OA
ENDBRANCH  17  19
ENDBRANCH  16  17
ENDBRANCH  15  16
ENDBRANCH  14  15
ENDBRANCH   1  14
TORSDOF 5
ENDMDL
MODEL 8
REMARK VINA RESULT:      -5.8      2.573      5.420
REMARK  Name = 
REMARK  5 active torsions:
REMARK  status: ('A' for Active; 'I' for Inactive)
REMARK    1  A    between atoms: C_2  and  C_4
REMARK    2  A    between atoms: C_4  and  C_5
REMARK    3  A    between atoms: C_5  and  C_6
REMARK    4  A    between atoms: C_6  and  C_7
REMARK    5  A    between atoms: C_7  and  N_8
REMARK                            x       y       z     vdW  Elec       q    Type
REMARK                         _______ _______ _______ _____ _____    ______ ____
ROOT
ATOM      1  N   UNL     1     -10.063  15.417  66.898  0.00  0.00    -0.247 N 
ATOM      2  C   UNL     1     -10.594  15.256  68.106  0.00  0.00    +0.335 A 
ATOM      3  O   UNL     1     -11.125  14.133  68.363  0.00  0.00    -0.246 OA
ATOM      4  N   UNL     1     -10.853  16.353  68.856  0.00  0.00    -0.263 N 
ATOM      5  C   UNL     1     -11.349  16.174  70.217  0.00  0.00    +0.137 C 
ATOM      6  C   UNL     1     -10.355  17.569  68.567  0.00  0.00    +0.170 A 
ATOM      7  N   UNL     1     -10.175  18.724  69.235  0.00  0.00    -0.206 NA
ATOM      8  C   UNL     1      -9.662  19.629  68.366  0.00  0.00    +0.180 A 
ATOM      9  N   UNL     1      -9.176  18.969  67.305  0.00  0.00    -0.302 N 
ATOM     10  C   UNL     1      -8.545  19.472  66.100  0.00  0.00    +0.132 C 
ATOM     11  C   UNL     1      -9.661  17.714  67.394  0.00  0.00    +0.153 A 
ATOM     12  C   UNL     1      -9.360  16.554  66.692  0.00  0.00    +0.283 A 
ATOM     13  O   UNL     1      -8.553  16.602  65.714  0.00  0.00    -0.265 OA
ENDROOT
BRANCH   1  14
ATOM     14  C   UNL     1     -10.209  14.523  65.785  0.00  0.00    +0.114 C 
BRANCH  14  15
ATOM     15  C   UNL     1     -11.324  14.891  64.852  0.00  0.00    +0.025 C 
BRANCH  15  16
ATOM     16  C   UNL     1     -12.489  13.966  65.186  0.00  0.00    +0.010 C 
BRANCH  16  17
ATOM     17  C   UNL     1     -11.956  12.551  65.367  0.00  0.00    +0.065 C 
BRANCH  17  19
ATOM     18  C   UNL     1     -10.714  11.527  63.302  0.00  0.00    +0.072 C 
ATOM     19  C   UNL     1     -11.951  11.929  64.005  0.00  0.00    +0.151 C 
ATOM     20  O   UNL     1     -12.968  12.072  63.344  0.00  0.00    -0.296 OA
ENDBRANCH  17  19
ENDBRANCH  16  17
ENDBRANCH  15  16
ENDBRANCH  14  15
ENDBRANCH   1  14
TORSDOF 5
ENDMDL
MODEL 9
REMARK VINA RESULT:      -5.8      2.914      4.425
REMARK  Name = 
REMARK  5 active torsions:
REMARK  status: ('A' for Active; 'I' for Inactive)
REMARK    1  A    between atoms: C_2  and  C_4
REMARK    2  A    between atoms: C_4  and  C_5
REMARK    3  A    between atoms: C_5  and  C_6
REMARK    4  A    between atoms: C_6  and  C_7
REMARK    5  A    between atoms: C_7  and  N_8
REMARK                            x       y       z     vdW  Elec       q    Type
REMARK                         _______ _______ _______ _____ _____    ______ ____
ROOT
ATOM      1  N   UNL     1     -11.275  13.626  66.534  0.00  0.00    -0.247 N 
ATOM      2  C   UNL     1     -12.042  13.378  65.477  0.00  0.00    +0.335 A 
ATOM      3  O   UNL     1     -13.132  14.019  65.386  0.00  0.00    -0.246 OA
ATOM      4  N   UNL     1     -11.818  12.252  64.758  0.00  0.00    -0.263 N 
ATOM      5  C   UNL     1     -12.597  12.025  63.546  0.00  0.00    +0.137 C 
ATOM      6  C   UNL     1     -10.699  11.516  64.885  0.00  0.00    +0.170 A 
ATOM      7  N   UNL     1     -10.067  10.582  64.148  0.00  0.00    -0.206 NA
ATOM      8  C   UNL     1      -8.984  10.166  64.849  0.00  0.00    +0.180 A 
ATOM      9  N   UNL     1      -8.725  11.069  65.805  0.00  0.00    -0.302 N 
ATOM     10  C   UNL     1      -7.693  11.083  66.824  0.00  0.00    +0.132 C 
ATOM     11  C   UNL     1      -9.814  11.861  65.873  0.00  0.00    +0.153 A 
ATOM     12  C   UNL     1     -10.047  13.058  66.538  0.00  0.00    +0.283 A 
ATOM     13  O   UNL     1      -9.162  13.529  67.315  0.00  0.00    -0.265 OA
ENDROOT
BRANCH   1  14
ATOM     14  C   UNL     1     -11.648  14.395  67.687  0.00  0.00    +0.114 C 
BRANCH  14  15
ATOM     15  C   UNL     1     -12.089  13.564  68.856  0.00  0.00    +0.025 C 
BRANCH  15  16
ATOM     16  C   UNL     1     -11.731  14.357  70.107  0.00  0.00    +0.010 C 
BRANCH  16  17
ATOM     17  C   UNL     1     -12.834  15.370  70.380  0.00  0.00    +0.065 C 
BRANCH  17  19
ATOM     18  C   UNL     1     -13.527  13.631  72.211  0.00  0.00    +0.072 C 
ATOM     19  C   UNL     1     -13.399  15.021  71.722  0.00  0.00    +0.151 C 
ATOM     20  O   UNL     1     -14.067  15.887  72.268  0.00  0.00    -0.296 OA
ENDBRANCH  17  19
ENDBRANCH  16  17
ENDBRANCH  15  16
ENDBRANCH  14  15
ENDBRANCH   1  14
TORSDOF 5
ENDMDL
