MODEL 1
REMARK VINA RESULT:      -6.8      0.000      0.000
REMARK  Name = 
REMARK  8 active torsions:
REMARK  status: ('A' for Active; 'I' for Inactive)
REMARK    1  A    between atoms: O_2  and  C_3
REMARK    2  A    between atoms: C_3  and  C_5
REMARK    3  A    between atoms: C_11  and  C_12
REMARK    4  A    between atoms: C_12  and  O_14
REMARK    5  A    between atoms: O_14  and  C_15
REMARK    6  A    between atoms: C_15  and  C_16
REMARK    7  A    between atoms: C_19  and  C_20
REMARK    8  A    between atoms: C_25  and  N_26
REMARK                            x       y       z     vdW  Elec       q    Type
REMARK                         _______ _______ _______ _____ _____    ______ ____
ROOT
ATOM      1  C   UNL     1     -10.207  13.987  66.414  0.00  0.00    +0.073 C 
ATOM      2  C   UNL     1     -10.808  15.238  67.272  0.00  0.00    +0.087 C 
ATOM      3  C   UNL     1     -10.665  14.560  68.764  0.00  0.00    +0.073 C 
ATOM      4  C   UNL     1     -11.455  13.477  68.715  0.00  0.00    +0.051 C 
ATOM      5  C   UNL     1     -12.329  13.101  69.873  0.00  0.00    +0.049 C 
ATOM      6  N   UNL     1     -10.818  12.445  67.996  0.00  0.00    -0.221 NA
ATOM      7  C   UNL     1      -9.895  12.899  66.996  0.00  0.00    +0.051 C 
ATOM      8  C   UNL     1      -9.131  11.920  66.157  0.00  0.00    +0.049 C 
ENDROOT
BRANCH   2   9
ATOM      9  C   UNL     1      -9.343  15.958  67.386  0.00  0.00    +0.055 A 
ATOM     10  C   UNL     1      -9.213  17.060  66.571  0.00  0.00    +0.287 A 
ATOM     11  C   UNL     1      -7.925  17.411  66.191  0.00  0.00    +0.075 A 
ATOM     12  C   UNL     1      -6.822  16.718  66.680  0.00  0.00    +0.006 A 
ATOM     13  C   UNL     1      -7.031  15.731  67.631  0.00  0.00    +0.000 A 
ATOM     14  C   UNL     1      -8.286  15.135  67.590  0.00  0.00    +0.002 A 
BRANCH  10  15
ATOM     15  N   UNL     1     -10.265  18.028  66.678  0.00  0.00    +0.081 N 
ATOM     16  O   UNL     1     -10.644  18.587  67.864  0.00  0.00    -0.576 OA
ATOM     17  O   UNL     1     -10.662  18.569  65.629  0.00  0.00    +0.041 OA
ENDBRANCH  10  15
ENDBRANCH   2   9
BRANCH   1  18
ATOM     18  C   UNL     1     -10.376  14.212  64.977  0.00  0.00    +0.339 C 
ATOM     19  O   UNL     1     -10.490  15.427  64.627  0.00  0.00    -0.245 OA
BRANCH  18  21
ATOM     20  C   UNL     1     -12.397  12.902  64.636  0.00  0.00    +0.256 C 
ATOM     21  O   UNL     1     -11.179  13.319  64.283  0.00  0.00    -0.442 OA
ENDBRANCH  18  21
ENDBRANCH   1  18
BRANCH   3  22
ATOM     22  C   UNL     1     -11.154  15.572  69.716  0.00  0.00    +0.339 C 
ATOM     23  O   UNL     1     -12.198  16.188  69.344  0.00  0.00    -0.245 OA
BRANCH  22  24
ATOM     24  O   UNL     1     -10.952  15.528  71.081  0.00  0.00    -0.446 OA
BRANCH  24  25
ATOM     25  C   UNL     1     -11.776  16.139  72.036  0.00  0.00    +0.209 C 
BRANCH  25  26
ATOM     26  C   UNL     1     -12.696  15.236  72.776  0.00  0.00    +0.044 C 
ATOM     27  C   UNL     1     -12.535  15.550  74.261  0.00  0.00    +0.004 C 
ATOM     28  C   UNL     1     -14.140  15.359  72.423  0.00  0.00    +0.004 C 
ENDBRANCH  25  26
ENDBRANCH  24  25
ENDBRANCH  22  24
ENDBRANCH   3  22
TORSDOF 8
ENDMDL
MODEL 2
REMARK VINA RESULT:      -6.5      2.705      4.132
REMARK  Name = 
REMARK  8 active torsions:
REMARK  status: ('A' for Active; 'I' for Inactive)
REMARK    1  A    between atoms: O_2  and  C_3
REMARK    2  A    between atoms: C_3  and  C_5
REMARK    3  A    between atoms: C_11  and  C_12
REMARK    4  A    between atoms: C_12  and  O_14
REMARK    5  A    between atoms: O_14  and  C_15
REMARK    6  A    between atoms: C_15  and  C_16
REMARK    7  A    between atoms: C_19  and  C_20
REMARK    8  A    between atoms: C_25  and  N_26
REMARK                            x       y       z     vdW  Elec       q    Type
REMARK                         _______ _______ _______ _____ _____    ______ ____
ROOT
ATOM      1  C   UNL     1     -10.874  12.090  65.790  0.00  0.00    +0.073 C 
ATOM      2  C   UNL     1     -11.017  11.918  67.406  0.00  0.00    +0.087 C 
ATOM      3  C   UNL     1      -9.996  10.639  67.574  0.00  0.00    +0.073 C 
ATOM      4  C   UNL     1     -10.562   9.662  66.851  0.00  0.00    +0.051 C 
ATOM      5  C   UNL     1     -10.595   8.248  67.346  0.00  0.00    +0.049 C 
ATOM      6  N   UNL     1     -10.334   9.884  65.476  0.00  0.00    -0.221 NA
ATOM      7  C   UNL     1     -10.180  11.264  65.114  0.00  0.00    +0.051 C 
ATOM      8  C   UNL     1      -9.921  11.657  63.692  0.00  0.00    +0.049 C 
ENDROOT
BRANCH   2   9
ATOM      9  C   UNL     1      -9.821  12.996  67.700  0.00  0.00    +0.055 A 
ATOM     10  C   UNL     1     -10.276  14.289  67.835  0.00  0.00    +0.287 A 
ATOM     11  C   UNL     1      -9.370  15.304  67.559  0.00  0.00    +0.075 A 
ATOM     12  C   UNL     1      -8.048  15.015  67.236  0.00  0.00    +0.006 A 
ATOM     13  C   UNL     1      -7.630  13.693  67.290  0.00  0.00    +0.000 A 
ATOM     14  C   UNL     1      -8.634  12.753  67.094  0.00  0.00    +0.002 A 
BRANCH  10  15
ATOM     15  N   UNL     1     -11.357  14.465  68.759  0.00  0.00    +0.081 N 
ATOM     16  O   UNL     1     -11.308  14.030  70.053  0.00  0.00    -0.576 OA
ATOM     17  O   UNL     1     -12.256  15.269  68.452  0.00  0.00    +0.041 OA
ENDBRANCH  10  15
ENDBRANCH   2   9
BRANCH   1  18
ATOM     18  C   UNL     1     -11.840  13.067  65.283  0.00  0.00    +0.339 C 
ATOM     19  O   UNL     1     -12.957  12.588  64.918  0.00  0.00    -0.245 OA
BRANCH  18  21
ATOM     20  C   UNL     1     -11.570  15.400  64.647  0.00  0.00    +0.256 C 
ATOM     21  O   UNL     1     -11.348  14.093  64.489  0.00  0.00    -0.442 OA
ENDBRANCH  18  21
ENDBRANCH   1  18
BRANCH   3  22
ATOM     22  C   UNL     1      -9.969  10.330  69.015  0.00  0.00    +0.339 C 
ATOM     23  O   UNL     1      -8.807  10.199  69.506  0.00  0.00    -0.245 OA
BRANCH  22  24
ATOM     24  O   UNL     1     -10.951  10.694  69.914  0.00  0.00    -0.446 OA
BRANCH  24  25
ATOM     25  C   UNL     1     -11.590   9.820  70.804  0.00  0.00    +0.209 C 
BRANCH  25  26
ATOM     26  C   UNL     1     -12.976  10.185  71.195  0.00  0.00    +0.044 C 
ATOM     27  C   UNL     1     -13.441   9.155  72.220  0.00  0.00    +0.004 C 
ATOM     28  C   UNL     1     -13.140  11.545  71.787  0.00  0.00    +0.004 C 
ENDBRANCH  25  26
ENDBRANCH  24  25
ENDBRANCH  22  24
ENDBRANCH   3  22
TORSDOF 8
ENDMDL
MODEL 3
REMARK VINA RESULT:      -6.4      2.968      5.050
REMARK  Name = 
REMARK  8 active torsions:
REMARK  status: ('A' for Active; 'I' for Inactive)
REMARK    1  A    between atoms: O_2  and  C_3
REMARK    2  A    between atoms: C_3  and  C_5
REMARK    3  A    between atoms: C_11  and  C_12
REMARK    4  A    between atoms: C_12  and  O_14
REMARK    5  A    between atoms: O_14  and  C_15
REMARK    6  A    between atoms: C_15  and  C_16
REMARK    7  A    between atoms: C_19  and  C_20
REMARK    8  A    between atoms: C_25  and  N_26
REMARK                            x       y       z     vdW  Elec       q    Type
REMARK                         _______ _______ _______ _____ _____    ______ ____
ROOT
ATOM      1  C   UNL     1     -10.024  11.888  67.548  0.00  0.00    +0.073 C 
ATOM      2  C   UNL     1     -10.648  13.304  67.032  0.00  0.00    +0.087 C 
ATOM      3  C   UNL     1      -9.237  14.148  66.970  0.00  0.00    +0.073 C 
ATOM      4  C   UNL     1      -8.796  14.154  68.236  0.00  0.00    +0.051 C 
ATOM      5  C   UNL     1      -8.187  15.383  68.840  0.00  0.00    +0.049 C 
ATOM      6  N   UNL     1      -8.233  12.902  68.559  0.00  0.00    -0.221 NA
ATOM      7  C   UNL     1      -8.786  11.796  67.831  0.00  0.00    +0.051 C 
ATOM      8  C   UNL     1      -8.282  10.403  68.055  0.00  0.00    +0.049 C 
ENDROOT
BRANCH   2   9
ATOM      9  C   UNL     1     -10.531  12.865  65.459  0.00  0.00    +0.055 A 
ATOM     10  C   UNL     1     -11.741  12.873  64.800  0.00  0.00    +0.287 A 
ATOM     11  C   UNL     1     -11.855  12.050  63.689  0.00  0.00    +0.075 A 
ATOM     12  C   UNL     1     -10.767  11.316  63.228  0.00  0.00    +0.006 A 
ATOM     13  C   UNL     1      -9.539  11.498  63.847  0.00  0.00    +0.000 A 
ATOM     14  C   UNL     1      -9.605  11.919  65.169  0.00  0.00    +0.002 A 
BRANCH  10  15
ATOM     15  N   UNL     1     -12.504  14.079  64.936  0.00  0.00    +0.081 N 
ATOM     16  O   UNL     1     -12.279  15.191  64.178  0.00  0.00    -0.576 OA
ATOM     17  O   UNL     1     -13.570  14.019  65.576  0.00  0.00    +0.041 OA
ENDBRANCH  10  15
ENDBRANCH   2   9
BRANCH   1  18
ATOM     18  C   UNL     1     -11.089  10.944  67.891  0.00  0.00    +0.339 C 
ATOM     19  O   UNL     1     -11.454  10.172  66.952  0.00  0.00    -0.245 OA
BRANCH  18  21
ATOM     20  C   UNL     1     -12.468  10.914  69.896  0.00  0.00    +0.256 C 
ATOM     21  O   UNL     1     -12.111  11.407  68.708  0.00  0.00    -0.442 OA
ENDBRANCH  18  21
ENDBRANCH   1  18
BRANCH   3  22
ATOM     22  C   UNL     1      -9.592  15.495  66.490  0.00  0.00    +0.339 C 
ATOM     23  O   UNL     1      -9.088  15.806  65.368  0.00  0.00    -0.245 OA
BRANCH  22  24
ATOM     24  O   UNL     1     -10.751  16.166  66.821  0.00  0.00    -0.446 OA
BRANCH  24  25
ATOM     25  C   UNL     1     -10.829  17.247  67.710  0.00  0.00    +0.209 C 
BRANCH  25  26
ATOM     26  C   UNL     1      -9.914  18.385  67.435  0.00  0.00    +0.044 C 
ATOM     27  C   UNL     1     -10.496  19.154  66.253  0.00  0.00    +0.004 C 
ATOM     28  C   UNL     1      -9.717  19.338  68.566  0.00  0.00    +0.004 C 
ENDBRANCH  25  26
ENDBRANCH  24  25
ENDBRANCH  22  24
ENDBRANCH   3  22
TORSDOF 8
ENDMDL
MODEL 4
REMARK VINA RESULT:      -6.4      2.236      6.365
REMARK  Name = 
REMARK  8 active torsions:
REMARK  status: ('A' for Active; 'I' for Inactive)
REMARK    1  A    between atoms: O_2  and  C_3
REMARK    2  A    between atoms: C_3  and  C_5
REMARK    3  A    between atoms: C_11  and  C_12
REMARK    4  A    between atoms: C_12  and  O_14
REMARK    5  A    between atoms: O_14  and  C_15
REMARK    6  A    between atoms: C_15  and  C_16
REMARK    7  A    between atoms: C_19  and  C_20
REMARK    8  A    between atoms: C_25  and  N_26
REMARK                            x       y       z     vdW  Elec       q    Type
REMARK                         _______ _______ _______ _____ _____    ______ ____
ROOT
ATOM      1  C   UNL     1      -9.253  15.135  67.640  0.00  0.00    +0.073 C 
ATOM      2  C   UNL     1     -10.554  14.204  67.322  0.00  0.00    +0.087 C 
ATOM      3  C   UNL     1     -10.496  14.310  65.682  0.00  0.00    +0.073 C 
ATOM      4  C   UNL     1     -10.661  15.616  65.426  0.00  0.00    +0.051 C 
ATOM      5  C   UNL     1     -11.523  16.083  64.293  0.00  0.00    +0.049 C 
ATOM      6  N   UNL     1      -9.463  16.315  65.686  0.00  0.00    -0.221 NA
ATOM      7  C   UNL     1      -8.634  15.720  66.694  0.00  0.00    +0.051 C 
ATOM      8  C   UNL     1      -7.324  16.340  67.072  0.00  0.00    +0.049 C 
ENDROOT
BRANCH   2   9
ATOM      9  C   UNL     1      -9.663  12.830  67.330  0.00  0.00    +0.055 A 
ATOM     10  C   UNL     1      -9.936  12.011  68.403  0.00  0.00    +0.287 A 
ATOM     11  C   UNL     1      -8.932  11.138  68.797  0.00  0.00    +0.075 A 
ATOM     12  C   UNL     1      -7.739  11.052  68.086  0.00  0.00    +0.006 A 
ATOM     13  C   UNL     1      -7.614  11.789  66.917  0.00  0.00    +0.000 A 
ATOM     14  C   UNL     1      -8.397  12.935  66.860  0.00  0.00    +0.002 A 
BRANCH  10  15
ATOM     15  N   UNL     1     -11.324  11.718  68.613  0.00  0.00    +0.081 N 
ATOM     16  O   UNL     1     -12.072  10.992  67.732  0.00  0.00    -0.576 OA
ATOM     17  O   UNL     1     -11.789  11.903  69.753  0.00  0.00    +0.041 OA
ENDBRANCH  10  15
ENDBRANCH   2   9
BRANCH   1  18
ATOM     18  C   UNL     1      -9.139  15.399  69.076  0.00  0.00    +0.339 C 
ATOM     19  O   UNL     1      -8.065  14.996  69.619  0.00  0.00    -0.245 OA
BRANCH  18  21
ATOM     20  C   UNL     1     -11.135  16.206  70.209  0.00  0.00    +0.256 C 
ATOM     21  O   UNL     1     -10.285  15.244  69.843  0.00  0.00    -0.442 OA
ENDBRANCH  18  21
ENDBRANCH   1  18
BRANCH   3  22
ATOM     22  C   UNL     1     -11.615  13.492  65.183  0.00  0.00    +0.339 C 
ATOM     23  O   UNL     1     -12.718  13.687  65.778  0.00  0.00    -0.245 OA
BRANCH  22  24
ATOM     24  O   UNL     1     -11.719  13.004  63.896  0.00  0.00    -0.446 OA
BRANCH  24  25
ATOM     25  C   UNL     1     -11.357  11.711  63.495  0.00  0.00    +0.209 C 
BRANCH  25  26
ATOM     26  C   UNL     1      -9.952  11.313  63.767  0.00  0.00    +0.044 C 
ATOM     27  C   UNL     1      -9.999  10.134  64.735  0.00  0.00    +0.004 C 
ATOM     28  C   UNL     1      -9.155  10.909  62.572  0.00  0.00    +0.004 C 
ENDBRANCH  25  26
ENDBRANCH  24  25
ENDBRANCH  22  24
ENDBRANCH   3  22
TORSDOF 8
ENDMDL
MODEL 5
REMARK VINA RESULT:      -6.4      2.571      4.591
REMARK  Name = 
REMARK  8 active torsions:
REMARK  status: ('A' for Active; 'I' for Inactive)
REMARK    1  A    between atoms: O_2  and  C_3
REMARK    2  A    between atoms: C_3  and  C_5
REMARK    3  A    between atoms: C_11  and  C_12
REMARK    4  A    between atoms: C_12  and  O_14
REMARK    5  A    between atoms: O_14  and  C_15
REMARK    6  A    between atoms: C_15  and  C_16
REMARK    7  A    between atoms: C_19  and  C_20
REMARK    8  A    between atoms: C_25  and  N_26
REMARK                            x       y       z     vdW  Elec       q    Type
REMARK                         _______ _______ _______ _____ _____    ______ ____
ROOT
ATOM      1  C   UNL     1      -6.954  17.546  67.173  0.00  0.00    +0.073 C 
ATOM      2  C   UNL     1      -8.172  16.461  67.215  0.00  0.00    +0.087 C 
ATOM      3  C   UNL     1      -8.156  16.187  68.837  0.00  0.00    +0.073 C 
ATOM      4  C   UNL     1      -6.939  15.679  69.078  0.00  0.00    +0.051 C 
ATOM      5  C   UNL     1      -6.749  14.536  70.029  0.00  0.00    +0.049 C 
ATOM      6  N   UNL     1      -5.974  16.708  69.068  0.00  0.00    -0.221 NA
ATOM      7  C   UNL     1      -6.304  17.825  68.231  0.00  0.00    +0.051 C 
ATOM      8  C   UNL     1      -5.383  19.002  68.126  0.00  0.00    +0.049 C 
ENDROOT
BRANCH   2   9
ATOM      9  C   UNL     1      -9.307  17.632  67.357  0.00  0.00    +0.055 A 
ATOM     10  C   UNL     1     -10.023  17.839  66.199  0.00  0.00    +0.287 A 
ATOM     11  C   UNL     1     -10.600  19.090  66.034  0.00  0.00    +0.075 A 
ATOM     12  C   UNL     1     -10.514  20.055  67.032  0.00  0.00    +0.006 A 
ATOM     13  C   UNL     1      -9.921  19.706  68.237  0.00  0.00    +0.000 A 
ATOM     14  C   UNL     1      -8.989  18.679  68.156  0.00  0.00    +0.002 A 
BRANCH  10  15
ATOM     15  N   UNL     1     -10.582  16.659  65.606  0.00  0.00    +0.081 N 
ATOM     16  O   UNL     1     -10.985  15.578  66.336  0.00  0.00    -0.576 OA
ATOM     17  O   UNL     1     -10.953  16.728  64.420  0.00  0.00    +0.041 OA
ENDBRANCH  10  15
ENDBRANCH   2   9
BRANCH   1  18
ATOM     18  C   UNL     1      -6.583  17.859  65.791  0.00  0.00    +0.339 C 
ATOM     19  O   UNL     1      -5.424  17.480  65.441  0.00  0.00    -0.245 OA
BRANCH  18  21
ATOM     20  C   UNL     1      -6.228  19.952  64.602  0.00  0.00    +0.256 C 
ATOM     21  O   UNL     1      -6.981  19.090  65.290  0.00  0.00    -0.442 OA
ENDBRANCH  18  21
ENDBRANCH   1  18
BRANCH   3  22
ATOM     22  C   UNL     1      -9.234  15.216  69.094  0.00  0.00    +0.339 C 
ATOM     23  O   UNL     1      -9.007  14.047  68.658  0.00  0.00    -0.245 OA
BRANCH  22  24
ATOM     24  O   UNL     1     -10.121  15.289  70.149  0.00  0.00    -0.446 OA
BRANCH  24  25
ATOM     25  C   UNL     1     -11.234  16.139  70.207  0.00  0.00    +0.209 C 
BRANCH  25  26
ATOM     26  C   UNL     1     -12.321  15.728  71.132  0.00  0.00    +0.044 C 
ATOM     27  C   UNL     1     -12.579  14.244  70.890  0.00  0.00    +0.004 C 
ATOM     28  C   UNL     1     -12.040  15.927  72.583  0.00  0.00    +0.004 C 
ENDBRANCH  25  26
ENDBRANCH  24  25
ENDBRANCH  22  24
ENDBRANCH   3  22
TORSDOF 8
ENDMDL
MODEL 6
REMARK VINA RESULT:      -6.3      3.804      6.666
REMARK  Name = 
REMARK  8 active torsions:
REMARK  status: ('A' for Active; 'I' for Inactive)
REMARK    1  A    between atoms: O_2  and  C_3
REMARK    2  A    between atoms: C_3  and  C_5
REMARK    3  A    between atoms: C_11  and  C_12
REMARK    4  A    between atoms: C_12  and  O_14
REMARK    5  A    between atoms: O_14  and  C_15
REMARK    6  A    between atoms: C_15  and  C_16
REMARK    7  A    between atoms: C_19  and  C_20
REMARK    8  A    between atoms: C_25  and  N_26
REMARK                            x       y       z     vdW  Elec       q    Type
REMARK                         _______ _______ _______ _____ _____    ______ ____
ROOT
ATOM      1  C   UNL     1      -6.346  19.830  67.051  0.00  0.00    +0.073 C 
ATOM      2  C   UNL     1      -7.416  19.935  68.278  0.00  0.00    +0.087 C 
ATOM      3  C   UNL     1      -8.525  18.875  67.683  0.00  0.00    +0.073 C 
ATOM      4  C   UNL     1      -8.931  19.429  66.531  0.00  0.00    +0.051 C 
ATOM      5  C   UNL     1     -10.374  19.412  66.128  0.00  0.00    +0.049 C 
ATOM      6  N   UNL     1      -7.956  19.236  65.531  0.00  0.00    -0.221 NA
ATOM      7  C   UNL     1      -6.612  19.128  66.023  0.00  0.00    +0.051 C 
ATOM      8  C   UNL     1      -5.467  18.909  65.082  0.00  0.00    +0.049 C 
ENDROOT
BRANCH   2   9
ATOM      9  C   UNL     1      -6.659  18.763  69.135  0.00  0.00    +0.055 A 
ATOM     10  C   UNL     1      -5.566  19.222  69.837  0.00  0.00    +0.287 A 
ATOM     11  C   UNL     1      -4.582  18.292  70.143  0.00  0.00    +0.075 A 
ATOM     12  C   UNL     1      -4.741  16.949  69.817  0.00  0.00    +0.006 A 
ATOM     13  C   UNL     1      -5.947  16.543  69.264  0.00  0.00    +0.000 A 
ATOM     14  C   UNL     1      -6.637  17.530  68.573  0.00  0.00    +0.002 A 
BRANCH  10  15
ATOM     15  N   UNL     1      -5.803  20.376  70.653  0.00  0.00    +0.081 N 
ATOM     16  O   UNL     1      -6.634  20.362  71.737  0.00  0.00    -0.576 OA
ATOM     17  O   UNL     1      -5.028  21.342  70.529  0.00  0.00    +0.041 OA
ENDBRANCH  10  15
ENDBRANCH   2   9
BRANCH   1  18
ATOM     18  C   UNL     1      -5.288  20.832  67.196  0.00  0.00    +0.339 C 
ATOM     19  O   UNL     1      -5.559  21.980  66.726  0.00  0.00    -0.245 OA
BRANCH  18  21
ATOM     20  C   UNL     1      -2.907  20.801  67.696  0.00  0.00    +0.256 C 
ATOM     21  O   UNL     1      -3.980  20.409  67.006  0.00  0.00    -0.442 OA
ENDBRANCH  18  21
ENDBRANCH   1  18
BRANCH   3  22
ATOM     22  C   UNL     1      -9.601  18.810  68.687  0.00  0.00    +0.339 C 
ATOM     23  O   UNL     1     -10.030  19.938  69.077  0.00  0.00    -0.245 OA
BRANCH  22  24
ATOM     24  O   UNL     1     -10.494  17.765  68.815  0.00  0.00    -0.446 OA
BRANCH  24  25
ATOM     25  C   UNL     1     -10.193  16.416  68.581  0.00  0.00    +0.209 C 
BRANCH  25  26
ATOM     26  C   UNL     1     -10.543  15.893  67.235  0.00  0.00    +0.044 C 
ATOM     27  C   UNL     1      -9.238  15.476  66.563  0.00  0.00    +0.004 C 
ATOM     28  C   UNL     1     -11.473  14.727  67.221  0.00  0.00    +0.004 C 
ENDBRANCH  25  26
ENDBRANCH  24  25
ENDBRANCH  22  24
ENDBRANCH   3  22
TORSDOF 8
ENDMDL
MODEL 7
REMARK VINA RESULT:      -6.2      2.979      5.123
REMARK  Name = 
REMARK  8 active torsions:
REMARK  status: ('A' for Active; 'I' for Inactive)
REMARK    1  A    between atoms: O_2  and  C_3
REMARK    2  A    between atoms: C_3  and  C_5
REMARK    3  A    between atoms: C_11  and  C_12
REMARK    4  A    between atoms: C_12  and  O_14
REMARK    5  A    between atoms: O_14  and  C_15
REMARK    6  A    between atoms: C_15  and  C_16
REMARK    7  A    between atoms: C_19  and  C_20
REMARK    8  A    between atoms: C_25  and  N_26
REMARK                            x       y       z     vdW  Elec       q    Type
REMARK                         _______ _______ _______ _____ _____    ______ ____
ROOT
ATOM      1  C   UNL     1     -10.696  12.607  64.952  0.00  0.00    +0.073 C 
ATOM      2  C   UNL     1      -9.724  13.529  65.883  0.00  0.00    +0.087 C 
ATOM      3  C   UNL     1     -10.799  14.737  66.182  0.00  0.00    +0.073 C 
ATOM      4  C   UNL     1     -11.071  15.248  64.973  0.00  0.00    +0.051 C 
ATOM      5  C   UNL     1     -11.195  16.727  64.765  0.00  0.00    +0.049 C 
ATOM      6  N   UNL     1     -11.957  14.399  64.277  0.00  0.00    -0.221 NA
ATOM      7  C   UNL     1     -11.861  13.014  64.639  0.00  0.00    +0.051 C 
ATOM      8  C   UNL     1     -12.746  11.991  63.994  0.00  0.00    +0.049 C 
ENDROOT
BRANCH   2   9
ATOM      9  C   UNL     1     -10.147  12.726  67.246  0.00  0.00    +0.055 A 
ATOM     10  C   UNL     1      -9.151  11.904  67.725  0.00  0.00    +0.287 A 
ATOM     11  C   UNL     1      -9.548  10.828  68.506  0.00  0.00    +0.075 A 
ATOM     12  C   UNL     1     -10.885  10.644  68.844  0.00  0.00    +0.006 A 
ATOM     13  C   UNL     1     -11.801  11.613  68.463  0.00  0.00    +0.000 A 
ATOM     14  C   UNL     1     -11.444  12.346  67.338  0.00  0.00    +0.002 A 
BRANCH  10  15
ATOM     15  N   UNL     1      -7.867  12.523  67.878  0.00  0.00    +0.081 N 
ATOM     16  O   UNL     1      -7.626  13.524  68.774  0.00  0.00    -0.576 OA
ATOM     17  O   UNL     1      -6.885  11.951  67.368  0.00  0.00    +0.041 OA
ENDBRANCH  10  15
ENDBRANCH   2   9
BRANCH   1  18
ATOM     18  C   UNL     1      -9.947  11.502  64.350  0.00  0.00    +0.339 C 
ATOM     19  O   UNL     1      -9.725  11.611  63.105  0.00  0.00    -0.245 OA
BRANCH  18  21
ATOM     20  C   UNL     1      -9.367   9.273  65.134  0.00  0.00    +0.256 C 
ATOM     21  O   UNL     1     -10.243  10.220  64.789  0.00  0.00    -0.442 OA
ENDBRANCH  18  21
ENDBRANCH   1  18
BRANCH   3  22
ATOM     22  C   UNL     1     -10.098  15.696  67.055  0.00  0.00    +0.339 C 
ATOM     23  O   UNL     1      -8.892  15.920  66.732  0.00  0.00    -0.245 OA
BRANCH  22  24
ATOM     24  O   UNL     1     -10.714  16.704  67.768  0.00  0.00    -0.446 OA
BRANCH  24  25
ATOM     25  C   UNL     1     -10.108  17.459  68.781  0.00  0.00    +0.209 C 
BRANCH  25  26
ATOM     26  C   UNL     1      -9.884  18.896  68.479  0.00  0.00    +0.044 C 
ATOM     27  C   UNL     1      -8.380  19.090  68.304  0.00  0.00    +0.004 C 
ATOM     28  C   UNL     1     -10.569  19.411  67.258  0.00  0.00    +0.004 C 
ENDBRANCH  25  26
ENDBRANCH  24  25
ENDBRANCH  22  24
ENDBRANCH   3  22
TORSDOF 8
ENDMDL
MODEL 8
REMARK VINA RESULT:      -6.1      2.453      4.707
REMARK  Name = 
REMARK  8 active torsions:
REMARK  status: ('A' for Active; 'I' for Inactive)
REMARK    1  A    between atoms: O_2  and  C_3
REMARK    2  A    between atoms: C_3  and  C_5
REMARK    3  A    between atoms: C_11  and  C_12
REMARK    4  A    between atoms: C_12  and  O_14
REMARK    5  A    between atoms: O_14  and  C_15
REMARK    6  A    between atoms: C_15  and  C_16
REMARK    7  A    between atoms: C_19  and  C_20
REMARK    8  A    between atoms: C_25  and  N_26
REMARK                            x       y       z     vdW  Elec       q    Type
REMARK                         _______ _______ _______ _____ _____    ______ ____
ROOT
ATOM      1  C   UNL     1     -10.635  12.482  64.802  0.00  0.00    +0.073 C 
ATOM      2  C   UNL     1      -9.697  13.348  65.817  0.00  0.00    +0.087 C 
ATOM      3  C   UNL     1     -10.803  14.507  66.192  0.00  0.00    +0.073 C 
ATOM      4  C   UNL     1     -11.070  15.105  65.021  0.00  0.00    +0.051 C 
ATOM      5  C   UNL     1     -11.224  16.592  64.926  0.00  0.00    +0.049 C 
ATOM      6  N   UNL     1     -11.927  14.293  64.248  0.00  0.00    -0.221 NA
ATOM      7  C   UNL     1     -11.805  12.887  64.504  0.00  0.00    +0.051 C 
ATOM      8  C   UNL     1     -12.657  11.898  63.768  0.00  0.00    +0.049 C 
ENDROOT
BRANCH   2   9
ATOM      9  C   UNL     1     -10.121  12.433  67.107  0.00  0.00    +0.055 A 
ATOM     10  C   UNL     1      -9.097  11.637  67.569  0.00  0.00    +0.287 A 
ATOM     11  C   UNL     1      -9.458  10.491  68.263  0.00  0.00    +0.075 A 
ATOM     12  C   UNL     1     -10.793  10.211  68.535  0.00  0.00    +0.006 A 
ATOM     13  C   UNL     1     -11.749  11.152  68.184  0.00  0.00    +0.000 A 
ATOM     14  C   UNL     1     -11.397  11.977  67.123  0.00  0.00    +0.002 A 
BRANCH  10  15
ATOM     15  N   UNL     1      -7.857  12.314  67.812  0.00  0.00    +0.081 N 
ATOM     16  O   UNL     1      -7.718  13.300  68.746  0.00  0.00    -0.576 OA
ATOM     17  O   UNL     1      -6.820  11.807  67.346  0.00  0.00    +0.041 OA
ENDBRANCH  10  15
ENDBRANCH   2   9
BRANCH   1  18
ATOM     18  C   UNL     1      -9.853  11.443  64.128  0.00  0.00    +0.339 C 
ATOM     19  O   UNL     1      -9.668  11.623  62.886  0.00  0.00    -0.245 OA
BRANCH  18  21
ATOM     20  C   UNL     1      -9.156   9.205  64.782  0.00  0.00    +0.256 C 
ATOM     21  O   UNL     1     -10.081  10.128  64.509  0.00  0.00    -0.442 OA
ENDBRANCH  18  21
ENDBRANCH   1  18
BRANCH   3  22
ATOM     22  C   UNL     1     -10.136  15.409  67.146  0.00  0.00    +0.339 C 
ATOM     23  O   UNL     1      -9.014  15.854  66.758  0.00  0.00    -0.245 OA
BRANCH  22  24
ATOM     24  O   UNL     1     -10.791  16.195  68.074  0.00  0.00    -0.446 OA
BRANCH  24  25
ATOM     25  C   UNL     1     -10.648  16.086  69.464  0.00  0.00    +0.209 C 
BRANCH  25  26
ATOM     26  C   UNL     1     -11.873  15.717  70.219  0.00  0.00    +0.044 C 
ATOM     27  C   UNL     1     -12.020  14.201  70.123  0.00  0.00    +0.004 C 
ATOM     28  C   UNL     1     -11.879  16.100  71.661  0.00  0.00    +0.004 C 
ENDBRANCH  25  26
ENDBRANCH  24  25
ENDBRANCH  22  24
ENDBRANCH   3  22
TORSDOF 8
ENDMDL
MODEL 9
REMARK VINA RESULT:      -6.1      3.751      6.612
REMARK  Name = 
REMARK  8 active torsions:
REMARK  status: ('A' for Active; 'I' for Inactive)
REMARK    1  A    between atoms: O_2  and  C_3
REMARK    2  A    between atoms: C_3  and  C_5
REMARK    3  A    between atoms: C_11  and  C_12
REMARK    4  A    between atoms: C_12  and  O_14
REMARK    5  A    between atoms: O_14  and  C_15
REMARK    6  A    between atoms: C_15  and  C_16
REMARK    7  A    between atoms: C_19  and  C_20
REMARK    8  A    between atoms: C_25  and  N_26
REMARK                            x       y       z     vdW  Elec       q    Type
REMARK                         _______ _______ _______ _____ _____    ______ ____
ROOT
ATOM      1  C   UNL     1      -6.414  19.865  68.341  0.00  0.00    +0.073 C 
ATOM      2  C   UNL     1      -7.025  18.459  68.900  0.00  0.00    +0.087 C 
ATOM      3  C   UNL     1      -8.020  18.141  67.629  0.00  0.00    +0.073 C 
ATOM      4  C   UNL     1      -8.884  19.166  67.617  0.00  0.00    +0.051 C 
ATOM      5  C   UNL     1     -10.343  18.949  67.351  0.00  0.00    +0.049 C 
ATOM      6  N   UNL     1      -8.269  20.311  67.070  0.00  0.00    -0.221 NA
ATOM      7  C   UNL     1      -6.847  20.368  67.255  0.00  0.00    +0.051 C 
ATOM      8  C   UNL     1      -6.051  21.519  66.719  0.00  0.00    +0.049 C 
ENDROOT
BRANCH   2   9
ATOM      9  C   UNL     1      -5.804  17.585  68.247  0.00  0.00    +0.055 A 
ATOM     10  C   UNL     1      -4.874  17.173  69.175  0.00  0.00    +0.287 A 
ATOM     11  C   UNL     1      -3.594  16.912  68.707  0.00  0.00    +0.075 A 
ATOM     12  C   UNL     1      -3.298  16.995  67.350  0.00  0.00    +0.006 A 
ATOM     13  C   UNL     1      -4.334  17.250  66.464  0.00  0.00    +0.000 A 
ATOM     14  C   UNL     1      -5.408  17.947  67.003  0.00  0.00    +0.002 A 
BRANCH  10  15
ATOM     15  N   UNL     1      -5.411  16.513  70.329  0.00  0.00    +0.081 N 
ATOM     16  O   UNL     1      -6.102  15.337  70.259  0.00  0.00    -0.576 OA
ATOM     17  O   UNL     1      -5.008  16.882  71.447  0.00  0.00    +0.041 OA
ENDBRANCH  10  15
ENDBRANCH   2   9
BRANCH   1  18
ATOM     18  C   UNL     1      -5.601  20.523  69.366  0.00  0.00    +0.339 C 
ATOM     19  O   UNL     1      -4.345  20.437  69.201  0.00  0.00    -0.245 OA
BRANCH  18  21
ATOM     20  C   UNL     1      -5.265  20.280  71.764  0.00  0.00    +0.256 C 
ATOM     21  O   UNL     1      -6.033  20.425  70.681  0.00  0.00    -0.442 OA
ENDBRANCH  18  21
ENDBRANCH   1  18
BRANCH   3  22
ATOM     22  C   UNL     1      -8.673  16.857  67.938  0.00  0.00    +0.339 C 
ATOM     23  O   UNL     1      -8.491  15.949  67.072  0.00  0.00    -0.245 OA
BRANCH  22  24
ATOM     24  O   UNL     1      -8.956  16.406  69.212  0.00  0.00    -0.446 OA
BRANCH  24  25
ATOM     25  C   UNL     1      -9.920  15.440  69.528  0.00  0.00    +0.209 C 
BRANCH  25  26
ATOM     26  C   UNL     1     -11.327  15.792  69.206  0.00  0.00    +0.044 C 
ATOM     27  C   UNL     1     -11.782  14.852  68.093  0.00  0.00    +0.004 C 
ATOM     28  C   UNL     1     -12.292  15.684  70.338  0.00  0.00    +0.004 C 
ENDBRANCH  25  26
ENDBRANCH  24  25
ENDBRANCH  22  24
ENDBRANCH   3  22
TORSDOF 8
ENDMDL
