MODEL 1
REMARK VINA RESULT:      -7.0      0.000      0.000
REMARK  Name = 
REMARK  10 active torsions:
REMARK  status: ('A' for Active; 'I' for Inactive)
REMARK    1  A    between atoms: C_2  and  O_3
REMARK    2  A    between atoms: O_3  and  C_4
REMARK    3  A    between atoms: C_4  and  C_6
REMARK    4  A    between atoms: C_6  and  C_7
REMARK    5  A    between atoms: C_6  and  N_15
REMARK    6  A    between atoms: C_7  and  C_8
REMARK    7  A    between atoms: C_8  and  C_9
REMARK    8  A    between atoms: N_15  and  CA_16
REMARK    9  A    between atoms: CA_16  and  C_18
REMARK   10  A    between atoms: CA_24  and  C_25
REMARK                            x       y       z     vdW  Elec       q    Type
REMARK                         _______ _______ _______ _____ _____    ______ ____
ROOT
ATOM      1  C   UNK A   0     -11.043  13.751  66.745  0.00  0.00    +0.172 C 
ENDROOT
BRANCH   1   2
ATOM      2  C   UNK A   0     -12.101  13.407  65.580  0.00  0.00    +0.333 C 
ATOM      3  O   UNK A   0     -13.125  14.083  65.506  0.00  0.00    -0.249 OA
BRANCH   2   4
ATOM      4  O   UNK A   0     -12.155  12.029  65.333  0.00  0.00    -0.448 OA
BRANCH   4   6
ATOM      5  C   UNK A   0     -10.785  11.918  63.489  0.00  0.00    +0.051 C 
ATOM      6  C   UNK A   0     -11.026  11.511  64.657  0.00  0.00    +0.209 C 
ENDBRANCH   4   6
ENDBRANCH   2   4
ENDBRANCH   1   2
BRANCH   1   7
ATOM      7  N   ALA A   1     -10.936  15.237  66.263  0.00  0.00    -0.201 NA
BRANCH   7   8
ATOM      8  CA  ALA A   1      -9.956  15.903  67.294  0.00  0.00    +0.149 C 
ATOM      9  CB  ALA A   1      -8.544  15.421  66.595  0.00  0.00    +0.029 C 
BRANCH   8  10
ATOM     10  C   ALA A   1      -9.967  17.295  66.478  0.00  0.00    +0.242 C 
ATOM     11  N   PRO A   2      -8.996  18.146  67.037  0.00  0.00    -0.270 N 
ATOM     12  CA  PRO A   2      -8.641  19.429  66.198  0.00  0.00    +0.179 C 
ATOM     13  CB  PRO A   2      -9.940  20.226  66.819  0.00  0.00    +0.033 C 
ATOM     14  CG  PRO A   2      -9.860  19.872  68.260  0.00  0.00    +0.024 C 
ATOM     15  CD  PRO A   2      -9.117  18.583  68.396  0.00  0.00    +0.094 C 
ATOM     16  O   ALA A   1     -10.435  17.316  65.349  0.00  0.00    -0.273 OA
BRANCH  12  17
ATOM     17  C   PRO A   2      -7.618  19.990  67.313  0.00  0.00    +0.382 C 
ATOM     18  OXT PRO A   2      -6.642  19.074  67.678  0.00  0.00    -0.244 OA
ATOM     19  O   PRO A   2      -7.498  21.206  67.423  0.00  0.00    -0.244 OA
ENDBRANCH  12  17
ENDBRANCH   8  10
ENDBRANCH   7   8
ENDBRANCH   1   7
BRANCH   1  20
ATOM     20  C   UNK A   0     -12.209  14.119  67.849  0.00  0.00    +0.033 C 
BRANCH  20  21
ATOM     21  C   UNK A   0     -11.792  13.090  68.892  0.00  0.00    +0.028 C 
BRANCH  21  22
ATOM     22  C   UNK A   0     -12.040  13.584  70.284  0.00  0.00    -0.022 A 
ATOM     23  C   UNK A   0     -12.416  14.923  70.329  0.00  0.00    -0.004 A 
ATOM     24  C   UNK A   0     -13.292  15.423  71.262  0.00  0.00    -0.000 A 
ATOM     25  C   UNK A   0     -14.015  14.546  72.051  0.00  0.00    -0.000 A 
ATOM     26  C   UNK A   0     -13.573  13.243  72.138  0.00  0.00    -0.000 A 
ATOM     27  C   UNK A   0     -12.690  12.765  71.201  0.00  0.00    -0.004 A 
ENDBRANCH  21  22
ENDBRANCH  20  21
ENDBRANCH   1  20
TORSDOF 10
ENDMDL
MODEL 2
REMARK VINA RESULT:      -6.7      1.098      1.468
REMARK  Name = 
REMARK  10 active torsions:
REMARK  status: ('A' for Active; 'I' for Inactive)
REMARK    1  A    between atoms: C_2  and  O_3
REMARK    2  A    between atoms: O_3  and  C_4
REMARK    3  A    between atoms: C_4  and  C_6
REMARK    4  A    between atoms: C_6  and  C_7
REMARK    5  A    between atoms: C_6  and  N_15
REMARK    6  A    between atoms: C_7  and  C_8
REMARK    7  A    between atoms: C_8  and  C_9
REMARK    8  A    between atoms: N_15  and  CA_16
REMARK    9  A    between atoms: CA_16  and  C_18
REMARK   10  A    between atoms: CA_24  and  C_25
REMARK                            x       y       z     vdW  Elec       q    Type
REMARK                         _______ _______ _______ _____ _____    ______ ____
ROOT
ATOM      1  C   UNK A   0     -10.655  13.605  67.801  0.00  0.00    +0.172 C 
ENDROOT
BRANCH   1   2
ATOM      2  C   UNK A   0     -11.359  12.836  66.573  0.00  0.00    +0.333 C 
ATOM      3  O   UNK A   0     -12.003  11.817  66.816  0.00  0.00    -0.249 OA
BRANCH   2   4
ATOM      4  O   UNK A   0     -10.575  12.906  65.413  0.00  0.00    -0.448 OA
BRANCH   4   6
ATOM      5  C   UNK A   0     -11.985  12.949  63.597  0.00  0.00    +0.051 C 
ATOM      6  C   UNK A   0     -11.154  12.291  64.278  0.00  0.00    +0.209 C 
ENDBRANCH   4   6
ENDBRANCH   2   4
ENDBRANCH   1   2
BRANCH   1   7
ATOM      7  N   ALA A   1     -10.174  14.756  66.856  0.00  0.00    -0.201 NA
BRANCH   7   8
ATOM      8  CA  ALA A   1      -9.264  15.648  67.774  0.00  0.00    +0.149 C 
ATOM      9  CB  ALA A   1      -7.806  15.140  67.198  0.00  0.00    +0.029 C 
BRANCH   8  10
ATOM     10  C   ALA A   1      -9.329  16.875  66.729  0.00  0.00    +0.242 C 
ATOM     11  N   PRO A   2      -8.552  17.934  67.237  0.00  0.00    -0.270 N 
ATOM     12  CA  PRO A   2      -8.242  19.103  66.229  0.00  0.00    +0.179 C 
ATOM     13  CB  PRO A   2      -9.700  19.797  66.546  0.00  0.00    +0.033 C 
ATOM     14  CG  PRO A   2      -9.777  19.694  68.026  0.00  0.00    +0.024 C 
ATOM     15  CD  PRO A   2      -8.911  18.561  68.473  0.00  0.00    +0.094 C 
ATOM     16  O   ALA A   1      -9.637  16.649  65.568  0.00  0.00    -0.273 OA
BRANCH  12  17
ATOM     17  C   PRO A   2      -7.456  19.974  67.338  0.00  0.00    +0.382 C 
ATOM     18  OXT PRO A   2      -6.418  19.286  67.948  0.00  0.00    -0.244 OA
ATOM     19  O   PRO A   2      -7.519  21.197  67.258  0.00  0.00    -0.244 OA
ENDBRANCH  12  17
ENDBRANCH   8  10
ENDBRANCH   7   8
ENDBRANCH   1   7
BRANCH   1  20
ATOM     20  C   UNK A   0     -12.023  14.424  68.218  0.00  0.00    +0.033 C 
BRANCH  20  21
ATOM     21  C   UNK A   0     -12.023  14.025  69.688  0.00  0.00    +0.028 C 
BRANCH  21  22
ATOM     22  C   UNK A   0     -12.517  15.138  70.561  0.00  0.00    -0.022 A 
ATOM     23  C   UNK A   0     -13.780  14.896  71.091  0.00  0.00    -0.004 A 
ATOM     24  C   UNK A   0     -14.166  15.334  72.335  0.00  0.00    -0.000 A 
ATOM     25  C   UNK A   0     -13.213  15.835  73.203  0.00  0.00    -0.000 A 
ATOM     26  C   UNK A   0     -11.999  16.221  72.673  0.00  0.00    -0.000 A 
ATOM     27  C   UNK A   0     -11.636  15.781  71.424  0.00  0.00    -0.004 A 
ENDBRANCH  21  22
ENDBRANCH  20  21
ENDBRANCH   1  20
TORSDOF 10
ENDMDL
MODEL 3
REMARK VINA RESULT:      -6.7      1.802      5.686
REMARK  Name = 
REMARK  10 active torsions:
REMARK  status: ('A' for Active; 'I' for Inactive)
REMARK    1  A    between atoms: C_2  and  O_3
REMARK    2  A    between atoms: O_3  and  C_4
REMARK    3  A    between atoms: C_4  and  C_6
REMARK    4  A    between atoms: C_6  and  C_7
REMARK    5  A    between atoms: C_6  and  N_15
REMARK    6  A    between atoms: C_7  and  C_8
REMARK    7  A    between atoms: C_8  and  C_9
REMARK    8  A    between atoms: N_15  and  CA_16
REMARK    9  A    between atoms: CA_16  and  C_18
REMARK   10  A    between atoms: CA_24  and  C_25
REMARK                            x       y       z     vdW  Elec       q    Type
REMARK                         _______ _______ _______ _____ _____    ______ ____
ROOT
ATOM      1  C   UNK A   0     -10.041  16.212  67.613  0.00  0.00    +0.172 C 
ENDROOT
BRANCH   1   2
ATOM      2  C   UNK A   0      -8.826  17.252  67.429  0.00  0.00    +0.333 C 
ATOM      3  O   UNK A   0      -8.393  17.823  68.429  0.00  0.00    -0.249 OA
BRANCH   2   4
ATOM      4  O   UNK A   0      -8.932  17.950  66.219  0.00  0.00    -0.448 OA
BRANCH   4   6
ATOM      5  C   UNK A   0     -10.471  19.651  66.054  0.00  0.00    +0.051 C 
ATOM      6  C   UNK A   0      -9.296  19.310  66.357  0.00  0.00    +0.209 C 
ENDBRANCH   4   6
ENDBRANCH   2   4
ENDBRANCH   1   2
BRANCH   1   7
ATOM      7  N   ALA A   1      -9.078  15.131  68.209  0.00  0.00    -0.201 NA
BRANCH   7   8
ATOM      8  CA  ALA A   1      -8.646  14.276  66.965  0.00  0.00    +0.149 C 
ATOM      9  CB  ALA A   1      -7.886  13.065  67.785  0.00  0.00    +0.029 C 
BRANCH   8  10
ATOM     10  C   ALA A   1     -10.052  13.485  66.960  0.00  0.00    +0.242 C 
ATOM     11  N   PRO A   2     -10.404  13.213  65.624  0.00  0.00    -0.270 N 
ATOM     12  CA  PRO A   2     -11.583  12.189  65.420  0.00  0.00    +0.179 C 
ATOM     13  CB  PRO A   2     -12.692  13.382  65.646  0.00  0.00    +0.033 C 
ATOM     14  CG  PRO A   2     -12.126  14.490  64.834  0.00  0.00    +0.024 C 
ATOM     15  CD  PRO A   2     -10.650  14.288  64.711  0.00  0.00    +0.094 C 
ATOM     16  O   ALA A   1     -10.407  12.900  67.973  0.00  0.00    -0.273 OA
BRANCH  12  17
ATOM     17  C   PRO A   2     -11.567  12.349  63.814  0.00  0.00    +0.382 C 
ATOM     18  OXT PRO A   2     -10.358  11.993  63.234  0.00  0.00    -0.244 OA
ATOM     19  O   PRO A   2     -12.643  12.339  63.224  0.00  0.00    -0.244 OA
ENDBRANCH  12  17
ENDBRANCH   8  10
ENDBRANCH   7   8
ENDBRANCH   1   7
BRANCH   1  20
ATOM     20  C   UNK A   0     -10.446  16.776  69.107  0.00  0.00    +0.033 C 
BRANCH  20  21
ATOM     21  C   UNK A   0     -11.716  15.949  69.266  0.00  0.00    +0.028 C 
BRANCH  21  22
ATOM     22  C   UNK A   0     -11.737  15.217  70.572  0.00  0.00    -0.022 A 
ATOM     23  C   UNK A   0     -11.850  16.063  71.671  0.00  0.00    -0.004 A 
ATOM     24  C   UNK A   0     -12.526  15.716  72.816  0.00  0.00    -0.000 A 
ATOM     25  C   UNK A   0     -13.324  14.586  72.815  0.00  0.00    -0.000 A 
ATOM     26  C   UNK A   0     -13.127  13.658  71.814  0.00  0.00    -0.000 A 
ATOM     27  C   UNK A   0     -12.440  14.022  70.682  0.00  0.00    -0.004 A 
ENDBRANCH  21  22
ENDBRANCH  20  21
ENDBRANCH   1  20
TORSDOF 10
ENDMDL
MODEL 4
REMARK VINA RESULT:      -6.7      2.988      6.170
REMARK  Name = 
REMARK  10 active torsions:
REMARK  status: ('A' for Active; 'I' for Inactive)
REMARK    1  A    between atoms: C_2  and  O_3
REMARK    2  A    between atoms: O_3  and  C_4
REMARK    3  A    between atoms: C_4  and  C_6
REMARK    4  A    between atoms: C_6  and  C_7
REMARK    5  A    between atoms: C_6  and  N_15
REMARK    6  A    between atoms: C_7  and  C_8
REMARK    7  A    between atoms: C_8  and  C_9
REMARK    8  A    between atoms: N_15  and  CA_16
REMARK    9  A    between atoms: CA_16  and  C_18
REMARK   10  A    between atoms: CA_24  and  C_25
REMARK                            x       y       z     vdW  Elec       q    Type
REMARK                         _______ _______ _______ _____ _____    ______ ____
ROOT
ATOM      1  C   UNK A   0     -12.867  14.613  70.360  0.00  0.00    +0.172 C 
ENDROOT
BRANCH   1   2
ATOM      2  C   UNK A   0     -13.425  15.363  71.671  0.00  0.00    +0.333 C 
ATOM      3  O   UNK A   0     -14.594  15.747  71.668  0.00  0.00    -0.249 OA
BRANCH   2   4
ATOM      4  O   UNK A   0     -12.433  16.153  72.267  0.00  0.00    -0.448 OA
BRANCH   4   6
ATOM      5  C   UNK A   0     -12.392  15.271  74.391  0.00  0.00    +0.051 C 
ATOM      6  C   UNK A   0     -12.559  16.290  73.670  0.00  0.00    +0.209 C 
ENDBRANCH   4   6
ENDBRANCH   2   4
ENDBRANCH   1   2
BRANCH   1   7
ATOM      7  N   ALA A   1     -11.631  15.572  70.290  0.00  0.00    -0.201 NA
BRANCH   7   8
ATOM      8  CA  ALA A   1     -11.599  16.045  68.793  0.00  0.00    +0.149 C 
ATOM      9  CB  ALA A   1     -10.442  17.208  68.955  0.00  0.00    +0.029 C 
BRANCH   8  10
ATOM     10  C   ALA A   1     -10.510  14.917  68.410  0.00  0.00    +0.242 C 
ATOM     11  N   PRO A   2     -10.756  14.492  67.090  0.00  0.00    -0.270 N 
ATOM     12  CA  PRO A   2      -9.624  13.621  66.428  0.00  0.00    +0.179 C 
ATOM     13  CB  PRO A   2     -10.210  12.264  67.152  0.00  0.00    +0.033 C 
ATOM     14  CG  PRO A   2     -11.673  12.405  66.937  0.00  0.00    +0.024 C 
ATOM     15  CD  PRO A   2     -11.994  13.854  66.758  0.00  0.00    +0.094 C 
ATOM     16  O   ALA A   1      -9.467  14.861  69.044  0.00  0.00    -0.273 OA
BRANCH  12  17
ATOM     17  C   PRO A   2     -10.464  13.397  65.068  0.00  0.00    +0.382 C 
ATOM     18  OXT PRO A   2     -10.880  14.579  64.474  0.00  0.00    -0.244 OA
ATOM     19  O   PRO A   2     -10.310  12.339  64.465  0.00  0.00    -0.244 OA
ENDBRANCH  12  17
ENDBRANCH   8  10
ENDBRANCH   7   8
ENDBRANCH   1   7
BRANCH   1  20
ATOM     20  C   UNK A   0     -12.031  13.487  71.224  0.00  0.00    +0.033 C 
BRANCH  20  21
ATOM     21  C   UNK A   0     -13.210  12.556  71.481  0.00  0.00    +0.028 C 
BRANCH  21  22
ATOM     22  C   UNK A   0     -12.909  11.153  71.051  0.00  0.00    -0.022 A 
ATOM     23  C   UNK A   0     -11.713  11.042  70.349  0.00  0.00    -0.004 A 
ATOM     24  C   UNK A   0     -10.900   9.936  70.424  0.00  0.00    -0.000 A 
ATOM     25  C   UNK A   0     -11.141   8.985  71.398  0.00  0.00    -0.000 A 
ATOM     26  C   UNK A   0     -12.379   8.984  72.007  0.00  0.00    -0.000 A 
ATOM     27  C   UNK A   0     -13.179  10.095  71.911  0.00  0.00    -0.004 A 
ENDBRANCH  21  22
ENDBRANCH  20  21
ENDBRANCH   1  20
TORSDOF 10
ENDMDL
MODEL 5
REMARK VINA RESULT:      -6.6      1.126      1.594
REMARK  Name = 
REMARK  10 active torsions:
REMARK  status: ('A' for Active; 'I' for Inactive)
REMARK    1  A    between atoms: C_2  and  O_3
REMARK    2  A    between atoms: O_3  and  C_4
REMARK    3  A    between atoms: C_4  and  C_6
REMARK    4  A    between atoms: C_6  and  C_7
REMARK    5  A    between atoms: C_6  and  N_15
REMARK    6  A    between atoms: C_7  and  C_8
REMARK    7  A    between atoms: C_8  and  C_9
REMARK    8  A    between atoms: N_15  and  CA_16
REMARK    9  A    between atoms: CA_16  and  C_18
REMARK   10  A    between atoms: CA_24  and  C_25
REMARK                            x       y       z     vdW  Elec       q    Type
REMARK                         _______ _______ _______ _____ _____    ______ ____
ROOT
ATOM      1  C   UNK A   0     -10.819  13.742  67.467  0.00  0.00    +0.172 C 
ENDROOT
BRANCH   1   2
ATOM      2  C   UNK A   0     -11.736  13.162  66.277  0.00  0.00    +0.333 C 
ATOM      3  O   UNK A   0     -12.571  13.909  65.770  0.00  0.00    -0.249 OA
BRANCH   2   4
ATOM      4  O   UNK A   0     -12.041  11.811  66.481  0.00  0.00    -0.448 OA
BRANCH   4   6
ATOM      5  C   UNK A   0     -11.124  10.174  67.810  0.00  0.00    +0.051 C 
ATOM      6  C   UNK A   0     -10.944  11.019  66.893  0.00  0.00    +0.209 C 
ENDBRANCH   4   6
ENDBRANCH   2   4
ENDBRANCH   1   2
BRANCH   1   7
ATOM      7  N   ALA A   1     -10.492  15.031  66.641  0.00  0.00    -0.201 NA
BRANCH   7   8
ATOM      8  CA  ALA A   1      -9.511  15.838  67.564  0.00  0.00    +0.149 C 
ATOM      9  CB  ALA A   1      -8.100  15.337  66.876  0.00  0.00    +0.029 C 
BRANCH   8  10
ATOM     10  C   ALA A   1      -9.600  17.134  66.608  0.00  0.00    +0.242 C 
ATOM     11  N   PRO A   2      -8.718  18.114  67.103  0.00  0.00    -0.270 N 
ATOM     12  CA  PRO A   2      -8.434  19.329  66.144  0.00  0.00    +0.179 C 
ATOM     13  CB  PRO A   2      -9.812  20.077  66.642  0.00  0.00    +0.033 C 
ATOM     14  CG  PRO A   2      -9.758  19.879  68.114  0.00  0.00    +0.024 C 
ATOM     15  CD  PRO A   2      -8.923  18.675  68.405  0.00  0.00    +0.094 C 
ATOM     16  O   ALA A   1     -10.027  17.003  65.470  0.00  0.00    -0.273 OA
BRANCH  12  17
ATOM     17  C   PRO A   2      -7.499  20.081  67.223  0.00  0.00    +0.382 C 
ATOM     18  OXT PRO A   2      -6.426  19.315  67.655  0.00  0.00    -0.244 OA
ATOM     19  O   PRO A   2      -7.525  21.308  67.251  0.00  0.00    -0.244 OA
ENDBRANCH  12  17
ENDBRANCH   8  10
ENDBRANCH   7   8
ENDBRANCH   1   7
BRANCH   1  20
ATOM     20  C   UNK A   0     -12.081  14.470  68.236  0.00  0.00    +0.033 C 
BRANCH  20  21
ATOM     21  C   UNK A   0     -11.660  14.099  69.652  0.00  0.00    +0.028 C 
BRANCH  21  22
ATOM     22  C   UNK A   0     -12.432  14.870  70.677  0.00  0.00    -0.022 A 
ATOM     23  C   UNK A   0     -13.229  14.061  71.482  0.00  0.00    -0.004 A 
ATOM     24  C   UNK A   0     -13.480  14.338  72.805  0.00  0.00    -0.000 A 
ATOM     25  C   UNK A   0     -12.745  15.320  73.443  0.00  0.00    -0.000 A 
ATOM     26  C   UNK A   0     -12.063  16.227  72.658  0.00  0.00    -0.000 A 
ATOM     27  C   UNK A   0     -11.831  15.936  71.337  0.00  0.00    -0.004 A 
ENDBRANCH  21  22
ENDBRANCH  20  21
ENDBRANCH   1  20
TORSDOF 10
ENDMDL
MODEL 6
REMARK VINA RESULT:      -6.6      1.530      2.002
REMARK  Name = 
REMARK  10 active torsions:
REMARK  status: ('A' for Active; 'I' for Inactive)
REMARK    1  A    between atoms: C_2  and  O_3
REMARK    2  A    between atoms: O_3  and  C_4
REMARK    3  A    between atoms: C_4  and  C_6
REMARK    4  A    between atoms: C_6  and  C_7
REMARK    5  A    between atoms: C_6  and  N_15
REMARK    6  A    between atoms: C_7  and  C_8
REMARK    7  A    between atoms: C_8  and  C_9
REMARK    8  A    between atoms: N_15  and  CA_16
REMARK    9  A    between atoms: CA_16  and  C_18
REMARK   10  A    between atoms: CA_24  and  C_25
REMARK                            x       y       z     vdW  Elec       q    Type
REMARK                         _______ _______ _______ _____ _____    ______ ____
ROOT
ATOM      1  C   UNK A   0     -10.623  13.610  68.347  0.00  0.00    +0.172 C 
ENDROOT
BRANCH   1   2
ATOM      2  C   UNK A   0     -11.047  12.273  67.555  0.00  0.00    +0.333 C 
ATOM      3  O   UNK A   0     -12.106  11.728  67.859  0.00  0.00    -0.249 OA
BRANCH   2   4
ATOM      4  O   UNK A   0      -9.927  11.493  67.238  0.00  0.00    -0.448 OA
BRANCH   4   6
ATOM      5  C   UNK A   0      -9.997  10.512  65.159  0.00  0.00    +0.051 C 
ATOM      6  C   UNK A   0     -10.202  10.390  66.396  0.00  0.00    +0.209 C 
ENDBRANCH   4   6
ENDBRANCH   2   4
ENDBRANCH   1   2
BRANCH   1   7
ATOM      7  N   ALA A   1     -11.070  14.510  67.146  0.00  0.00    -0.201 NA
BRANCH   7   8
ATOM      8  CA  ALA A   1      -9.749  14.744  66.332  0.00  0.00    +0.149 C 
ATOM      9  CB  ALA A   1     -10.310  14.262  64.859  0.00  0.00    +0.029 C 
BRANCH   8  10
ATOM     10  C   ALA A   1     -10.137  16.285  66.053  0.00  0.00    +0.242 C 
ATOM     11  N   PRO A   2      -9.193  17.106  66.699  0.00  0.00    -0.270 N 
ATOM     12  CA  PRO A   2      -9.219  18.628  66.300  0.00  0.00    +0.179 C 
ATOM     13  CB  PRO A   2     -10.443  18.912  67.363  0.00  0.00    +0.033 C 
ATOM     14  CG  PRO A   2      -9.992  18.159  68.562  0.00  0.00    +0.024 C 
ATOM     15  CD  PRO A   2      -9.066  17.072  68.125  0.00  0.00    +0.094 C 
ATOM     16  O   ALA A   1     -10.845  16.554  65.094  0.00  0.00    -0.273 OA
BRANCH  12  17
ATOM     17  C   PRO A   2      -8.059  19.019  67.353  0.00  0.00    +0.382 C 
ATOM     18  OXT PRO A   2      -6.881  18.311  67.167  0.00  0.00    -0.244 OA
ATOM     19  O   PRO A   2      -8.125  20.117  67.899  0.00  0.00    -0.244 OA
ENDBRANCH  12  17
ENDBRANCH   8  10
ENDBRANCH   7   8
ENDBRANCH   1   7
BRANCH   1  20
ATOM     20  C   UNK A   0     -12.082  13.763  69.096  0.00  0.00    +0.033 C 
BRANCH  20  21
ATOM     21  C   UNK A   0     -12.008  15.269  69.315  0.00  0.00    +0.028 C 
BRANCH  21  22
ATOM     22  C   UNK A   0     -12.598  15.664  70.634  0.00  0.00    -0.022 A 
ATOM     23  C   UNK A   0     -13.622  14.818  71.049  0.00  0.00    -0.004 A 
ATOM     24  C   UNK A   0     -13.857  14.520  72.370  0.00  0.00    -0.000 A 
ATOM     25  C   UNK A   0     -12.920  14.878  73.322  0.00  0.00    -0.000 A 
ATOM     26  C   UNK A   0     -11.982  15.828  72.978  0.00  0.00    -0.000 A 
ATOM     27  C   UNK A   0     -11.768  16.118  71.653  0.00  0.00    -0.004 A 
ENDBRANCH  21  22
ENDBRANCH  20  21
ENDBRANCH   1  20
TORSDOF 10
ENDMDL
MODEL 7
REMARK VINA RESULT:      -6.5      2.550      6.084
REMARK  Name = 
REMARK  10 active torsions:
REMARK  status: ('A' for Active; 'I' for Inactive)
REMARK    1  A    between atoms: C_2  and  O_3
REMARK    2  A    between atoms: O_3  and  C_4
REMARK    3  A    between atoms: C_4  and  C_6
REMARK    4  A    between atoms: C_6  and  C_7
REMARK    5  A    between atoms: C_6  and  N_15
REMARK    6  A    between atoms: C_7  and  C_8
REMARK    7  A    between atoms: C_8  and  C_9
REMARK    8  A    between atoms: N_15  and  CA_16
REMARK    9  A    between atoms: CA_16  and  C_18
REMARK   10  A    between atoms: CA_24  and  C_25
REMARK                            x       y       z     vdW  Elec       q    Type
REMARK                         _______ _______ _______ _____ _____    ______ ____
ROOT
ATOM      1  C   UNK A   0     -11.770  14.801  68.886  0.00  0.00    +0.172 C 
ENDROOT
BRANCH   1   2
ATOM      2  C   UNK A   0     -11.728  15.642  70.259  0.00  0.00    +0.333 C 
ATOM      3  O   UNK A   0     -10.889  15.336  71.103  0.00  0.00    -0.249 OA
BRANCH   2   4
ATOM      4  O   UNK A   0     -13.015  16.024  70.661  0.00  0.00    -0.448 OA
BRANCH   4   6
ATOM      5  C   UNK A   0     -14.692  14.858  71.715  0.00  0.00    +0.051 C 
ATOM      6  C   UNK A   0     -13.517  15.308  71.772  0.00  0.00    +0.209 C 
ENDBRANCH   4   6
ENDBRANCH   2   4
ENDBRANCH   1   2
BRANCH   1   7
ATOM      7  N   ALA A   1     -10.457  15.487  68.380  0.00  0.00    -0.201 NA
BRANCH   7   8
ATOM      8  CA  ALA A   1     -10.833  16.025  66.953  0.00  0.00    +0.149 C 
ATOM      9  CB  ALA A   1      -9.508  16.978  66.722  0.00  0.00    +0.029 C 
BRANCH   8  10
ATOM     10  C   ALA A   1     -10.133  14.758  66.239  0.00  0.00    +0.242 C 
ATOM     11  N   PRO A   2     -11.060  14.182  65.349  0.00  0.00    -0.270 N 
ATOM     12  CA  PRO A   2     -10.476  13.126  64.338  0.00  0.00    +0.179 C 
ATOM     13  CB  PRO A   2     -10.577  11.942  65.476  0.00  0.00    +0.033 C 
ATOM     14  CG  PRO A   2     -11.921  12.189  66.061  0.00  0.00    +0.024 C 
ATOM     15  CD  PRO A   2     -12.282  13.622  65.845  0.00  0.00    +0.094 C 
ATOM     16  O   ALA A   1      -8.913  14.692  66.212  0.00  0.00    -0.273 OA
BRANCH  12  17
ATOM     17  C   PRO A   2     -11.922  12.798  63.702  0.00  0.00    +0.382 C 
ATOM     18  OXT PRO A   2     -12.588  13.921  63.233  0.00  0.00    -0.244 OA
ATOM     19  O   PRO A   2     -12.127  11.657  63.299  0.00  0.00    -0.244 OA
ENDBRANCH  12  17
ENDBRANCH   8  10
ENDBRANCH   7   8
ENDBRANCH   1   7
BRANCH   1  20
ATOM     20  C   UNK A   0     -10.943  13.522  69.514  0.00  0.00    +0.033 C 
BRANCH  20  21
ATOM     21  C   UNK A   0     -12.155  12.627  69.743  0.00  0.00    +0.028 C 
BRANCH  21  22
ATOM     22  C   UNK A   0     -11.777  11.178  69.745  0.00  0.00    -0.022 A 
ATOM     23  C   UNK A   0     -10.524  10.939  69.190  0.00  0.00    -0.004 A 
ATOM     24  C   UNK A   0      -9.688   9.941  69.630  0.00  0.00    -0.000 A 
ATOM     25  C   UNK A   0      -9.980   9.285  70.812  0.00  0.00    -0.000 A 
ATOM     26  C   UNK A   0     -11.264   9.388  71.306  0.00  0.00    -0.000 A 
ATOM     27  C   UNK A   0     -12.087  10.386  70.846  0.00  0.00    -0.004 A 
ENDBRANCH  21  22
ENDBRANCH  20  21
ENDBRANCH   1  20
TORSDOF 10
ENDMDL
MODEL 8
REMARK VINA RESULT:      -6.5      1.526      2.052
REMARK  Name = 
REMARK  10 active torsions:
REMARK  status: ('A' for Active; 'I' for Inactive)
REMARK    1  A    between atoms: C_2  and  O_3
REMARK    2  A    between atoms: O_3  and  C_4
REMARK    3  A    between atoms: C_4  and  C_6
REMARK    4  A    between atoms: C_6  and  C_7
REMARK    5  A    between atoms: C_6  and  N_15
REMARK    6  A    between atoms: C_7  and  C_8
REMARK    7  A    between atoms: C_8  and  C_9
REMARK    8  A    between atoms: N_15  and  CA_16
REMARK    9  A    between atoms: CA_16  and  C_18
REMARK   10  A    between atoms: CA_24  and  C_25
REMARK                            x       y       z     vdW  Elec       q    Type
REMARK                         _______ _______ _______ _____ _____    ______ ____
ROOT
ATOM      1  C   UNK A   0     -10.870  13.710  65.947  0.00  0.00    +0.172 C 
ENDROOT
BRANCH   1   2
ATOM      2  C   UNK A   0     -12.056  13.499  64.878  0.00  0.00    +0.333 C 
ATOM      3  O   UNK A   0     -13.178  13.914  65.165  0.00  0.00    -0.249 OA
BRANCH   2   4
ATOM      4  O   UNK A   0     -11.915  12.284  64.195  0.00  0.00    -0.448 OA
BRANCH   4   6
ATOM      5  C   UNK A   0     -10.201  10.945  63.451  0.00  0.00    +0.051 C 
ATOM      6  C   UNK A   0     -10.663  12.112  63.560  0.00  0.00    +0.209 C 
ENDBRANCH   4   6
ENDBRANCH   2   4
ENDBRANCH   1   2
BRANCH   1   7
ATOM      7  N   ALA A   1     -11.253  15.217  66.133  0.00  0.00    -0.201 NA
BRANCH   7   8
ATOM      8  CA  ALA A   1     -10.153  15.773  67.106  0.00  0.00    +0.149 C 
ATOM      9  CB  ALA A   1      -8.834  15.248  66.269  0.00  0.00    +0.029 C 
BRANCH   8  10
ATOM     10  C   ALA A   1     -10.146  17.203  66.358  0.00  0.00    +0.242 C 
ATOM     11  N   PRO A   2      -9.159  18.011  66.954  0.00  0.00    -0.270 N 
ATOM     12  CA  PRO A   2      -8.788  19.329  66.176  0.00  0.00    +0.179 C 
ATOM     13  CB  PRO A   2     -10.073  20.113  66.841  0.00  0.00    +0.033 C 
ATOM     14  CG  PRO A   2      -9.992  19.689  68.263  0.00  0.00    +0.024 C 
ATOM     15  CD  PRO A   2      -9.269  18.383  68.333  0.00  0.00    +0.094 C 
ATOM     16  O   ALA A   1     -10.618  17.286  65.234  0.00  0.00    -0.273 OA
BRANCH  12  17
ATOM     17  C   PRO A   2      -7.753  19.819  67.312  0.00  0.00    +0.382 C 
ATOM     18  OXT PRO A   2      -6.785  18.875  67.623  0.00  0.00    -0.244 OA
ATOM     19  O   PRO A   2      -7.618  21.027  67.484  0.00  0.00    -0.244 OA
ENDBRANCH  12  17
ENDBRANCH   8  10
ENDBRANCH   7   8
ENDBRANCH   1   7
BRANCH   1  20
ATOM     20  C   UNK A   0     -11.792  13.245  67.230  0.00  0.00    +0.033 C 
BRANCH  20  21
ATOM     21  C   UNK A   0     -11.137  11.884  67.430  0.00  0.00    +0.028 C 
BRANCH  21  22
ATOM     22  C   UNK A   0     -10.917  11.586  68.881  0.00  0.00    -0.022 A 
ATOM     23  C   UNK A   0     -12.001  11.935  69.681  0.00  0.00    -0.004 A 
ATOM     24  C   UNK A   0     -12.359  11.232  70.806  0.00  0.00    -0.000 A 
ATOM     25  C   UNK A   0     -11.781   9.999  71.046  0.00  0.00    -0.000 A 
ATOM     26  C   UNK A   0     -10.618   9.690  70.370  0.00  0.00    -0.000 A 
ATOM     27  C   UNK A   0     -10.273  10.411  69.255  0.00  0.00    -0.004 A 
ENDBRANCH  21  22
ENDBRANCH  20  21
ENDBRANCH   1  20
TORSDOF 10
ENDMDL
MODEL 9
REMARK VINA RESULT:      -6.3      1.901      4.812
REMARK  Name = 
REMARK  10 active torsions:
REMARK  status: ('A' for Active; 'I' for Inactive)
REMARK    1  A    between atoms: C_2  and  O_3
REMARK    2  A    between atoms: O_3  and  C_4
REMARK    3  A    between atoms: C_4  and  C_6
REMARK    4  A    between atoms: C_6  and  C_7
REMARK    5  A    between atoms: C_6  and  N_15
REMARK    6  A    between atoms: C_7  and  C_8
REMARK    7  A    between atoms: C_8  and  C_9
REMARK    8  A    between atoms: N_15  and  CA_16
REMARK    9  A    between atoms: CA_16  and  C_18
REMARK   10  A    between atoms: CA_24  and  C_25
REMARK                            x       y       z     vdW  Elec       q    Type
REMARK                         _______ _______ _______ _____ _____    ______ ____
ROOT
ATOM      1  C   UNK A   0     -11.714  15.378  68.354  0.00  0.00    +0.172 C 
ENDROOT
BRANCH   1   2
ATOM      2  C   UNK A   0     -11.756  15.103  69.941  0.00  0.00    +0.333 C 
ATOM      3  O   UNK A   0     -11.601  13.948  70.335  0.00  0.00    -0.249 OA
BRANCH   2   4
ATOM      4  O   UNK A   0     -12.681  15.939  70.578  0.00  0.00    -0.448 OA
BRANCH   4   6
ATOM      5  C   UNK A   0     -14.595  15.176  71.599  0.00  0.00    +0.051 C 
ATOM      6  C   UNK A   0     -13.349  15.345  71.674  0.00  0.00    +0.209 C 
ENDBRANCH   4   6
ENDBRANCH   2   4
ENDBRANCH   1   2
BRANCH   1   7
ATOM      7  N   ALA A   1     -10.179  15.074  68.303  0.00  0.00    -0.201 NA
BRANCH   7   8
ATOM      8  CA  ALA A   1      -9.526  16.269  69.084  0.00  0.00    +0.149 C 
ATOM      9  CB  ALA A   1      -8.034  15.602  69.298  0.00  0.00    +0.029 C 
BRANCH   8  10
ATOM     10  C   ALA A   1      -9.084  16.989  67.709  0.00  0.00    +0.242 C 
ATOM     11  N   PRO A   2      -8.458  18.210  68.027  0.00  0.00    -0.270 N 
ATOM     12  CA  PRO A   2      -7.689  18.915  66.849  0.00  0.00    +0.179 C 
ATOM     13  CB  PRO A   2      -9.090  19.582  66.300  0.00  0.00    +0.033 C 
ATOM     14  CG  PRO A   2      -9.722  20.055  67.559  0.00  0.00    +0.024 C 
ATOM     15  CD  PRO A   2      -9.192  19.242  68.695  0.00  0.00    +0.094 C 
ATOM     16  O   ALA A   1      -8.957  16.312  66.700  0.00  0.00    -0.273 OA
BRANCH  12  17
ATOM     17  C   PRO A   2      -7.296  20.196  67.748  0.00  0.00    +0.382 C 
ATOM     18  OXT PRO A   2      -6.631  19.866  68.920  0.00  0.00    -0.244 OA
ATOM     19  O   PRO A   2      -7.210  21.286  67.190  0.00  0.00    -0.244 OA
ENDBRANCH  12  17
ENDBRANCH   8  10
ENDBRANCH   7   8
ENDBRANCH   1   7
BRANCH   1  20
ATOM     20  C   UNK A   0     -12.105  13.827  67.962  0.00  0.00    +0.033 C 
BRANCH  20  21
ATOM     21  C   UNK A   0     -11.934  13.981  66.456  0.00  0.00    +0.028 C 
BRANCH  21  22
ATOM     22  C   UNK A   0     -11.893  12.651  65.767  0.00  0.00    -0.022 A 
ATOM     23  C   UNK A   0     -12.496  12.668  64.513  0.00  0.00    -0.004 A 
ATOM     24  C   UNK A   0     -12.057  11.899  63.461  0.00  0.00    -0.000 A 
ATOM     25  C   UNK A   0     -10.839  11.252  63.558  0.00  0.00    -0.000 A 
ATOM     26  C   UNK A   0     -10.291  11.093  64.814  0.00  0.00    -0.000 A 
ATOM     27  C   UNK A   0     -10.751  11.863  65.853  0.00  0.00    -0.004 A 
ENDBRANCH  21  22
ENDBRANCH  20  21
ENDBRANCH   1  20
TORSDOF 10
ENDMDL
