MODEL 1
REMARK VINA RESULT:      -8.7      0.000      0.000
REMARK  Name = 
REMARK  6 active torsions:
REMARK  status: ('A' for Active; 'I' for Inactive)
REMARK    1  A    between atoms: C_5  and  C_6
REMARK    2  A    between atoms: N_8  and  C_9
REMARK    3  A    between atoms: C_9  and  C_12
REMARK    4  A    between atoms: C_14  and  C_15
REMARK    5  A    between atoms: N_17  and  C_18
REMARK    6  A    between atoms: C_18  and  C_19
REMARK                            x       y       z     vdW  Elec       q    Type
REMARK                         _______ _______ _______ _____ _____    ______ ____
ROOT
ATOM      1  C   UNL     1     -10.388  14.810  67.341  0.00  0.00    +0.141 A 
ATOM      2  N   UNL     1     -11.075  14.186  66.384  0.00  0.00    -0.278 N 
ATOM      3  C   UNL     1     -11.859  13.015  66.745  0.00  0.00    +0.135 C 
ATOM      4  C   UNL     1     -11.201  14.771  65.182  0.00  0.00    +0.303 A 
ATOM      5  O   UNL     1     -11.674  14.096  64.219  0.00  0.00    -0.263 OA
ATOM      6  C   UNL     1     -10.950  16.128  65.033  0.00  0.00    +0.273 A 
ATOM      7  O   UNL     1     -11.483  16.832  63.950  0.00  0.00    -0.280 OA
ATOM      8  C   UNL     1     -10.408  16.825  66.105  0.00  0.00    +0.183 A 
ATOM      9  N   UNL     1      -9.946  16.047  67.113  0.00  0.00    -0.222 NA
ENDROOT
BRANCH   1  10
ATOM     10  C   UNL     1     -10.098  14.205  68.678  0.00  0.00    +0.129 C 
ATOM     11  C   UNL     1      -9.247  15.212  69.420  0.00  0.00    +0.029 C 
ATOM     12  C   UNL     1      -9.241  12.980  68.385  0.00  0.00    +0.029 C 
BRANCH  10  14
ATOM     13  C   UNL     1     -12.238  14.811  69.880  0.00  0.00    +0.320 C 
ATOM     14  N   UNL     1     -11.302  13.860  69.395  0.00  0.00    -0.194 NA
ATOM     15  O   UNL     1     -12.274  15.926  69.290  0.00  0.00    -0.263 OA
BRANCH  13  19
ATOM     16  C   UNL     1     -12.409  15.830  74.660  0.00  0.00    +0.097 C 
ATOM     17  C   UNL     1     -12.778  15.225  73.354  0.00  0.00    +0.227 A 
ATOM     18  O   UNL     1     -12.229  15.540  72.196  0.00  0.00    -0.416 OA
ATOM     19  C   UNL     1     -12.766  14.790  71.249  0.00  0.00    +0.306 A 
ATOM     20  N   UNL     1     -13.300  13.748  71.929  0.00  0.00    -0.102 NA
ATOM     21  N   UNL     1     -13.206  13.967  73.224  0.00  0.00    -0.111 NA
ENDBRANCH  13  19
ENDBRANCH  10  14
ENDBRANCH   1  10
BRANCH   8  22
ATOM     22  C   UNL     1     -10.726  18.247  66.311  0.00  0.00    +0.296 C 
ATOM     23  N   UNL     1     -10.736  18.783  67.482  0.00  0.00    -0.228 NA
ATOM     24  O   UNL     1     -10.356  19.093  65.259  0.00  0.00    -0.264 OA
BRANCH  23  25
ATOM     25  C   UNL     1      -9.989  19.994  67.813  0.00  0.00    +0.155 C 
BRANCH  25  26
ATOM     26  C   UNL     1      -8.525  19.748  67.843  0.00  0.00    +0.002 A 
ATOM     27  C   UNL     1      -8.030  18.845  68.751  0.00  0.00    -0.000 A 
ATOM     28  C   UNL     1      -6.714  18.978  69.175  0.00  0.00    +0.029 A 
ATOM     29  C   UNL     1      -5.923  19.992  68.664  0.00  0.00    +0.140 A 
ATOM     30  F   UNL     1      -4.716  20.322  69.197  0.00  0.00    -0.204 F 
ATOM     31  C   UNL     1      -6.337  20.626  67.509  0.00  0.00    +0.029 A 
ATOM     32  C   UNL     1      -7.686  20.666  67.254  0.00  0.00    -0.000 A 
ENDBRANCH  25  26
ENDBRANCH  23  25
ENDBRANCH   8  22
TORSDOF 6
ENDMDL
MODEL 2
REMARK VINA RESULT:      -8.6      3.229      6.976
REMARK  Name = 
REMARK  6 active torsions:
REMARK  status: ('A' for Active; 'I' for Inactive)
REMARK    1  A    between atoms: C_5  and  C_6
REMARK    2  A    between atoms: N_8  and  C_9
REMARK    3  A    between atoms: C_9  and  C_12
REMARK    4  A    between atoms: C_14  and  C_15
REMARK    5  A    between atoms: N_17  and  C_18
REMARK    6  A    between atoms: C_18  and  C_19
REMARK                            x       y       z     vdW  Elec       q    Type
REMARK                         _______ _______ _______ _____ _____    ______ ____
ROOT
ATOM      1  C   UNL     1     -11.200  11.856  65.802  0.00  0.00    +0.141 A 
ATOM      2  N   UNL     1     -10.276  11.002  65.362  0.00  0.00    -0.278 N 
ATOM      3  C   UNL     1      -9.354  11.451  64.330  0.00  0.00    +0.135 C 
ATOM      4  C   UNL     1     -10.080   9.851  66.025  0.00  0.00    +0.303 A 
ATOM      5  O   UNL     1      -9.353   8.957  65.498  0.00  0.00    -0.263 OA
ATOM      6  C   UNL     1     -10.549   9.701  67.323  0.00  0.00    +0.273 A 
ATOM      7  O   UNL     1      -9.998   8.734  68.168  0.00  0.00    -0.280 OA
ATOM      8  C   UNL     1     -11.364  10.693  67.854  0.00  0.00    +0.183 A 
ATOM      9  N   UNL     1     -11.822  11.595  66.953  0.00  0.00    -0.222 NA
ENDROOT
BRANCH   1  10
ATOM     10  C   UNL     1     -11.571  13.115  65.084  0.00  0.00    +0.129 C 
ATOM     11  C   UNL     1     -12.836  13.619  65.744  0.00  0.00    +0.029 C 
ATOM     12  C   UNL     1     -11.916  12.678  63.665  0.00  0.00    +0.029 C 
BRANCH  10  14
ATOM     13  C   UNL     1     -10.196  14.904  66.223  0.00  0.00    +0.320 C 
ATOM     14  N   UNL     1     -10.508  14.089  65.103  0.00  0.00    -0.194 NA
ATOM     15  O   UNL     1     -10.532  14.464  67.357  0.00  0.00    -0.263 OA
BRANCH  13  19
ATOM     16  C   UNL     1      -9.731  19.503  67.822  0.00  0.00    +0.097 C 
ATOM     17  C   UNL     1      -9.843  18.366  66.871  0.00  0.00    +0.227 A 
ATOM     18  O   UNL     1      -9.850  17.093  67.216  0.00  0.00    -0.416 OA
ATOM     19  C   UNL     1      -9.998  16.355  66.129  0.00  0.00    +0.306 A 
ATOM     20  N   UNL     1     -10.516  17.217  65.223  0.00  0.00    -0.102 NA
ATOM     21  N   UNL     1     -10.523  18.436  65.724  0.00  0.00    -0.111 NA
ENDBRANCH  13  19
ENDBRANCH  10  14
ENDBRANCH   1  10
BRANCH   8  22
ATOM     22  C   UNL     1     -11.345  10.984  69.296  0.00  0.00    +0.296 C 
ATOM     23  N   UNL     1     -11.691  12.132  69.766  0.00  0.00    -0.228 NA
ATOM     24  O   UNL     1     -11.605   9.886  70.124  0.00  0.00    -0.264 OA
BRANCH  23  25
ATOM     25  C   UNL     1     -12.686  12.296  70.823  0.00  0.00    +0.155 C 
BRANCH  25  26
ATOM     26  C   UNL     1     -12.822  13.714  71.238  0.00  0.00    +0.002 A 
ATOM     27  C   UNL     1     -12.120  14.671  70.546  0.00  0.00    -0.000 A 
ATOM     28  C   UNL     1     -11.793  15.857  71.191  0.00  0.00    +0.029 A 
ATOM     29  C   UNL     1     -12.196  16.065  72.498  0.00  0.00    +0.140 A 
ATOM     30  F   UNL     1     -11.722  17.087  73.260  0.00  0.00    -0.204 F 
ATOM     31  C   UNL     1     -13.193  15.258  73.014  0.00  0.00    +0.029 A 
ATOM     32  C   UNL     1     -13.321  13.995  72.489  0.00  0.00    -0.000 A 
ENDBRANCH  25  26
ENDBRANCH  23  25
ENDBRANCH   8  22
TORSDOF 6
ENDMDL
MODEL 3
REMARK VINA RESULT:      -8.5      3.574      5.317
REMARK  Name = 
REMARK  6 active torsions:
REMARK  status: ('A' for Active; 'I' for Inactive)
REMARK    1  A    between atoms: C_5  and  C_6
REMARK    2  A    between atoms: N_8  and  C_9
REMARK    3  A    between atoms: C_9  and  C_12
REMARK    4  A    between atoms: C_14  and  C_15
REMARK    5  A    between atoms: N_17  and  C_18
REMARK    6  A    between atoms: C_18  and  C_19
REMARK                            x       y       z     vdW  Elec       q    Type
REMARK                         _______ _______ _______ _____ _____    ______ ____
ROOT
ATOM      1  C   UNL     1     -10.329  14.188  65.988  0.00  0.00    +0.141 A 
ATOM      2  N   UNL     1     -11.075  14.739  65.030  0.00  0.00    -0.278 N 
ATOM      3  C   UNL     1     -12.088  13.919  64.383  0.00  0.00    +0.135 C 
ATOM      4  C   UNL     1     -11.025  16.068  64.845  0.00  0.00    +0.303 A 
ATOM      5  O   UNL     1     -11.570  16.564  63.814  0.00  0.00    -0.263 OA
ATOM      6  C   UNL     1     -10.508  16.894  65.834  0.00  0.00    +0.273 A 
ATOM      7  O   UNL     1     -10.839  18.252  65.867  0.00  0.00    -0.280 OA
ATOM      8  C   UNL     1      -9.896  16.311  66.935  0.00  0.00    +0.183 A 
ATOM      9  N   UNL     1      -9.645  14.985  66.810  0.00  0.00    -0.222 NA
ENDROOT
BRANCH   1  10
ATOM     10  C   UNL     1     -10.230  12.712  66.212  0.00  0.00    +0.129 C 
ATOM     11  C   UNL     1      -8.922  12.483  66.937  0.00  0.00    +0.029 C 
ATOM     12  C   UNL     1     -10.117  12.104  64.819  0.00  0.00    +0.029 C 
BRANCH  10  14
ATOM     13  C   UNL     1     -11.488  12.224  68.350  0.00  0.00    +0.320 C 
ATOM     14  N   UNL     1     -11.365  12.191  66.936  0.00  0.00    -0.194 NA
ATOM     15  O   UNL     1     -10.838  13.118  68.957  0.00  0.00    -0.263 OA
BRANCH  13  19
ATOM     16  C   UNL     1     -13.357   9.779  72.151  0.00  0.00    +0.097 C 
ATOM     17  C   UNL     1     -12.665  10.021  70.858  0.00  0.00    +0.227 A 
ATOM     18  O   UNL     1     -12.586  11.191  70.253  0.00  0.00    -0.416 OA
ATOM     19  C   UNL     1     -11.873  11.055  69.148  0.00  0.00    +0.306 A 
ATOM     20  N   UNL     1     -11.179   9.910  69.352  0.00  0.00    -0.102 NA
ATOM     21  N   UNL     1     -11.590   9.334  70.463  0.00  0.00    -0.111 NA
ENDBRANCH  13  19
ENDBRANCH  10  14
ENDBRANCH   1  10
BRANCH   8  22
ATOM     22  C   UNL     1      -9.943  16.965  68.252  0.00  0.00    +0.296 C 
ATOM     23  N   UNL     1     -10.887  16.735  69.098  0.00  0.00    -0.228 NA
ATOM     24  O   UNL     1      -8.693  17.269  68.805  0.00  0.00    -0.264 OA
BRANCH  23  25
ATOM     25  C   UNL     1     -10.640  16.339  70.482  0.00  0.00    +0.155 C 
BRANCH  25  26
ATOM     26  C   UNL     1     -11.885  15.901  71.161  0.00  0.00    +0.002 A 
ATOM     27  C   UNL     1     -11.857  15.702  72.519  0.00  0.00    -0.000 A 
ATOM     28  C   UNL     1     -12.770  14.821  73.083  0.00  0.00    +0.029 A 
ATOM     29  C   UNL     1     -13.700  14.182  72.281  0.00  0.00    +0.140 A 
ATOM     30  F   UNL     1     -14.461  13.145  72.721  0.00  0.00    -0.204 F 
ATOM     31  C   UNL     1     -13.928  14.684  71.014  0.00  0.00    +0.029 A 
ATOM     32  C   UNL     1     -12.897  15.357  70.404  0.00  0.00    -0.000 A 
ENDBRANCH  25  26
ENDBRANCH  23  25
ENDBRANCH   8  22
TORSDOF 6
ENDMDL
MODEL 4
REMARK VINA RESULT:      -8.4      4.020      7.487
REMARK  Name = 
REMARK  6 active torsions:
REMARK  status: ('A' for Active; 'I' for Inactive)
REMARK    1  A    between atoms: C_5  and  C_6
REMARK    2  A    between atoms: N_8  and  C_9
REMARK    3  A    between atoms: C_9  and  C_12
REMARK    4  A    between atoms: C_14  and  C_15
REMARK    5  A    between atoms: N_17  and  C_18
REMARK    6  A    between atoms: C_18  and  C_19
REMARK                            x       y       z     vdW  Elec       q    Type
REMARK                         _______ _______ _______ _____ _____    ______ ____
ROOT
ATOM      1  C   UNL     1     -10.437  14.037  65.951  0.00  0.00    +0.141 A 
ATOM      2  N   UNL     1     -11.128  14.636  64.980  0.00  0.00    -0.278 N 
ATOM      3  C   UNL     1     -12.180  13.884  64.314  0.00  0.00    +0.135 C 
ATOM      4  C   UNL     1     -10.987  15.959  64.798  0.00  0.00    +0.303 A 
ATOM      5  O   UNL     1     -11.480  16.489  63.758  0.00  0.00    -0.263 OA
ATOM      6  C   UNL     1     -10.437  16.750  65.796  0.00  0.00    +0.273 A 
ATOM      7  O   UNL     1     -10.679  18.126  65.825  0.00  0.00    -0.280 OA
ATOM      8  C   UNL     1      -9.884  16.128  66.909  0.00  0.00    +0.183 A 
ATOM      9  N   UNL     1      -9.717  14.788  66.786  0.00  0.00    -0.222 NA
ENDROOT
BRANCH   1  10
ATOM     10  C   UNL     1     -10.439  12.558  66.175  0.00  0.00    +0.129 C 
ATOM     11  C   UNL     1     -11.636  12.268  67.054  0.00  0.00    +0.029 C 
ATOM     12  C   UNL     1      -9.176  12.275  66.980  0.00  0.00    +0.029 C 
BRANCH  10  14
ATOM     13  C   UNL     1     -10.174  10.432  64.834  0.00  0.00    +0.320 C 
ATOM     14  N   UNL     1     -10.466  11.818  64.937  0.00  0.00    -0.194 NA
ATOM     15  O   UNL     1     -10.347   9.735  65.872  0.00  0.00    -0.263 OA
BRANCH  13  19
ATOM     16  C   UNL     1      -8.714   8.842  60.445  0.00  0.00    +0.097 C 
ATOM     17  C   UNL     1      -8.668   9.148  61.899  0.00  0.00    +0.227 A 
ATOM     18  O   UNL     1      -9.594   9.820  62.557  0.00  0.00    -0.416 OA
ATOM     19  C   UNL     1      -9.255   9.879  63.834  0.00  0.00    +0.306 A 
ATOM     20  N   UNL     1      -8.366   8.867  63.977  0.00  0.00    -0.102 NA
ATOM     21  N   UNL     1      -8.092   8.346  62.798  0.00  0.00    -0.111 NA
ENDBRANCH  13  19
ENDBRANCH  10  14
ENDBRANCH   1  10
BRANCH   8  22
ATOM     22  C   UNL     1      -9.912  16.784  68.225  0.00  0.00    +0.296 C 
ATOM     23  N   UNL     1     -10.989  16.864  68.927  0.00  0.00    -0.228 NA
ATOM     24  O   UNL     1      -8.719  16.701  68.951  0.00  0.00    -0.264 OA
BRANCH  23  25
ATOM     25  C   UNL     1     -11.068  16.432  70.320  0.00  0.00    +0.155 C 
BRANCH  25  26
ATOM     26  C   UNL     1     -12.033  15.318  70.498  0.00  0.00    +0.002 A 
ATOM     27  C   UNL     1     -13.135  15.525  71.292  0.00  0.00    -0.000 A 
ATOM     28  C   UNL     1     -13.733  14.429  71.901  0.00  0.00    +0.029 A 
ATOM     29  C   UNL     1     -13.232  13.158  71.682  0.00  0.00    +0.140 A 
ATOM     30  F   UNL     1     -13.615  12.080  72.416  0.00  0.00    -0.204 F 
ATOM     31  C   UNL     1     -12.382  12.965  70.610  0.00  0.00    +0.029 A 
ATOM     32  C   UNL     1     -11.633  14.038  70.192  0.00  0.00    -0.000 A 
ENDBRANCH  25  26
ENDBRANCH  23  25
ENDBRANCH   8  22
TORSDOF 6
ENDMDL
MODEL 5
REMARK VINA RESULT:      -8.3      2.358      2.866
REMARK  Name = 
REMARK  6 active torsions:
REMARK  status: ('A' for Active; 'I' for Inactive)
REMARK    1  A    between atoms: C_5  and  C_6
REMARK    2  A    between atoms: N_8  and  C_9
REMARK    3  A    between atoms: C_9  and  C_12
REMARK    4  A    between atoms: C_14  and  C_15
REMARK    5  A    between atoms: N_17  and  C_18
REMARK    6  A    between atoms: C_18  and  C_19
REMARK                            x       y       z     vdW  Elec       q    Type
REMARK                         _______ _______ _______ _____ _____    ______ ____
ROOT
ATOM      1  C   UNL     1     -10.403  13.475  66.054  0.00  0.00    +0.141 A 
ATOM      2  N   UNL     1     -11.462  13.654  65.263  0.00  0.00    -0.278 N 
ATOM      3  C   UNL     1     -12.564  12.710  65.359  0.00  0.00    +0.135 C 
ATOM      4  C   UNL     1     -11.578  14.801  64.575  0.00  0.00    +0.303 A 
ATOM      5  O   UNL     1     -12.468  14.888  63.678  0.00  0.00    -0.263 OA
ATOM      6  C   UNL     1     -10.832  15.914  64.936  0.00  0.00    +0.273 A 
ATOM      7  O   UNL     1     -11.238  17.195  64.551  0.00  0.00    -0.280 OA
ATOM      8  C   UNL     1      -9.849  15.770  65.906  0.00  0.00    +0.183 A 
ATOM      9  N   UNL     1      -9.551  14.487  66.226  0.00  0.00    -0.222 NA
ENDROOT
BRANCH   1  10
ATOM     10  C   UNL     1     -10.122  12.200  66.783  0.00  0.00    +0.129 C 
ATOM     11  C   UNL     1      -8.864  12.444  67.588  0.00  0.00    +0.029 C 
ATOM     12  C   UNL     1      -9.801  11.181  65.696  0.00  0.00    +0.029 C 
BRANCH  10  14
ATOM     13  C   UNL     1     -11.628  12.433  68.801  0.00  0.00    +0.320 C 
ATOM     14  N   UNL     1     -11.234  11.782  67.602  0.00  0.00    -0.194 NA
ATOM     15  O   UNL     1     -11.312  13.650  68.916  0.00  0.00    -0.263 OA
BRANCH  13  19
ATOM     16  C   UNL     1     -12.604   8.602  71.678  0.00  0.00    +0.097 C 
ATOM     17  C   UNL     1     -12.370  10.013  71.274  0.00  0.00    +0.227 A 
ATOM     18  O   UNL     1     -11.970  10.396  70.076  0.00  0.00    -0.416 OA
ATOM     19  C   UNL     1     -11.896  11.716  70.052  0.00  0.00    +0.306 A 
ATOM     20  N   UNL     1     -12.674  12.101  71.091  0.00  0.00    -0.102 NA
ATOM     21  N   UNL     1     -13.055  11.042  71.776  0.00  0.00    -0.111 NA
ENDBRANCH  13  19
ENDBRANCH  10  14
ENDBRANCH   1  10
BRANCH   8  22
ATOM     22  C   UNL     1      -9.511  16.886  66.803  0.00  0.00    +0.296 C 
ATOM     23  N   UNL     1      -8.607  17.753  66.505  0.00  0.00    -0.228 NA
ATOM     24  O   UNL     1     -10.573  17.360  67.581  0.00  0.00    -0.264 OA
BRANCH  23  25
ATOM     25  C   UNL     1      -8.843  19.195  66.530  0.00  0.00    +0.155 C 
BRANCH  25  26
ATOM     26  C   UNL     1      -7.931  19.886  67.476  0.00  0.00    +0.002 A 
ATOM     27  C   UNL     1      -7.061  20.825  66.980  0.00  0.00    -0.000 A 
ATOM     28  C   UNL     1      -5.886  21.081  67.677  0.00  0.00    +0.029 A 
ATOM     29  C   UNL     1      -5.625  20.410  68.859  0.00  0.00    +0.140 A 
ATOM     30  F   UNL     1      -4.409  20.437  69.466  0.00  0.00    -0.204 F 
ATOM     31  C   UNL     1      -6.672  19.771  69.495  0.00  0.00    +0.029 A 
ATOM     32  C   UNL     1      -7.713  19.328  68.714  0.00  0.00    -0.000 A 
ENDBRANCH  25  26
ENDBRANCH  23  25
ENDBRANCH   8  22
TORSDOF 6
ENDMDL
MODEL 6
REMARK VINA RESULT:      -7.9      5.100      8.875
REMARK  Name = 
REMARK  6 active torsions:
REMARK  status: ('A' for Active; 'I' for Inactive)
REMARK    1  A    between atoms: C_5  and  C_6
REMARK    2  A    between atoms: N_8  and  C_9
REMARK    3  A    between atoms: C_9  and  C_12
REMARK    4  A    between atoms: C_14  and  C_15
REMARK    5  A    between atoms: N_17  and  C_18
REMARK    6  A    between atoms: C_18  and  C_19
REMARK                            x       y       z     vdW  Elec       q    Type
REMARK                         _______ _______ _______ _____ _____    ______ ____
ROOT
ATOM      1  C   UNL     1     -11.197  12.003  65.387  0.00  0.00    +0.141 A 
ATOM      2  N   UNL     1     -10.375  11.205  64.706  0.00  0.00    -0.278 N 
ATOM      3  C   UNL     1      -9.699  11.744  63.535  0.00  0.00    +0.135 C 
ATOM      4  C   UNL     1     -10.027  10.021  65.234  0.00  0.00    +0.303 A 
ATOM      5  O   UNL     1      -9.415   9.182  64.507  0.00  0.00    -0.263 OA
ATOM      6  C   UNL     1     -10.208   9.776  66.588  0.00  0.00    +0.273 A 
ATOM      7  O   UNL     1      -9.477   8.774  67.232  0.00  0.00    -0.280 OA
ATOM      8  C   UNL     1     -10.906  10.709  67.345  0.00  0.00    +0.183 A 
ATOM      9  N   UNL     1     -11.558  11.653  66.623  0.00  0.00    -0.222 NA
ENDROOT
BRANCH   1  10
ATOM     10  C   UNL     1     -11.730  13.294  64.849  0.00  0.00    +0.129 C 
ATOM     11  C   UNL     1     -12.847  13.708  65.781  0.00  0.00    +0.029 C 
ATOM     12  C   UNL     1     -12.341  12.941  63.498  0.00  0.00    +0.029 C 
BRANCH  10  14
ATOM     13  C   UNL     1     -10.083  14.939  65.835  0.00  0.00    +0.320 C 
ATOM     14  N   UNL     1     -10.704  14.301  64.729  0.00  0.00    -0.194 NA
ATOM     15  O   UNL     1     -10.079  14.308  66.927  0.00  0.00    -0.263 OA
BRANCH  13  19
ATOM     16  C   UNL     1      -9.533  19.276  68.027  0.00  0.00    +0.097 C 
ATOM     17  C   UNL     1      -9.722  18.283  66.937  0.00  0.00    +0.227 A 
ATOM     18  O   UNL     1      -9.673  16.974  67.094  0.00  0.00    -0.416 OA
ATOM     19  C   UNL     1      -9.917  16.393  65.932  0.00  0.00    +0.306 A 
ATOM     20  N   UNL     1     -10.536  17.360  65.213  0.00  0.00    -0.102 NA
ATOM     21  N   UNL     1     -10.513  18.494  65.882  0.00  0.00    -0.111 NA
ENDBRANCH  13  19
ENDBRANCH  10  14
ENDBRANCH   1  10
BRANCH   8  22
ATOM     22  C   UNL     1     -10.587  10.910  68.767  0.00  0.00    +0.296 C 
ATOM     23  N   UNL     1     -11.305  10.402  69.707  0.00  0.00    -0.228 NA
ATOM     24  O   UNL     1      -9.224  11.050  69.052  0.00  0.00    -0.264 OA
BRANCH  23  25
ATOM     25  C   UNL     1     -10.749   9.592  70.789  0.00  0.00    +0.155 C 
BRANCH  25  26
ATOM     26  C   UNL     1     -11.803   8.835  71.508  0.00  0.00    +0.002 A 
ATOM     27  C   UNL     1     -11.707   7.466  71.562  0.00  0.00    -0.000 A 
ATOM     28  C   UNL     1     -12.868   6.721  71.726  0.00  0.00    +0.029 A 
ATOM     29  C   UNL     1     -14.088   7.363  71.856  0.00  0.00    +0.140 A 
ATOM     30  F   UNL     1     -15.276   6.705  71.787  0.00  0.00    -0.204 F 
ATOM     31  C   UNL     1     -14.090   8.710  72.164  0.00  0.00    +0.029 A 
ATOM     32  C   UNL     1     -13.004   9.453  71.768  0.00  0.00    -0.000 A 
ENDBRANCH  25  26
ENDBRANCH  23  25
ENDBRANCH   8  22
TORSDOF 6
ENDMDL
MODEL 7
REMARK VINA RESULT:      -7.8      2.301      2.692
REMARK  Name = 
REMARK  6 active torsions:
REMARK  status: ('A' for Active; 'I' for Inactive)
REMARK    1  A    between atoms: C_5  and  C_6
REMARK    2  A    between atoms: N_8  and  C_9
REMARK    3  A    between atoms: C_9  and  C_12
REMARK    4  A    between atoms: C_14  and  C_15
REMARK    5  A    between atoms: N_17  and  C_18
REMARK    6  A    between atoms: C_18  and  C_19
REMARK                            x       y       z     vdW  Elec       q    Type
REMARK                         _______ _______ _______ _____ _____    ______ ____
ROOT
ATOM      1  C   UNL     1     -10.357  13.681  66.293  0.00  0.00    +0.141 A 
ATOM      2  N   UNL     1     -11.312  13.496  65.380  0.00  0.00    -0.278 N 
ATOM      3  C   UNL     1     -12.216  12.367  65.543  0.00  0.00    +0.135 C 
ATOM      4  C   UNL     1     -11.551  14.461  64.478  0.00  0.00    +0.303 A 
ATOM      5  O   UNL     1     -12.309  14.207  63.496  0.00  0.00    -0.263 OA
ATOM      6  C   UNL     1     -11.088  15.752  64.693  0.00  0.00    +0.273 A 
ATOM      7  O   UNL     1     -11.675  16.834  64.032  0.00  0.00    -0.280 OA
ATOM      8  C   UNL     1     -10.238  15.983  65.767  0.00  0.00    +0.183 A 
ATOM      9  N   UNL     1      -9.746  14.865  66.354  0.00  0.00    -0.222 NA
ENDROOT
BRANCH   1  10
ATOM     10  C   UNL     1      -9.940  12.633  67.276  0.00  0.00    +0.129 C 
ATOM     11  C   UNL     1      -8.961  13.304  68.214  0.00  0.00    +0.029 C 
ATOM     12  C   UNL     1      -9.183  11.595  66.457  0.00  0.00    +0.029 C 
BRANCH  10  14
ATOM     13  C   UNL     1     -11.787  12.711  69.001  0.00  0.00    +0.320 C 
ATOM     14  N   UNL     1     -11.066  12.055  67.969  0.00  0.00    -0.194 NA
ATOM     15  O   UNL     1     -11.755  13.973  69.003  0.00  0.00    -0.263 OA
BRANCH  13  19
ATOM     16  C   UNL     1     -13.092   9.107  72.038  0.00  0.00    +0.097 C 
ATOM     17  C   UNL     1     -12.733  10.473  71.574  0.00  0.00    +0.227 A 
ATOM     18  O   UNL     1     -12.306  10.768  70.361  0.00  0.00    -0.416 OA
ATOM     19  C   UNL     1     -12.113  12.074  70.281  0.00  0.00    +0.306 A 
ATOM     20  N   UNL     1     -12.847  12.570  71.305  0.00  0.00    -0.102 NA
ATOM     21  N   UNL     1     -13.320  11.580  72.034  0.00  0.00    -0.111 NA
ENDBRANCH  13  19
ENDBRANCH  10  14
ENDBRANCH   1  10
BRANCH   8  22
ATOM     22  C   UNL     1     -10.247  17.279  66.464  0.00  0.00    +0.296 C 
ATOM     23  N   UNL     1     -10.218  17.365  67.749  0.00  0.00    -0.228 NA
ATOM     24  O   UNL     1      -9.628  18.326  65.771  0.00  0.00    -0.264 OA
BRANCH  23  25
ATOM     25  C   UNL     1      -9.246  18.181  68.473  0.00  0.00    +0.155 C 
BRANCH  25  26
ATOM     26  C   UNL     1      -7.891  17.576  68.447  0.00  0.00    +0.002 A 
ATOM     27  C   UNL     1      -7.699  16.369  69.073  0.00  0.00    -0.000 A 
ATOM     28  C   UNL     1      -6.427  16.049  69.529  0.00  0.00    +0.029 A 
ATOM     29  C   UNL     1      -5.379  16.930  69.327  0.00  0.00    +0.140 A 
ATOM     30  F   UNL     1      -4.173  16.792  69.941  0.00  0.00    -0.204 F 
ATOM     31  C   UNL     1      -5.537  17.932  68.389  0.00  0.00    +0.029 A 
ATOM     32  C   UNL     1      -6.814  18.376  68.144  0.00  0.00    -0.000 A 
ENDBRANCH  25  26
ENDBRANCH  23  25
ENDBRANCH   8  22
TORSDOF 6
ENDMDL
MODEL 8
REMARK VINA RESULT:      -7.8      4.025      7.289
REMARK  Name = 
REMARK  6 active torsions:
REMARK  status: ('A' for Active; 'I' for Inactive)
REMARK    1  A    between atoms: C_5  and  C_6
REMARK    2  A    between atoms: N_8  and  C_9
REMARK    3  A    between atoms: C_9  and  C_12
REMARK    4  A    between atoms: C_14  and  C_15
REMARK    5  A    between atoms: N_17  and  C_18
REMARK    6  A    between atoms: C_18  and  C_19
REMARK                            x       y       z     vdW  Elec       q    Type
REMARK                         _______ _______ _______ _____ _____    ______ ____
ROOT
ATOM      1  C   UNL     1      -8.505  17.639  67.442  0.00  0.00    +0.141 A 
ATOM      2  N   UNL     1      -8.277  18.668  68.259  0.00  0.00    -0.278 N 
ATOM      3  C   UNL     1      -9.419  19.381  68.811  0.00  0.00    +0.135 C 
ATOM      4  C   UNL     1      -7.032  18.876  68.718  0.00  0.00    +0.303 A 
ATOM      5  O   UNL     1      -6.776  19.959  69.323  0.00  0.00    -0.263 OA
ATOM      6  C   UNL     1      -6.083  17.865  68.654  0.00  0.00    +0.273 A 
ATOM      7  O   UNL     1      -4.965  17.888  69.491  0.00  0.00    -0.280 OA
ATOM      8  C   UNL     1      -6.395  16.704  67.958  0.00  0.00    +0.183 A 
ATOM      9  N   UNL     1      -7.515  16.780  67.198  0.00  0.00    -0.222 NA
ENDROOT
BRANCH   1  10
ATOM     10  C   UNL     1      -9.826  17.377  66.792  0.00  0.00    +0.129 C 
ATOM     11  C   UNL     1     -10.238  18.677  66.137  0.00  0.00    +0.029 C 
ATOM     12  C   UNL     1     -10.788  17.097  67.941  0.00  0.00    +0.029 C 
BRANCH  10  14
ATOM     13  C   UNL     1     -10.733  16.048  64.842  0.00  0.00    +0.320 C 
ATOM     14  N   UNL     1      -9.769  16.278  65.859  0.00  0.00    -0.194 NA
ATOM     15  O   UNL     1     -11.387  17.050  64.441  0.00  0.00    -0.263 OA
BRANCH  13  19
ATOM     16  C   UNL     1     -10.945  11.322  63.602  0.00  0.00    +0.097 C 
ATOM     17  C   UNL     1     -11.407  12.675  64.009  0.00  0.00    +0.227 A 
ATOM     18  O   UNL     1     -10.612  13.678  64.328  0.00  0.00    -0.416 OA
ATOM     19  C   UNL     1     -11.351  14.739  64.605  0.00  0.00    +0.306 A 
ATOM     20  N   UNL     1     -12.540  14.464  64.019  0.00  0.00    -0.102 NA
ATOM     21  N   UNL     1     -12.533  13.232  63.555  0.00  0.00    -0.111 NA
ENDBRANCH  13  19
ENDBRANCH  10  14
ENDBRANCH   1  10
BRANCH   8  22
ATOM     22  C   UNL     1      -5.830  15.409  68.370  0.00  0.00    +0.296 C 
ATOM     23  N   UNL     1      -6.469  14.597  69.138  0.00  0.00    -0.228 NA
ATOM     24  O   UNL     1      -4.973  14.815  67.436  0.00  0.00    -0.264 OA
BRANCH  23  25
ATOM     25  C   UNL     1      -6.694  13.192  68.804  0.00  0.00    +0.155 C 
BRANCH  25  26
ATOM     26  C   UNL     1      -7.960  13.001  68.053  0.00  0.00    +0.002 A 
ATOM     27  C   UNL     1      -9.033  13.799  68.360  0.00  0.00    -0.000 A 
ATOM     28  C   UNL     1     -10.313  13.327  68.100  0.00  0.00    +0.029 A 
ATOM     29  C   UNL     1     -10.485  12.082  67.520  0.00  0.00    +0.140 A 
ATOM     30  F   UNL     1     -11.694  11.464  67.450  0.00  0.00    -0.204 F 
ATOM     31  C   UNL     1      -9.400  11.492  66.901  0.00  0.00    +0.029 A 
ATOM     32  C   UNL     1      -8.149  11.827  67.360  0.00  0.00    -0.000 A 
ENDBRANCH  25  26
ENDBRANCH  23  25
ENDBRANCH   8  22
TORSDOF 6
ENDMDL
MODEL 9
REMARK VINA RESULT:      -7.7      3.987      6.640
REMARK  Name = 
REMARK  6 active torsions:
REMARK  status: ('A' for Active; 'I' for Inactive)
REMARK    1  A    between atoms: C_5  and  C_6
REMARK    2  A    between atoms: N_8  and  C_9
REMARK    3  A    between atoms: C_9  and  C_12
REMARK    4  A    between atoms: C_14  and  C_15
REMARK    5  A    between atoms: N_17  and  C_18
REMARK    6  A    between atoms: C_18  and  C_19
REMARK                            x       y       z     vdW  Elec       q    Type
REMARK                         _______ _______ _______ _____ _____    ______ ____
ROOT
ATOM      1  C   UNL     1      -8.692  17.681  67.670  0.00  0.00    +0.141 A 
ATOM      2  N   UNL     1      -7.955  16.824  68.377  0.00  0.00    -0.278 N 
ATOM      3  C   UNL     1      -8.241  15.402  68.259  0.00  0.00    +0.135 C 
ATOM      4  C   UNL     1      -6.848  17.267  68.993  0.00  0.00    +0.303 A 
ATOM      5  O   UNL     1      -6.263  16.509  69.823  0.00  0.00    -0.263 OA
ATOM      6  C   UNL     1      -6.276  18.477  68.624  0.00  0.00    +0.273 A 
ATOM      7  O   UNL     1      -4.935  18.745  68.911  0.00  0.00    -0.280 OA
ATOM      8  C   UNL     1      -6.961  19.290  67.730  0.00  0.00    +0.183 A 
ATOM      9  N   UNL     1      -8.247  18.926  67.501  0.00  0.00    -0.222 NA
ENDROOT
BRANCH   1  10
ATOM     10  C   UNL     1      -9.996  17.318  67.032  0.00  0.00    +0.129 C 
ATOM     11  C   UNL     1     -10.502  18.578  66.364  0.00  0.00    +0.029 C 
ATOM     12  C   UNL     1     -10.929  16.984  68.190  0.00  0.00    +0.029 C 
BRANCH  10  14
ATOM     13  C   UNL     1     -10.718  16.006  64.995  0.00  0.00    +0.320 C 
ATOM     14  N   UNL     1      -9.865  16.215  66.111  0.00  0.00    -0.194 NA
ATOM     15  O   UNL     1     -11.299  17.023  64.525  0.00  0.00    -0.263 OA
BRANCH  13  19
ATOM     16  C   UNL     1     -10.914  11.277  63.763  0.00  0.00    +0.097 C 
ATOM     17  C   UNL     1     -11.384  12.645  64.105  0.00  0.00    +0.227 A 
ATOM     18  O   UNL     1     -10.604  13.629  64.511  0.00  0.00    -0.416 OA
ATOM     19  C   UNL     1     -11.340  14.712  64.693  0.00  0.00    +0.306 A 
ATOM     20  N   UNL     1     -12.459  14.465  63.971  0.00  0.00    -0.102 NA
ATOM     21  N   UNL     1     -12.430  13.229  63.517  0.00  0.00    -0.111 NA
ENDBRANCH  13  19
ENDBRANCH  10  14
ENDBRANCH   1  10
BRANCH   8  22
ATOM     22  C   UNL     1      -6.230  20.164  66.799  0.00  0.00    +0.296 C 
ATOM     23  N   UNL     1      -6.021  19.833  65.572  0.00  0.00    -0.228 NA
ATOM     24  O   UNL     1      -6.367  21.535  67.044  0.00  0.00    -0.264 OA
BRANCH  23  25
ATOM     25  C   UNL     1      -6.364  20.695  64.444  0.00  0.00    +0.155 C 
BRANCH  25  26
ATOM     26  C   UNL     1      -5.613  20.324  63.219  0.00  0.00    +0.002 A 
ATOM     27  C   UNL     1      -5.927  20.955  62.040  0.00  0.00    -0.000 A 
ATOM     28  C   UNL     1      -5.665  20.301  60.842  0.00  0.00    +0.029 A 
ATOM     29  C   UNL     1      -5.077  19.048  60.854  0.00  0.00    +0.140 A 
ATOM     30  F   UNL     1      -5.005  18.260  59.749  0.00  0.00    -0.204 F 
ATOM     31  C   UNL     1      -4.453  18.628  62.013  0.00  0.00    +0.029 A 
ATOM     32  C   UNL     1      -4.913  19.139  63.202  0.00  0.00    -0.000 A 
ENDBRANCH  25  26
ENDBRANCH  23  25
ENDBRANCH   8  22
TORSDOF 6
ENDMDL
