MODEL 1
REMARK VINA RESULT:      -8.3      0.000      0.000
REMARK  Name = 
REMARK  6 active torsions:
REMARK  status: ('A' for Active; 'I' for Inactive)
REMARK    1  A    between atoms: C_2  and  C_3
REMARK    2  A    between atoms: C_2  and  C_19
REMARK    3  A    between atoms: C_3  and  N_4
REMARK    4  A    between atoms: N_4  and  C_5
REMARK    5  A    between atoms: C_5  and  C_6
REMARK    6  A    between atoms: C_6  and  C_8
REMARK                            x       y       z     vdW  Elec       q    Type
REMARK                         _______ _______ _______ _____ _____    ______ ____
ROOT
ATOM      1  N   UNL     1     -10.465  16.387  67.476  0.00  0.00    -0.212 NA
ENDROOT
BRANCH   1   2
ATOM      2  C   UNL     1      -9.898  15.871  66.229  0.00  0.00    +0.125 C 
BRANCH   2   4
ATOM      3  O   UNL     1     -10.999  16.366  64.296  0.00  0.00    -0.218 OA
ATOM      4  C   UNL     1     -11.342  15.491  65.501  0.00  0.00    +0.209 C 
BRANCH   4   5
ATOM      5  C   UNL     1     -10.672  14.082  64.712  0.00  0.00    +0.198 C 
ATOM      6  O   UNL     1     -11.038  13.142  65.890  0.00  0.00    -0.477 OA
ATOM      7  C   UNL     1     -10.775  11.832  65.494  0.00  0.00    +0.135 A 
ATOM      8  C   UNL     1     -11.023  11.562  64.155  0.00  0.00    +0.014 A 
ATOM      9  C   UNL     1     -10.171  10.723  63.444  0.00  0.00    +0.028 A 
ATOM     10  C   UNL     1      -9.408   9.848  64.207  0.00  0.00    +0.140 A 
ATOM     11  C   UNL     1      -9.615   9.744  65.577  0.00  0.00    +0.033 A 
ATOM     12  F   UNL     1      -8.851   8.838  63.476  0.00  0.00    -0.204 F 
ATOM     13  C   UNL     1     -12.062  12.372  63.484  0.00  0.00    +0.033 C 
ATOM     14  C   UNL     1     -10.061  10.907  66.204  0.00  0.00    +0.039 A 
ATOM     15  C   UNL     1     -12.113  13.796  63.958  0.00  0.00    +0.051 C 
ENDBRANCH   4   5
ENDBRANCH   2   4
ENDBRANCH   1   2
BRANCH   1  16
ATOM     16  C   UNL     1     -10.327  15.370  68.523  0.00  0.00    +0.125 C 
BRANCH  16  17
ATOM     17  C   UNL     1     -11.809  15.632  69.225  0.00  0.00    +0.209 C 
ATOM     18  O   UNL     1     -11.280  16.760  70.108  0.00  0.00    -0.218 OA
BRANCH  17  19
ATOM     19  C   UNL     1     -11.529  14.379  70.421  0.00  0.00    +0.198 C 
ATOM     20  O   UNL     1     -12.084  13.277  69.483  0.00  0.00    -0.477 OA
ATOM     21  C   UNL     1     -12.059  12.067  70.144  0.00  0.00    +0.135 A 
ATOM     22  C   UNL     1     -12.737  12.095  71.359  0.00  0.00    +0.014 A 
ATOM     23  C   UNL     1     -13.117  10.875  71.860  0.00  0.00    +0.028 A 
ATOM     24  C   UNL     1     -12.512   9.724  71.377  0.00  0.00    +0.140 A 
ATOM     25  C   UNL     1     -11.455   9.763  70.477  0.00  0.00    +0.033 A 
ATOM     26  F   UNL     1     -13.034   8.571  71.833  0.00  0.00    -0.204 F 
ATOM     27  C   UNL     1     -13.468  13.308  71.662  0.00  0.00    +0.033 C 
ATOM     28  C   UNL     1     -11.393  10.926  69.714  0.00  0.00    +0.039 A 
ATOM     29  C   UNL     1     -12.968  14.586  71.200  0.00  0.00    +0.051 C 
ENDBRANCH  17  19
ENDBRANCH  16  17
ENDBRANCH   1  16
TORSDOF 6
ENDMDL
MODEL 2
REMARK VINA RESULT:      -7.7      4.908      7.396
REMARK  Name = 
REMARK  6 active torsions:
REMARK  status: ('A' for Active; 'I' for Inactive)
REMARK    1  A    between atoms: C_2  and  C_3
REMARK    2  A    between atoms: C_2  and  C_19
REMARK    3  A    between atoms: C_3  and  N_4
REMARK    4  A    between atoms: N_4  and  C_5
REMARK    5  A    between atoms: C_5  and  C_6
REMARK    6  A    between atoms: C_6  and  C_8
REMARK                            x       y       z     vdW  Elec       q    Type
REMARK                         _______ _______ _______ _____ _____    ______ ____
ROOT
ATOM      1  N   UNL     1      -9.284  16.968  65.765  0.00  0.00    -0.212 NA
ENDROOT
BRANCH   1   2
ATOM      2  C   UNL     1      -9.306  17.850  66.934  0.00  0.00    +0.125 C 
BRANCH   2   4
ATOM      3  O   UNL     1      -9.897  20.004  66.478  0.00  0.00    -0.218 OA
ATOM      4  C   UNL     1      -8.644  19.178  66.187  0.00  0.00    +0.209 C 
BRANCH   4   5
ATOM      5  C   UNL     1      -7.890  19.738  67.662  0.00  0.00    +0.198 C 
ATOM      6  O   UNL     1      -6.815  18.621  67.639  0.00  0.00    -0.477 OA
ATOM      7  C   UNL     1      -5.893  18.888  68.649  0.00  0.00    +0.135 A 
ATOM      8  C   UNL     1      -5.635  20.235  68.868  0.00  0.00    +0.014 A 
ATOM      9  C   UNL     1      -5.451  20.708  70.163  0.00  0.00    +0.028 A 
ATOM     10  C   UNL     1      -5.075  19.759  71.106  0.00  0.00    +0.140 A 
ATOM     11  C   UNL     1      -4.770  18.460  70.715  0.00  0.00    +0.033 A 
ATOM     12  F   UNL     1      -4.590  20.305  72.259  0.00  0.00    -0.204 F 
ATOM     13  C   UNL     1      -5.799  21.149  67.717  0.00  0.00    +0.033 C 
ATOM     14  C   UNL     1      -5.453  17.999  69.590  0.00  0.00    +0.039 A 
ATOM     15  C   UNL     1      -6.926  20.766  66.801  0.00  0.00    +0.051 C 
ENDBRANCH   4   5
ENDBRANCH   2   4
ENDBRANCH   1   2
BRANCH   1  16
ATOM     16  C   UNL     1     -10.564  16.259  65.675  0.00  0.00    +0.125 C 
BRANCH  16  17
ATOM     17  C   UNL     1      -9.974  14.767  66.103  0.00  0.00    +0.209 C 
ATOM     18  O   UNL     1     -10.539  14.097  64.852  0.00  0.00    -0.218 OA
BRANCH  17  19
ATOM     19  C   UNL     1     -11.385  14.427  67.090  0.00  0.00    +0.198 C 
ATOM     20  O   UNL     1     -10.697  14.976  68.366  0.00  0.00    -0.477 OA
ATOM     21  C   UNL     1     -11.552  14.828  69.438  0.00  0.00    +0.135 A 
ATOM     22  C   UNL     1     -11.984  13.517  69.614  0.00  0.00    +0.014 A 
ATOM     23  C   UNL     1     -12.472  13.208  70.859  0.00  0.00    +0.028 A 
ATOM     24  C   UNL     1     -12.856  14.234  71.711  0.00  0.00    +0.140 A 
ATOM     25  C   UNL     1     -12.867  15.565  71.312  0.00  0.00    +0.033 A 
ATOM     26  F   UNL     1     -13.201  13.846  72.951  0.00  0.00    -0.204 F 
ATOM     27  C   UNL     1     -11.373  12.516  68.762  0.00  0.00    +0.033 C 
ATOM     28  C   UNL     1     -12.010  15.855  70.254  0.00  0.00    +0.039 A 
ATOM     29  C   UNL     1     -10.972  12.864  67.415  0.00  0.00    +0.051 C 
ENDBRANCH  17  19
ENDBRANCH  16  17
ENDBRANCH   1  16
TORSDOF 6
ENDMDL
MODEL 3
REMARK VINA RESULT:      -7.5      4.024      6.715
REMARK  Name = 
REMARK  6 active torsions:
REMARK  status: ('A' for Active; 'I' for Inactive)
REMARK    1  A    between atoms: C_2  and  C_3
REMARK    2  A    between atoms: C_2  and  C_19
REMARK    3  A    between atoms: C_3  and  N_4
REMARK    4  A    between atoms: N_4  and  C_5
REMARK    5  A    between atoms: C_5  and  C_6
REMARK    6  A    between atoms: C_6  and  C_8
REMARK                            x       y       z     vdW  Elec       q    Type
REMARK                         _______ _______ _______ _____ _____    ______ ____
ROOT
ATOM      1  N   UNL     1     -10.242  15.666  64.849  0.00  0.00    -0.212 NA
ENDROOT
BRANCH   1   2
ATOM      2  C   UNL     1      -9.535  15.849  66.119  0.00  0.00    +0.125 C 
BRANCH   2   4
ATOM      3  O   UNL     1     -10.607  16.296  68.081  0.00  0.00    -0.218 OA
ATOM      4  C   UNL     1     -10.542  17.018  66.735  0.00  0.00    +0.209 C 
BRANCH   4   5
ATOM      5  C   UNL     1      -9.206  18.000  67.287  0.00  0.00    +0.198 C 
ATOM      6  O   UNL     1      -8.896  18.532  65.864  0.00  0.00    -0.477 OA
ATOM      7  C   UNL     1      -7.929  19.529  65.977  0.00  0.00    +0.135 A 
ATOM      8  C   UNL     1      -8.027  20.317  67.116  0.00  0.00    +0.014 A 
ATOM      9  C   UNL     1      -6.876  20.734  67.776  0.00  0.00    +0.028 A 
ATOM     10  C   UNL     1      -5.712  20.740  67.017  0.00  0.00    +0.140 A 
ATOM     11  C   UNL     1      -5.760  20.478  65.653  0.00  0.00    +0.033 A 
ATOM     12  F   UNL     1      -4.699  21.456  67.586  0.00  0.00    -0.204 F 
ATOM     13  C   UNL     1      -9.372  20.482  67.709  0.00  0.00    +0.033 C 
ATOM     14  C   UNL     1      -6.777  19.617  65.245  0.00  0.00    +0.039 A 
ATOM     15  C   UNL     1     -10.232  19.256  67.599  0.00  0.00    +0.051 C 
ENDBRANCH   4   5
ENDBRANCH   2   4
ENDBRANCH   1   2
BRANCH   1  16
ATOM     16  C   UNL     1     -11.328  14.700  65.040  0.00  0.00    +0.125 C 
BRANCH  16  17
ATOM     17  C   UNL     1     -10.363  13.350  65.084  0.00  0.00    +0.209 C 
ATOM     18  O   UNL     1     -10.948  12.792  63.789  0.00  0.00    -0.218 OA
BRANCH  17  19
ATOM     19  C   UNL     1     -11.496  12.503  66.123  0.00  0.00    +0.198 C 
ATOM     20  O   UNL     1     -10.723  12.915  67.401  0.00  0.00    -0.477 OA
ATOM     21  C   UNL     1     -11.341  12.358  68.501  0.00  0.00    +0.135 A 
ATOM     22  C   UNL     1     -11.477  10.976  68.409  0.00  0.00    +0.014 A 
ATOM     23  C   UNL     1     -11.680  10.313  69.593  0.00  0.00    +0.028 A 
ATOM     24  C   UNL     1     -12.106  11.026  70.705  0.00  0.00    +0.140 A 
ATOM     25  C   UNL     1     -12.440  12.372  70.640  0.00  0.00    +0.033 A 
ATOM     26  F   UNL     1     -12.157  10.320  71.848  0.00  0.00    -0.204 F 
ATOM     27  C   UNL     1     -10.836  10.339  67.276  0.00  0.00    +0.033 C 
ATOM     28  C   UNL     1     -11.844  13.062  69.588  0.00  0.00    +0.039 A 
ATOM     29  C   UNL     1     -10.741  11.041  66.013  0.00  0.00    +0.051 C 
ENDBRANCH  17  19
ENDBRANCH  16  17
ENDBRANCH   1  16
TORSDOF 6
ENDMDL
MODEL 4
REMARK VINA RESULT:      -7.4      4.444      6.859
REMARK  Name = 
REMARK  6 active torsions:
REMARK  status: ('A' for Active; 'I' for Inactive)
REMARK    1  A    between atoms: C_2  and  C_3
REMARK    2  A    between atoms: C_2  and  C_19
REMARK    3  A    between atoms: C_3  and  N_4
REMARK    4  A    between atoms: N_4  and  C_5
REMARK    5  A    between atoms: C_5  and  C_6
REMARK    6  A    between atoms: C_6  and  C_8
REMARK                            x       y       z     vdW  Elec       q    Type
REMARK                         _______ _______ _______ _____ _____    ______ ____
ROOT
ATOM      1  N   UNL     1     -10.102  16.186  67.107  0.00  0.00    -0.212 NA
ENDROOT
BRANCH   1   2
ATOM      2  C   UNL     1     -10.294  17.277  68.066  0.00  0.00    +0.125 C 
BRANCH   2   4
ATOM      3  O   UNL     1     -10.925  19.393  67.501  0.00  0.00    -0.218 OA
ATOM      4  C   UNL     1      -9.758  18.501  67.078  0.00  0.00    +0.209 C 
BRANCH   4   5
ATOM      5  C   UNL     1      -8.741  19.179  68.327  0.00  0.00    +0.198 C 
ATOM      6  O   UNL     1      -7.656  18.084  68.160  0.00  0.00    -0.477 OA
ATOM      7  C   UNL     1      -6.559  18.442  68.941  0.00  0.00    +0.135 A 
ATOM      8  C   UNL     1      -6.307  19.806  69.012  0.00  0.00    +0.014 A 
ATOM      9  C   UNL     1      -5.881  20.374  70.208  0.00  0.00    +0.028 A 
ATOM     10  C   UNL     1      -5.291  19.502  71.116  0.00  0.00    +0.140 A 
ATOM     11  C   UNL     1      -5.028  18.185  70.758  0.00  0.00    +0.033 A 
ATOM     12  F   UNL     1      -4.601  20.140  72.107  0.00  0.00    -0.204 F 
ATOM     13  C   UNL     1      -6.731  20.631  67.862  0.00  0.00    +0.033 C 
ATOM     14  C   UNL     1      -5.908  17.632  69.829  0.00  0.00    +0.039 A 
ATOM     15  C   UNL     1      -8.006  20.162  67.222  0.00  0.00    +0.051 C 
ENDBRANCH   4   5
ENDBRANCH   2   4
ENDBRANCH   1   2
BRANCH   1  16
ATOM     16  C   UNL     1     -11.293  15.331  67.108  0.00  0.00    +0.125 C 
BRANCH  16  17
ATOM     17  C   UNL     1     -10.508  13.929  66.692  0.00  0.00    +0.209 C 
ATOM     18  O   UNL     1     -11.133  13.899  65.299  0.00  0.00    -0.218 OA
BRANCH  17  19
ATOM     19  C   UNL     1     -11.760  12.942  67.425  0.00  0.00    +0.198 C 
ATOM     20  O   UNL     1     -11.115  13.062  68.829  0.00  0.00    -0.477 OA
ATOM     21  C   UNL     1     -11.855  12.326  69.730  0.00  0.00    +0.135 A 
ATOM     22  C   UNL     1     -12.010  10.996  69.351  0.00  0.00    +0.014 A 
ATOM     23  C   UNL     1     -12.349  10.123  70.354  0.00  0.00    +0.028 A 
ATOM     24  C   UNL     1     -12.873  10.620  71.539  0.00  0.00    +0.140 A 
ATOM     25  C   UNL     1     -13.169  11.965  71.712  0.00  0.00    +0.033 A 
ATOM     26  F   UNL     1     -13.057   9.706  72.508  0.00  0.00    -0.204 F 
ATOM     27  C   UNL     1     -11.269  10.568  68.182  0.00  0.00    +0.033 C 
ATOM     28  C   UNL     1     -12.453  12.823  70.881  0.00  0.00    +0.039 A 
ATOM     29  C   UNL     1     -11.029  11.500  67.100  0.00  0.00    +0.051 C 
ENDBRANCH  17  19
ENDBRANCH  16  17
ENDBRANCH   1  16
TORSDOF 6
ENDMDL
MODEL 5
REMARK VINA RESULT:      -7.4      3.145      7.404
REMARK  Name = 
REMARK  6 active torsions:
REMARK  status: ('A' for Active; 'I' for Inactive)
REMARK    1  A    between atoms: C_2  and  C_3
REMARK    2  A    between atoms: C_2  and  C_19
REMARK    3  A    between atoms: C_3  and  N_4
REMARK    4  A    between atoms: N_4  and  C_5
REMARK    5  A    between atoms: C_5  and  C_6
REMARK    6  A    between atoms: C_6  and  C_8
REMARK                            x       y       z     vdW  Elec       q    Type
REMARK                         _______ _______ _______ _____ _____    ______ ____
ROOT
ATOM      1  N   UNL     1     -10.225  10.187  66.228  0.00  0.00    -0.212 NA
ENDROOT
BRANCH   1   2
ATOM      2  C   UNL     1      -9.739  10.711  67.507  0.00  0.00    +0.125 C 
BRANCH   2   4
ATOM      3  O   UNL     1     -10.019   9.381  69.337  0.00  0.00    -0.218 OA
ATOM      4  C   UNL     1     -10.993  10.142  68.437  0.00  0.00    +0.209 C 
BRANCH   4   5
ATOM      5  C   UNL     1     -10.945  11.529  69.501  0.00  0.00    +0.198 C 
ATOM      6  O   UNL     1     -11.826  12.390  68.560  0.00  0.00    -0.477 OA
ATOM      7  C   UNL     1     -12.138  13.574  69.225  0.00  0.00    +0.135 A 
ATOM      8  C   UNL     1     -12.328  13.447  70.595  0.00  0.00    +0.014 A 
ATOM      9  C   UNL     1     -11.871  14.438  71.456  0.00  0.00    +0.028 A 
ATOM     10  C   UNL     1     -11.676  15.691  70.889  0.00  0.00    +0.140 A 
ATOM     11  C   UNL     1     -12.062  15.937  69.576  0.00  0.00    +0.033 A 
ATOM     12  F   UNL     1     -11.555  16.690  71.811  0.00  0.00    -0.204 F 
ATOM     13  C   UNL     1     -12.807  12.139  71.090  0.00  0.00    +0.033 C 
ATOM     14  C   UNL     1     -12.004  14.838  68.720  0.00  0.00    +0.039 A 
ATOM     15  C   UNL     1     -12.264  10.969  70.321  0.00  0.00    +0.051 C 
ENDBRANCH   4   5
ENDBRANCH   2   4
ENDBRANCH   1   2
BRANCH   1  16
ATOM     16  C   UNL     1      -9.798  11.085  65.149  0.00  0.00    +0.125 C 
BRANCH  16  17
ATOM     17  C   UNL     1     -11.279  11.795  64.910  0.00  0.00    +0.209 C 
ATOM     18  O   UNL     1     -11.362  11.320  63.461  0.00  0.00    -0.218 OA
BRANCH  17  19
ATOM     19  C   UNL     1     -10.539  13.335  64.506  0.00  0.00    +0.198 C 
ATOM     20  O   UNL     1     -10.341  13.698  66.000  0.00  0.00    -0.477 OA
ATOM     21  C   UNL     1      -9.778  14.954  66.088  0.00  0.00    +0.135 A 
ATOM     22  C   UNL     1     -10.511  15.928  65.418  0.00  0.00    +0.014 A 
ATOM     23  C   UNL     1     -10.271  17.225  65.797  0.00  0.00    +0.028 A 
ATOM     24  C   UNL     1      -9.111  17.524  66.498  0.00  0.00    +0.140 A 
ATOM     25  C   UNL     1      -8.126  16.575  66.740  0.00  0.00    +0.033 A 
ATOM     26  F   UNL     1      -9.020  18.792  66.935  0.00  0.00    -0.204 F 
ATOM     27  C   UNL     1     -11.789  15.515  64.875  0.00  0.00    +0.033 C 
ATOM     28  C   UNL     1      -8.578  15.258  66.718  0.00  0.00    +0.039 A 
ATOM     29  C   UNL     1     -11.962  14.162  64.388  0.00  0.00    +0.051 C 
ENDBRANCH  17  19
ENDBRANCH  16  17
ENDBRANCH   1  16
TORSDOF 6
ENDMDL
MODEL 6
REMARK VINA RESULT:      -7.4      4.218      6.602
REMARK  Name = 
REMARK  6 active torsions:
REMARK  status: ('A' for Active; 'I' for Inactive)
REMARK    1  A    between atoms: C_2  and  C_3
REMARK    2  A    between atoms: C_2  and  C_19
REMARK    3  A    between atoms: C_3  and  N_4
REMARK    4  A    between atoms: N_4  and  C_5
REMARK    5  A    between atoms: C_5  and  C_6
REMARK    6  A    between atoms: C_6  and  C_8
REMARK                            x       y       z     vdW  Elec       q    Type
REMARK                         _______ _______ _______ _____ _____    ______ ____
ROOT
ATOM      1  N   UNL     1     -10.559  16.194  64.966  0.00  0.00    -0.212 NA
ENDROOT
BRANCH   1   2
ATOM      2  C   UNL     1      -9.811  16.435  66.202  0.00  0.00    +0.125 C 
BRANCH   2   4
ATOM      3  O   UNL     1     -10.801  17.870  67.671  0.00  0.00    -0.218 OA
ATOM      4  C   UNL     1     -10.133  18.062  66.309  0.00  0.00    +0.209 C 
BRANCH   4   5
ATOM      5  C   UNL     1      -8.597  18.402  67.071  0.00  0.00    +0.198 C 
ATOM      6  O   UNL     1      -7.842  18.467  65.719  0.00  0.00    -0.477 OA
ATOM      7  C   UNL     1      -6.545  18.912  65.970  0.00  0.00    +0.135 A 
ATOM      8  C   UNL     1      -6.431  19.847  66.989  0.00  0.00    +0.014 A 
ATOM      9  C   UNL     1      -5.347  19.801  67.859  0.00  0.00    +0.028 A 
ATOM     10  C   UNL     1      -4.221  19.135  67.389  0.00  0.00    +0.140 A 
ATOM     11  C   UNL     1      -4.168  18.684  66.075  0.00  0.00    +0.033 A 
ATOM     12  F   UNL     1      -3.096  19.396  68.115  0.00  0.00    -0.204 F 
ATOM     13  C   UNL     1      -7.602  20.714  67.244  0.00  0.00    +0.033 C 
ATOM     14  C   UNL     1      -5.395  18.328  65.516  0.00  0.00    +0.039 A 
ATOM     15  C   UNL     1      -8.918  20.022  67.039  0.00  0.00    +0.051 C 
ENDBRANCH   4   5
ENDBRANCH   2   4
ENDBRANCH   1   2
BRANCH   1  16
ATOM     16  C   UNL     1     -11.610  15.205  65.226  0.00  0.00    +0.125 C 
BRANCH  16  17
ATOM     17  C   UNL     1     -10.656  14.151  66.084  0.00  0.00    +0.209 C 
ATOM     18  O   UNL     1     -11.017  12.969  65.187  0.00  0.00    -0.218 OA
BRANCH  17  19
ATOM     19  C   UNL     1     -11.939  13.841  67.241  0.00  0.00    +0.198 C 
ATOM     20  O   UNL     1     -11.207  14.633  68.354  0.00  0.00    -0.477 OA
ATOM     21  C   UNL     1     -11.951  14.573  69.513  0.00  0.00    +0.135 A 
ATOM     22  C   UNL     1     -12.233  13.270  69.914  0.00  0.00    +0.014 A 
ATOM     23  C   UNL     1     -12.583  13.110  71.231  0.00  0.00    +0.028 A 
ATOM     24  C   UNL     1     -12.996  14.215  71.962  0.00  0.00    +0.140 A 
ATOM     25  C   UNL     1     -13.175  15.464  71.383  0.00  0.00    +0.033 A 
ATOM     26  F   UNL     1     -13.197  13.988  73.273  0.00  0.00    -0.204 F 
ATOM     27  C   UNL     1     -11.596  12.211  69.158  0.00  0.00    +0.033 C 
ATOM     28  C   UNL     1     -12.441  15.666  70.216  0.00  0.00    +0.039 A 
ATOM     29  C   UNL     1     -11.345  12.386  67.742  0.00  0.00    +0.051 C 
ENDBRANCH  17  19
ENDBRANCH  16  17
ENDBRANCH   1  16
TORSDOF 6
ENDMDL
MODEL 7
REMARK VINA RESULT:      -7.3      2.461      5.689
REMARK  Name = 
REMARK  6 active torsions:
REMARK  status: ('A' for Active; 'I' for Inactive)
REMARK    1  A    between atoms: C_2  and  C_3
REMARK    2  A    between atoms: C_2  and  C_19
REMARK    3  A    between atoms: C_3  and  N_4
REMARK    4  A    between atoms: N_4  and  C_5
REMARK    5  A    between atoms: C_5  and  C_6
REMARK    6  A    between atoms: C_6  and  C_8
REMARK                            x       y       z     vdW  Elec       q    Type
REMARK                         _______ _______ _______ _____ _____    ______ ____
ROOT
ATOM      1  N   UNL     1     -11.389  13.235  64.559  0.00  0.00    -0.212 NA
ENDROOT
BRANCH   1   2
ATOM      2  C   UNL     1     -11.886  14.439  65.227  0.00  0.00    +0.125 C 
BRANCH   2   4
ATOM      3  O   UNL     1     -10.787  16.403  64.864  0.00  0.00    -0.218 OA
ATOM      4  C   UNL     1     -10.401  15.101  65.566  0.00  0.00    +0.209 C 
BRANCH   4   5
ATOM      5  C   UNL     1     -10.937  15.732  67.106  0.00  0.00    +0.198 C 
ATOM      6  O   UNL     1     -10.949  14.332  67.773  0.00  0.00    -0.477 OA
ATOM      7  C   UNL     1     -11.187  14.506  69.135  0.00  0.00    +0.135 A 
ATOM      8  C   UNL     1     -10.623  15.647  69.690  0.00  0.00    +0.014 A 
ATOM      9  C   UNL     1     -11.318  16.370  70.654  0.00  0.00    +0.028 A 
ATOM     10  C   UNL     1     -12.307  15.672  71.337  0.00  0.00    +0.140 A 
ATOM     11  C   UNL     1     -12.465  14.305  71.145  0.00  0.00    +0.033 A 
ATOM     12  F   UNL     1     -12.724  16.301  72.475  0.00  0.00    -0.204 F 
ATOM     13  C   UNL     1      -9.396  16.170  69.054  0.00  0.00    +0.033 C 
ATOM     14  C   UNL     1     -12.119  13.836  69.878  0.00  0.00    +0.039 A 
ATOM     15  C   UNL     1      -9.374  16.003  67.562  0.00  0.00    +0.051 C 
ENDBRANCH   4   5
ENDBRANCH   2   4
ENDBRANCH   1   2
BRANCH   1  16
ATOM     16  C   UNL     1     -11.685  12.067  65.394  0.00  0.00    +0.125 C 
BRANCH  16  17
ATOM     17  C   UNL     1     -10.127  11.499  65.467  0.00  0.00    +0.209 C 
ATOM     18  O   UNL     1     -10.286  10.666  64.197  0.00  0.00    -0.218 OA
BRANCH  17  19
ATOM     19  C   UNL     1     -10.592  10.193  66.545  0.00  0.00    +0.198 C 
ATOM     20  O   UNL     1     -10.552  11.123  67.784  0.00  0.00    -0.477 OA
ATOM     21  C   UNL     1     -10.847  10.386  68.911  0.00  0.00    +0.135 A 
ATOM     22  C   UNL     1     -10.015   9.282  69.073  0.00  0.00    +0.014 A 
ATOM     23  C   UNL     1      -9.956   8.757  70.340  0.00  0.00    +0.028 A 
ATOM     24  C   UNL     1     -10.952   9.074  71.253  0.00  0.00    +0.140 A 
ATOM     25  C   UNL     1     -12.070   9.818  70.903  0.00  0.00    +0.033 A 
ATOM     26  F   UNL     1     -10.746   8.618  72.502  0.00  0.00    -0.204 F 
ATOM     27  C   UNL     1      -8.909   9.165  68.145  0.00  0.00    +0.033 C 
ATOM     28  C   UNL     1     -11.889  10.641  69.794  0.00  0.00    +0.039 A 
ATOM     29  C   UNL     1      -9.057   9.638  66.784  0.00  0.00    +0.051 C 
ENDBRANCH  17  19
ENDBRANCH  16  17
ENDBRANCH   1  16
TORSDOF 6
ENDMDL
MODEL 8
REMARK VINA RESULT:      -7.1      4.477      6.494
REMARK  Name = 
REMARK  6 active torsions:
REMARK  status: ('A' for Active; 'I' for Inactive)
REMARK    1  A    between atoms: C_2  and  C_3
REMARK    2  A    between atoms: C_2  and  C_19
REMARK    3  A    between atoms: C_3  and  N_4
REMARK    4  A    between atoms: N_4  and  C_5
REMARK    5  A    between atoms: C_5  and  C_6
REMARK    6  A    between atoms: C_6  and  C_8
REMARK                            x       y       z     vdW  Elec       q    Type
REMARK                         _______ _______ _______ _____ _____    ______ ____
ROOT
ATOM      1  N   UNL     1     -10.697  16.256  67.782  0.00  0.00    -0.212 NA
ENDROOT
BRANCH   1   2
ATOM      2  C   UNL     1     -10.412  17.691  67.835  0.00  0.00    +0.125 C 
BRANCH   2   4
ATOM      3  O   UNL     1     -10.112  18.773  65.851  0.00  0.00    -0.218 OA
ATOM      4  C   UNL     1      -9.301  17.714  66.600  0.00  0.00    +0.209 C 
BRANCH   4   5
ATOM      5  C   UNL     1      -8.337  18.950  67.374  0.00  0.00    +0.198 C 
ATOM      6  O   UNL     1      -7.399  17.917  68.050  0.00  0.00    -0.477 OA
ATOM      7  C   UNL     1      -6.351  18.613  68.648  0.00  0.00    +0.135 A 
ATOM      8  C   UNL     1      -5.926  19.742  67.960  0.00  0.00    +0.014 A 
ATOM      9  C   UNL     1      -5.554  20.885  68.659  0.00  0.00    +0.028 A 
ATOM     10  C   UNL     1      -5.184  20.691  69.985  0.00  0.00    +0.140 A 
ATOM     11  C   UNL     1      -5.066  19.406  70.501  0.00  0.00    +0.033 A 
ATOM     12  F   UNL     1      -4.522  21.756  70.523  0.00  0.00    -0.204 F 
ATOM     13  C   UNL     1      -6.112  19.747  66.494  0.00  0.00    +0.033 C 
ATOM     14  C   UNL     1      -5.912  18.454  69.933  0.00  0.00    +0.039 A 
ATOM     15  C   UNL     1      -7.365  19.053  66.044  0.00  0.00    +0.051 C 
ENDBRANCH   4   5
ENDBRANCH   2   4
ENDBRANCH   1   2
BRANCH   1  16
ATOM     16  C   UNL     1     -10.381  15.655  69.082  0.00  0.00    +0.125 C 
BRANCH  16  17
ATOM     17  C   UNL     1     -11.938  15.638  69.656  0.00  0.00    +0.209 C 
ATOM     18  O   UNL     1     -11.640  16.689  70.723  0.00  0.00    -0.218 OA
BRANCH  17  19
ATOM     19  C   UNL     1     -11.597  14.274  70.707  0.00  0.00    +0.198 C 
ATOM     20  O   UNL     1     -12.180  13.266  69.685  0.00  0.00    -0.477 OA
ATOM     21  C   UNL     1     -12.116  11.996  70.219  0.00  0.00    +0.135 A 
ATOM     22  C   UNL     1     -12.744  11.891  71.456  0.00  0.00    +0.014 A 
ATOM     23  C   UNL     1     -13.092  10.622  71.847  0.00  0.00    +0.028 A 
ATOM     24  C   UNL     1     -12.497   9.534  71.225  0.00  0.00    +0.140 A 
ATOM     25  C   UNL     1     -11.478   9.678  70.292  0.00  0.00    +0.033 A 
ATOM     26  F   UNL     1     -12.988   8.334  71.583  0.00  0.00    -0.204 F 
ATOM     27  C   UNL     1     -13.473  13.058  71.910  0.00  0.00    +0.033 C 
ATOM     28  C   UNL     1     -11.458  10.913  69.649  0.00  0.00    +0.039 A 
ATOM     29  C   UNL     1     -13.004  14.383  71.560  0.00  0.00    +0.051 C 
ENDBRANCH  17  19
ENDBRANCH  16  17
ENDBRANCH   1  16
TORSDOF 6
ENDMDL
MODEL 9
REMARK VINA RESULT:      -7.0      4.627      7.748
REMARK  Name = 
REMARK  6 active torsions:
REMARK  status: ('A' for Active; 'I' for Inactive)
REMARK    1  A    between atoms: C_2  and  C_3
REMARK    2  A    between atoms: C_2  and  C_19
REMARK    3  A    between atoms: C_3  and  N_4
REMARK    4  A    between atoms: N_4  and  C_5
REMARK    5  A    between atoms: C_5  and  C_6
REMARK    6  A    between atoms: C_6  and  C_8
REMARK                            x       y       z     vdW  Elec       q    Type
REMARK                         _______ _______ _______ _____ _____    ______ ____
ROOT
ATOM      1  N   UNL     1      -9.980  16.755  67.214  0.00  0.00    -0.212 NA
ENDROOT
BRANCH   1   2
ATOM      2  C   UNL     1      -9.622  16.043  65.986  0.00  0.00    +0.125 C 
BRANCH   2   4
ATOM      3  O   UNL     1     -11.110  16.433  64.304  0.00  0.00    -0.218 OA
ATOM      4  C   UNL     1     -11.163  15.581  65.572  0.00  0.00    +0.209 C 
BRANCH   4   5
ATOM      5  C   UNL     1     -10.600  14.178  64.696  0.00  0.00    +0.198 C 
ATOM      6  O   UNL     1     -10.846  13.223  65.892  0.00  0.00    -0.477 OA
ATOM      7  C   UNL     1     -10.643  11.917  65.451  0.00  0.00    +0.135 A 
ATOM      8  C   UNL     1     -11.038  11.670  64.143  0.00  0.00    +0.014 A 
ATOM      9  C   UNL     1     -10.279  10.834  63.332  0.00  0.00    +0.028 A 
ATOM     10  C   UNL     1      -9.447   9.939  63.995  0.00  0.00    +0.140 A 
ATOM     11  C   UNL     1      -9.506   9.816  65.378  0.00  0.00    +0.033 A 
ATOM     12  F   UNL     1      -8.984   8.936  63.194  0.00  0.00    -0.204 F 
ATOM     13  C   UNL     1     -12.134  12.501  63.602  0.00  0.00    +0.033 C 
ATOM     14  C   UNL     1      -9.867  10.974  66.066  0.00  0.00    +0.039 A 
ATOM     15  C   UNL     1     -12.117  13.918  64.098  0.00  0.00    +0.051 C 
ENDBRANCH   4   5
ENDBRANCH   2   4
ENDBRANCH   1   2
BRANCH   1  16
ATOM     16  C   UNL     1      -9.816  18.196  66.999  0.00  0.00    +0.125 C 
BRANCH  16  17
ATOM     17  C   UNL     1      -8.701  18.432  68.205  0.00  0.00    +0.209 C 
ATOM     18  O   UNL     1      -9.666  19.270  69.041  0.00  0.00    -0.218 OA
BRANCH  17  19
ATOM     19  C   UNL     1      -8.007  19.813  67.372  0.00  0.00    +0.198 C 
ATOM     20  O   UNL     1      -7.013  18.917  66.591  0.00  0.00    -0.477 OA
ATOM     21  C   UNL     1      -6.212  19.714  65.801  0.00  0.00    +0.135 A 
ATOM     22  C   UNL     1      -5.551  20.705  66.520  0.00  0.00    +0.014 A 
ATOM     23  C   UNL     1      -4.446  21.249  65.913  0.00  0.00    +0.028 A 
ATOM     24  C   UNL     1      -4.274  21.087  64.546  0.00  0.00    +0.140 A 
ATOM     25  C   UNL     1      -5.233  20.484  63.743  0.00  0.00    +0.033 A 
ATOM     26  F   UNL     1      -3.105  21.543  64.061  0.00  0.00    -0.204 F 
ATOM     27  C   UNL     1      -5.685  20.655  67.961  0.00  0.00    +0.033 C 
ATOM     28  C   UNL     1      -6.087  19.617  64.421  0.00  0.00    +0.039 A 
ATOM     29  C   UNL     1      -6.914  20.172  68.555  0.00  0.00    +0.051 C 
ENDBRANCH  17  19
ENDBRANCH  16  17
ENDBRANCH   1  16
TORSDOF 6
ENDMDL
