MODEL 1
REMARK VINA RESULT:      -7.4      0.000      0.000
REMARK  Name = 
REMARK  6 active torsions:
REMARK  status: ('A' for Active; 'I' for Inactive)
REMARK    1  A    between atoms: C_9  and  C_10
REMARK    2  A    between atoms: C_20  and  C_21
REMARK    3  A    between atoms: C_21  and  C_23
REMARK    4  A    between atoms: C_23  and  C_24
REMARK    5  A    between atoms: C_24  and  C_25
REMARK    6  A    between atoms: C_25  and  C_26
REMARK                            x       y       z     vdW  Elec       q    Type
REMARK                         _______ _______ _______ _____ _____    ______ ____
ROOT
ATOM      1  C   UNL     1     -11.879  11.388  69.461  0.00  0.00    -0.009 C 
ATOM      2  C   UNL     1     -11.754  12.313  68.496  0.00  0.00    -0.045 C 
ATOM      3  C   UNL     1     -10.820  13.565  68.927  0.00  0.00    +0.018 C 
ATOM      4  C   UNL     1     -12.092  14.590  69.069  0.00  0.00    +0.004 C 
ATOM      5  C   UNL     1     -11.542  15.854  68.522  0.00  0.00    +0.000 C 
ATOM      6  C   UNL     1     -10.053  15.468  68.000  0.00  0.00    +0.000 C 
ATOM      7  C   UNL     1     -10.596  14.072  67.381  0.00  0.00    +0.003 C 
ATOM      8  C   UNL     1     -11.867  14.278  66.738  0.00  0.00    +0.000 C 
ATOM      9  C   UNL     1      -9.535  13.259  66.862  0.00  0.00    +0.001 C 
ATOM     10  C   UNL     1      -9.882  11.791  66.975  0.00  0.00    +0.004 C 
ATOM     11  C   UNL     1     -11.362  11.688  67.188  0.00  0.00    +0.022 C 
ENDROOT
BRANCH   1  15
ATOM     12  C   UNL     1     -12.723  10.238  71.467  0.00  0.00    -0.005 C 
ATOM     13  C   UNL     1     -11.751   9.475  71.561  0.00  0.00    -0.026 C 
ATOM     14  C   UNL     1     -10.697   9.720  70.568  0.00  0.00    -0.024 C 
ATOM     15  C   UNL     1     -11.147  10.108  69.370  0.00  0.00    -0.005 C 
ATOM     16  C   UNL     1      -9.387   9.017  70.734  0.00  0.00    +0.059 C 
ATOM     17  C   UNL     1      -9.999   7.471  70.692  0.00  0.00    +0.157 C 
ATOM     18  O   UNL     1      -8.622   6.877  70.993  0.00  0.00    -0.223 OA
ATOM     19  C   UNL     1     -10.390   7.531  72.306  0.00  0.00    +0.038 C 
ATOM     20  C   UNL     1     -11.740   8.207  72.357  0.00  0.00    +0.029 C 
ENDBRANCH   1  15
BRANCH   6  21
ATOM     21  C   UNL     1     -10.286  16.313  66.539  0.00  0.00    +0.000 C 
ATOM     22  C   UNL     1      -8.688  16.465  66.287  0.00  0.00    +0.000 C 
BRANCH  21  23
ATOM     23  C   UNL     1     -10.398  17.754  67.285  0.00  0.00    +0.000 C 
BRANCH  23  24
ATOM     24  C   UNL     1      -9.758  18.775  66.402  0.00  0.00    +0.000 C 
BRANCH  24  25
ATOM     25  C   UNL     1      -9.405  20.041  67.120  0.00  0.00    +0.000 C 
BRANCH  25  26
ATOM     26  C   UNL     1      -7.910  20.283  67.202  0.00  0.00    +0.000 C 
ATOM     27  C   UNL     1      -7.249  19.842  65.913  0.00  0.00    +0.000 C 
ATOM     28  C   UNL     1      -7.346  19.464  68.356  0.00  0.00    +0.000 C 
ENDBRANCH  25  26
ENDBRANCH  24  25
ENDBRANCH  23  24
ENDBRANCH  21  23
ENDBRANCH   6  21
TORSDOF 6
ENDMDL
MODEL 2
REMARK VINA RESULT:      -7.1      4.585      9.100
REMARK  Name = 
REMARK  6 active torsions:
REMARK  status: ('A' for Active; 'I' for Inactive)
REMARK    1  A    between atoms: C_9  and  C_10
REMARK    2  A    between atoms: C_20  and  C_21
REMARK    3  A    between atoms: C_21  and  C_23
REMARK    4  A    between atoms: C_23  and  C_24
REMARK    5  A    between atoms: C_24  and  C_25
REMARK    6  A    between atoms: C_25  and  C_26
REMARK                            x       y       z     vdW  Elec       q    Type
REMARK                         _______ _______ _______ _____ _____    ______ ____
ROOT
ATOM      1  C   UNL     1      -6.361  18.671  67.027  0.00  0.00    -0.009 C 
ATOM      2  C   UNL     1      -7.635  18.256  66.939  0.00  0.00    -0.045 C 
ATOM      3  C   UNL     1      -7.944  16.944  67.837  0.00  0.00    +0.018 C 
ATOM      4  C   UNL     1      -8.044  15.955  66.532  0.00  0.00    +0.004 C 
ATOM      5  C   UNL     1      -9.162  15.054  66.903  0.00  0.00    +0.000 C 
ATOM      6  C   UNL     1      -9.710  15.633  68.318  0.00  0.00    +0.000 C 
ATOM      7  C   UNL     1      -9.572  17.157  67.787  0.00  0.00    +0.003 C 
ATOM      8  C   UNL     1     -10.019  17.248  66.422  0.00  0.00    +0.000 C 
ATOM      9  C   UNL     1      -9.862  18.117  68.812  0.00  0.00    +0.001 C 
ATOM     10  C   UNL     1      -9.076  19.390  68.590  0.00  0.00    +0.004 C 
ATOM     11  C   UNL     1      -8.595  19.388  67.171  0.00  0.00    +0.022 C 
ENDROOT
BRANCH   1  15
ATOM     12  C   UNL     1      -4.152  18.017  67.894  0.00  0.00    -0.005 C 
ATOM     13  C   UNL     1      -4.193  18.787  68.864  0.00  0.00    -0.026 C 
ATOM     14  C   UNL     1      -5.456  19.526  68.991  0.00  0.00    -0.024 C 
ATOM     15  C   UNL     1      -6.016  19.866  67.826  0.00  0.00    -0.005 C 
ATOM     16  C   UNL     1      -5.702  20.302  70.246  0.00  0.00    +0.059 C 
ATOM     17  C   UNL     1      -4.365  21.283  70.124  0.00  0.00    +0.157 C 
ATOM     18  O   UNL     1      -4.656  21.914  71.486  0.00  0.00    -0.223 OA
ATOM     19  C   UNL     1      -3.392  20.120  70.805  0.00  0.00    +0.038 C 
ATOM     20  C   UNL     1      -3.000  19.217  69.660  0.00  0.00    +0.029 C 
ENDBRANCH   1  15
BRANCH   6  21
ATOM     21  C   UNL     1     -11.330  15.504  67.807  0.00  0.00    +0.000 C 
ATOM     22  C   UNL     1     -11.894  15.596  69.329  0.00  0.00    +0.000 C 
BRANCH  21  23
ATOM     23  C   UNL     1     -11.300  13.877  67.820  0.00  0.00    +0.000 C 
BRANCH  23  24
ATOM     24  C   UNL     1     -12.248  13.397  66.770  0.00  0.00    +0.000 C 
BRANCH  24  25
ATOM     25  C   UNL     1     -11.619  12.452  65.793  0.00  0.00    +0.000 C 
BRANCH  25  26
ATOM     26  C   UNL     1     -11.554  13.006  64.383  0.00  0.00    +0.000 C 
ATOM     27  C   UNL     1     -12.145  14.400  64.354  0.00  0.00    +0.000 C 
ATOM     28  C   UNL     1     -12.369  12.102  63.466  0.00  0.00    +0.000 C 
ENDBRANCH  25  26
ENDBRANCH  24  25
ENDBRANCH  23  24
ENDBRANCH  21  23
ENDBRANCH   6  21
TORSDOF 6
ENDMDL
MODEL 3
REMARK VINA RESULT:      -7.0      4.167      6.601
REMARK  Name = 
REMARK  6 active torsions:
REMARK  status: ('A' for Active; 'I' for Inactive)
REMARK    1  A    between atoms: C_9  and  C_10
REMARK    2  A    between atoms: C_20  and  C_21
REMARK    3  A    between atoms: C_21  and  C_23
REMARK    4  A    between atoms: C_23  and  C_24
REMARK    5  A    between atoms: C_24  and  C_25
REMARK    6  A    between atoms: C_25  and  C_26
REMARK                            x       y       z     vdW  Elec       q    Type
REMARK                         _______ _______ _______ _____ _____    ______ ____
ROOT
ATOM      1  C   UNL     1      -9.815  15.705  68.221  0.00  0.00    -0.009 C 
ATOM      2  C   UNL     1      -9.236  16.914  68.297  0.00  0.00    -0.045 C 
ATOM      3  C   UNL     1      -7.796  16.981  67.557  0.00  0.00    +0.018 C 
ATOM      4  C   UNL     1      -6.964  17.033  68.969  0.00  0.00    +0.004 C 
ATOM      5  C   UNL     1      -5.875  17.992  68.659  0.00  0.00    +0.000 C 
ATOM      6  C   UNL     1      -6.199  18.516  67.157  0.00  0.00    +0.000 C 
ATOM      7  C   UNL     1      -7.780  18.622  67.498  0.00  0.00    +0.003 C 
ATOM      8  C   UNL     1      -7.965  19.168  68.816  0.00  0.00    +0.000 C 
ATOM      9  C   UNL     1      -8.561  18.970  66.348  0.00  0.00    +0.001 C 
ATOM     10  C   UNL     1      -9.950  18.381  66.446  0.00  0.00    +0.004 C 
ATOM     11  C   UNL     1     -10.184  18.001  67.877  0.00  0.00    +0.022 C 
ENDROOT
BRANCH   1  15
ATOM     12  C   UNL     1      -9.376  13.380  67.542  0.00  0.00    -0.005 C 
ATOM     13  C   UNL     1     -10.014  13.463  66.483  0.00  0.00    -0.026 C 
ATOM     14  C   UNL     1     -10.552  14.803  66.210  0.00  0.00    -0.024 C 
ATOM     15  C   UNL     1     -10.945  15.472  67.298  0.00  0.00    -0.005 C 
ATOM     16  C   UNL     1     -11.135  15.072  64.859  0.00  0.00    +0.059 C 
ATOM     17  C   UNL     1     -12.298  13.885  64.918  0.00  0.00    +0.157 C 
ATOM     18  O   UNL     1     -12.720  14.174  63.476  0.00  0.00    -0.223 OA
ATOM     19  C   UNL     1     -11.210  12.728  64.429  0.00  0.00    +0.038 C 
ATOM     20  C   UNL     1     -10.509  12.291  65.694  0.00  0.00    +0.029 C 
ENDBRANCH   1  15
BRANCH   6  21
ATOM     21  C   UNL     1      -5.902  20.135  67.598  0.00  0.00    +0.000 C 
ATOM     22  C   UNL     1      -5.785  20.612  66.048  0.00  0.00    +0.000 C 
BRANCH  21  23
ATOM     23  C   UNL     1      -4.298  19.896  67.740  0.00  0.00    +0.000 C 
BRANCH  23  24
ATOM     24  C   UNL     1      -3.803  20.780  68.838  0.00  0.00    +0.000 C 
BRANCH  24  25
ATOM     25  C   UNL     1      -4.875  21.183  69.803  0.00  0.00    +0.000 C 
BRANCH  25  26
ATOM     26  C   UNL     1      -4.515  20.900  71.248  0.00  0.00    +0.000 C 
ATOM     27  C   UNL     1      -3.062  20.483  71.341  0.00  0.00    +0.000 C 
ATOM     28  C   UNL     1      -5.392  19.761  71.755  0.00  0.00    +0.000 C 
ENDBRANCH  25  26
ENDBRANCH  24  25
ENDBRANCH  23  24
ENDBRANCH  21  23
ENDBRANCH   6  21
TORSDOF 6
ENDMDL
MODEL 4
REMARK VINA RESULT:      -6.7      3.326      9.387
REMARK  Name = 
REMARK  6 active torsions:
REMARK  status: ('A' for Active; 'I' for Inactive)
REMARK    1  A    between atoms: C_9  and  C_10
REMARK    2  A    between atoms: C_20  and  C_21
REMARK    3  A    between atoms: C_21  and  C_23
REMARK    4  A    between atoms: C_23  and  C_24
REMARK    5  A    between atoms: C_24  and  C_25
REMARK    6  A    between atoms: C_25  and  C_26
REMARK                            x       y       z     vdW  Elec       q    Type
REMARK                         _______ _______ _______ _____ _____    ______ ____
ROOT
ATOM      1  C   UNL     1     -11.273  11.621  68.463  0.00  0.00    -0.009 C 
ATOM      2  C   UNL     1     -10.638  10.597  69.054  0.00  0.00    -0.045 C 
ATOM      3  C   UNL     1     -11.645   9.463  69.623  0.00  0.00    +0.018 C 
ATOM      4  C   UNL     1     -11.393   9.886  71.188  0.00  0.00    +0.004 C 
ATOM      5  C   UNL     1     -11.372   8.570  71.872  0.00  0.00    +0.000 C 
ATOM      6  C   UNL     1     -11.494   7.478  70.676  0.00  0.00    +0.000 C 
ATOM      7  C   UNL     1     -10.467   8.325  69.752  0.00  0.00    +0.003 C 
ATOM      8  C   UNL     1      -9.380   8.825  70.552  0.00  0.00    +0.000 C 
ATOM      9  C   UNL     1     -10.331   7.767  68.439  0.00  0.00    +0.001 C 
ATOM     10  C   UNL     1     -10.023   8.847  67.427  0.00  0.00    +0.004 C 
ATOM     11  C   UNL     1      -9.546  10.053  68.179  0.00  0.00    +0.022 C 
ENDROOT
BRANCH   1  15
ATOM     12  C   UNL     1     -10.572  13.965  68.190  0.00  0.00    -0.005 C 
ATOM     13  C   UNL     1     -11.077  14.090  67.065  0.00  0.00    -0.026 C 
ATOM     14  C   UNL     1     -11.817  12.908  66.605  0.00  0.00    -0.024 C 
ATOM     15  C   UNL     1     -11.290  11.742  66.990  0.00  0.00    -0.005 C 
ATOM     16  C   UNL     1     -12.656  13.031  65.372  0.00  0.00    +0.059 C 
ATOM     17  C   UNL     1     -11.424  13.485  64.352  0.00  0.00    +0.157 C 
ATOM     18  O   UNL     1     -12.405  13.698  63.199  0.00  0.00    -0.223 OA
ATOM     19  C   UNL     1     -11.551  15.072  64.830  0.00  0.00    +0.038 C 
ATOM     20  C   UNL     1     -10.725  15.170  66.090  0.00  0.00    +0.029 C 
ENDBRANCH   1  15
BRANCH   6  21
ATOM     21  C   UNL     1     -10.251   6.525  71.344  0.00  0.00    +0.000 C 
ATOM     22  C   UNL     1     -10.514   5.314  70.292  0.00  0.00    +0.000 C 
BRANCH  21  23
ATOM     23  C   UNL     1     -11.229   5.878  72.472  0.00  0.00    +0.000 C 
BRANCH  23  24
ATOM     24  C   UNL     1     -10.368   5.358  73.577  0.00  0.00    +0.000 C 
BRANCH  24  25
ATOM     25  C   UNL     1     -10.019   6.400  74.595  0.00  0.00    +0.000 C 
BRANCH  25  26
ATOM     26  C   UNL     1      -8.532   6.685  74.672  0.00  0.00    +0.000 C 
ATOM     27  C   UNL     1      -8.241   8.048  74.078  0.00  0.00    +0.000 C 
ATOM     28  C   UNL     1      -7.790   5.625  73.867  0.00  0.00    +0.000 C 
ENDBRANCH  25  26
ENDBRANCH  24  25
ENDBRANCH  23  24
ENDBRANCH  21  23
ENDBRANCH   6  21
TORSDOF 6
ENDMDL
MODEL 5
REMARK VINA RESULT:      -6.6      3.921      8.700
REMARK  Name = 
REMARK  6 active torsions:
REMARK  status: ('A' for Active; 'I' for Inactive)
REMARK    1  A    between atoms: C_9  and  C_10
REMARK    2  A    between atoms: C_20  and  C_21
REMARK    3  A    between atoms: C_21  and  C_23
REMARK    4  A    between atoms: C_23  and  C_24
REMARK    5  A    between atoms: C_24  and  C_25
REMARK    6  A    between atoms: C_25  and  C_26
REMARK                            x       y       z     vdW  Elec       q    Type
REMARK                         _______ _______ _______ _____ _____    ______ ____
ROOT
ATOM      1  C   UNL     1      -9.938  17.702  67.163  0.00  0.00    -0.009 C 
ATOM      2  C   UNL     1     -10.485  16.476  67.163  0.00  0.00    -0.045 C 
ATOM      3  C   UNL     1      -9.652  15.404  66.281  0.00  0.00    +0.018 C 
ATOM      4  C   UNL     1     -10.774  15.371  65.084  0.00  0.00    +0.004 C 
ATOM      5  C   UNL     1     -10.789  13.938  64.704  0.00  0.00    +0.000 C 
ATOM      6  C   UNL     1      -9.783  13.218  65.757  0.00  0.00    +0.000 C 
ATOM      7  C   UNL     1     -10.374  14.103  66.978  0.00  0.00    +0.003 C 
ATOM      8  C   UNL     1     -11.804  14.210  66.865  0.00  0.00    +0.000 C 
ATOM      9  C   UNL     1      -9.660  13.883  68.202  0.00  0.00    +0.001 C 
ATOM     10  C   UNL     1      -9.683  15.124  69.066  0.00  0.00    +0.004 C 
ATOM     11  C   UNL     1     -10.781  16.011  68.561  0.00  0.00    +0.022 C 
ENDROOT
BRANCH   1  15
ATOM     12  C   UNL     1      -8.745  19.623  66.190  0.00  0.00    -0.005 C 
ATOM     13  C   UNL     1      -7.854  19.634  67.050  0.00  0.00    -0.026 C 
ATOM     14  C   UNL     1      -7.950  18.542  68.028  0.00  0.00    -0.024 C 
ATOM     15  C   UNL     1      -9.201  18.194  68.346  0.00  0.00    -0.005 C 
ATOM     16  C   UNL     1      -6.804  18.323  68.964  0.00  0.00    +0.059 C 
ATOM     17  C   UNL     1      -6.832  19.838  69.650  0.00  0.00    +0.157 C 
ATOM     18  O   UNL     1      -5.574  19.534  70.464  0.00  0.00    -0.223 OA
ATOM     19  C   UNL     1      -5.940  20.472  68.399  0.00  0.00    +0.038 C 
ATOM     20  C   UNL     1      -6.949  20.795  67.322  0.00  0.00    +0.029 C 
ENDBRANCH   1  15
BRANCH   6  21
ATOM     21  C   UNL     1     -10.884  11.946  66.025  0.00  0.00    +0.000 C 
ATOM     22  C   UNL     1      -9.763  11.036  66.772  0.00  0.00    +0.000 C 
BRANCH  21  23
ATOM     23  C   UNL     1     -10.595  11.270  64.573  0.00  0.00    +0.000 C 
BRANCH  23  24
ATOM     24  C   UNL     1      -9.888   9.974  64.807  0.00  0.00    +0.000 C 
BRANCH  24  25
ATOM     25  C   UNL     1      -8.851   9.670  63.770  0.00  0.00    +0.000 C 
BRANCH  25  26
ATOM     26  C   UNL     1      -9.209  10.199  62.395  0.00  0.00    +0.000 C 
ATOM     27  C   UNL     1      -9.419   9.042  61.441  0.00  0.00    +0.000 C 
ATOM     28  C   UNL     1      -8.057  11.058  61.887  0.00  0.00    +0.000 C 
ENDBRANCH  25  26
ENDBRANCH  24  25
ENDBRANCH  23  24
ENDBRANCH  21  23
ENDBRANCH   6  21
TORSDOF 6
ENDMDL
MODEL 6
REMARK VINA RESULT:      -6.6      2.815      9.024
REMARK  Name = 
REMARK  6 active torsions:
REMARK  status: ('A' for Active; 'I' for Inactive)
REMARK    1  A    between atoms: C_9  and  C_10
REMARK    2  A    between atoms: C_20  and  C_21
REMARK    3  A    between atoms: C_21  and  C_23
REMARK    4  A    between atoms: C_23  and  C_24
REMARK    5  A    between atoms: C_24  and  C_25
REMARK    6  A    between atoms: C_25  and  C_26
REMARK                            x       y       z     vdW  Elec       q    Type
REMARK                         _______ _______ _______ _____ _____    ______ ____
ROOT
ATOM      1  C   UNL     1      -9.564  15.142  65.859  0.00  0.00    -0.009 C 
ATOM      2  C   UNL     1     -10.228  14.034  66.225  0.00  0.00    -0.045 C 
ATOM      3  C   UNL     1      -9.563  13.280  67.495  0.00  0.00    +0.018 C 
ATOM      4  C   UNL     1      -8.986  12.045  66.584  0.00  0.00    +0.004 C 
ATOM      5  C   UNL     1      -9.202  10.873  67.466  0.00  0.00    +0.000 C 
ATOM      6  C   UNL     1      -9.981  11.466  68.762  0.00  0.00    +0.000 C 
ATOM      7  C   UNL     1     -10.911  12.399  67.818  0.00  0.00    +0.003 C 
ATOM      8  C   UNL     1     -11.317  11.668  66.648  0.00  0.00    +0.000 C 
ATOM      9  C   UNL     1     -11.760  13.267  68.581  0.00  0.00    +0.001 C 
ATOM     10  C   UNL     1     -12.038  14.545  67.822  0.00  0.00    +0.004 C 
ATOM     11  C   UNL     1     -11.697  14.304  66.383  0.00  0.00    +0.022 C 
ENDROOT
BRANCH   1  15
ATOM     12  C   UNL     1      -7.496  16.337  66.454  0.00  0.00    -0.005 C 
ATOM     13  C   UNL     1      -8.070  17.197  67.137  0.00  0.00    -0.026 C 
ATOM     14  C   UNL     1      -9.518  16.990  67.269  0.00  0.00    -0.024 C 
ATOM     15  C   UNL     1     -10.104  16.479  66.181  0.00  0.00    -0.005 C 
ATOM     16  C   UNL     1     -10.269  17.829  68.254  0.00  0.00    +0.059 C 
ATOM     17  C   UNL     1      -9.862  19.300  67.595  0.00  0.00    +0.157 C 
ATOM     18  O   UNL     1     -10.561  20.046  68.733  0.00  0.00    -0.223 OA
ATOM     19  C   UNL     1      -8.409  19.312  68.401  0.00  0.00    +0.038 C 
ATOM     20  C   UNL     1      -7.470  18.512  67.529  0.00  0.00    +0.029 C 
ENDBRANCH   1  15
BRANCH   6  21
ATOM     21  C   UNL     1     -11.098  10.180  68.750  0.00  0.00    +0.000 C 
ATOM     22  C   UNL     1     -11.613  10.517  70.254  0.00  0.00    +0.000 C 
BRANCH  21  23
ATOM     23  C   UNL     1      -9.998   9.100  69.270  0.00  0.00    +0.000 C 
BRANCH  23  24
ATOM     24  C   UNL     1     -10.701   7.799  69.477  0.00  0.00    +0.000 C 
BRANCH  24  25
ATOM     25  C   UNL     1     -10.158   7.009  70.628  0.00  0.00    +0.000 C 
BRANCH  25  26
ATOM     26  C   UNL     1     -11.189   6.737  71.706  0.00  0.00    +0.000 C 
ATOM     27  C   UNL     1     -12.578   6.994  71.161  0.00  0.00    +0.000 C 
ATOM     28  C   UNL     1     -10.932   7.681  72.875  0.00  0.00    +0.000 C 
ENDBRANCH  25  26
ENDBRANCH  24  25
ENDBRANCH  23  24
ENDBRANCH  21  23
ENDBRANCH   6  21
TORSDOF 6
ENDMDL
MODEL 7
REMARK VINA RESULT:      -6.6      3.160      9.140
REMARK  Name = 
REMARK  6 active torsions:
REMARK  status: ('A' for Active; 'I' for Inactive)
REMARK    1  A    between atoms: C_9  and  C_10
REMARK    2  A    between atoms: C_20  and  C_21
REMARK    3  A    between atoms: C_21  and  C_23
REMARK    4  A    between atoms: C_23  and  C_24
REMARK    5  A    between atoms: C_24  and  C_25
REMARK    6  A    between atoms: C_25  and  C_26
REMARK                            x       y       z     vdW  Elec       q    Type
REMARK                         _______ _______ _______ _____ _____    ______ ____
ROOT
ATOM      1  C   UNL     1      -7.869  17.374  66.396  0.00  0.00    -0.009 C 
ATOM      2  C   UNL     1      -9.029  16.745  66.643  0.00  0.00    -0.045 C 
ATOM      3  C   UNL     1      -8.864  15.455  67.610  0.00  0.00    +0.018 C 
ATOM      4  C   UNL     1      -9.107  14.387  66.389  0.00  0.00    +0.004 C 
ATOM      5  C   UNL     1      -9.918  13.334  67.047  0.00  0.00    +0.000 C 
ATOM      6  C   UNL     1     -10.191  13.896  68.546  0.00  0.00    +0.000 C 
ATOM      7  C   UNL     1     -10.465  15.387  67.974  0.00  0.00    +0.003 C 
ATOM      8  C   UNL     1     -11.245  15.318  66.768  0.00  0.00    +0.000 C 
ATOM      9  C   UNL     1     -10.657  16.344  69.024  0.00  0.00    +0.001 C 
ATOM     10  C   UNL     1     -10.193  17.716  68.590  0.00  0.00    +0.004 C 
ATOM     11  C   UNL     1     -10.088  17.709  67.095  0.00  0.00    +0.022 C 
ENDROOT
BRANCH   1  15
ATOM     12  C   UNL     1      -5.408  17.292  66.408  0.00  0.00    -0.005 C 
ATOM     13  C   UNL     1      -5.287  18.081  67.356  0.00  0.00    -0.026 C 
ATOM     14  C   UNL     1      -6.561  18.515  67.943  0.00  0.00    -0.024 C 
ATOM     15  C   UNL     1      -7.556  18.656  67.061  0.00  0.00    -0.005 C 
ATOM     16  C   UNL     1      -6.527  19.278  69.230  0.00  0.00    +0.059 C 
ATOM     17  C   UNL     1      -5.585  20.532  68.678  0.00  0.00    +0.157 C 
ATOM     18  O   UNL     1      -5.521  21.149  70.076  0.00  0.00    -0.223 OA
ATOM     19  C   UNL     1      -4.193  19.662  68.934  0.00  0.00    +0.038 C 
ATOM     20  C   UNL     1      -4.026  18.814  67.695  0.00  0.00    +0.029 C 
ENDBRANCH   1  15
BRANCH   6  21
ATOM     21  C   UNL     1     -11.837  13.464  68.468  0.00  0.00    +0.000 C 
ATOM     22  C   UNL     1     -12.027  13.611  70.076  0.00  0.00    +0.000 C 
BRANCH  21  23
ATOM     23  C   UNL     1     -11.517  11.872  68.560  0.00  0.00    +0.000 C 
BRANCH  23  24
ATOM     24  C   UNL     1     -11.982  11.391  69.897  0.00  0.00    +0.000 C 
BRANCH  24  25
ATOM     25  C   UNL     1     -11.264  10.163  70.366  0.00  0.00    +0.000 C 
BRANCH  25  26
ATOM     26  C   UNL     1     -12.149   9.219  71.156  0.00  0.00    +0.000 C 
ATOM     27  C   UNL     1     -13.202  10.010  71.904  0.00  0.00    +0.000 C 
ATOM     28  C   UNL     1     -11.286   8.467  72.161  0.00  0.00    +0.000 C 
ENDBRANCH  25  26
ENDBRANCH  24  25
ENDBRANCH  23  24
ENDBRANCH  21  23
ENDBRANCH   6  21
TORSDOF 6
ENDMDL
MODEL 8
REMARK VINA RESULT:      -6.4      3.088      8.879
REMARK  Name = 
REMARK  6 active torsions:
REMARK  status: ('A' for Active; 'I' for Inactive)
REMARK    1  A    between atoms: C_9  and  C_10
REMARK    2  A    between atoms: C_20  and  C_21
REMARK    3  A    between atoms: C_21  and  C_23
REMARK    4  A    between atoms: C_23  and  C_24
REMARK    5  A    between atoms: C_24  and  C_25
REMARK    6  A    between atoms: C_25  and  C_26
REMARK                            x       y       z     vdW  Elec       q    Type
REMARK                         _______ _______ _______ _____ _____    ______ ____
ROOT
ATOM      1  C   UNL     1      -9.424  14.851  65.795  0.00  0.00    -0.009 C 
ATOM      2  C   UNL     1     -10.114  13.778  66.213  0.00  0.00    -0.045 C 
ATOM      3  C   UNL     1      -9.657  13.254  67.676  0.00  0.00    +0.018 C 
ATOM      4  C   UNL     1      -8.906  11.927  67.073  0.00  0.00    +0.004 C 
ATOM      5  C   UNL     1      -9.242  10.889  68.078  0.00  0.00    +0.000 C 
ATOM      6  C   UNL     1     -10.243  11.630  69.121  0.00  0.00    +0.000 C 
ATOM      7  C   UNL     1     -11.020  12.366  67.905  0.00  0.00    +0.003 C 
ATOM      8  C   UNL     1     -11.205  11.451  66.810  0.00  0.00    +0.000 C 
ATOM      9  C   UNL     1     -12.006  13.295  68.375  0.00  0.00    +0.001 C 
ATOM     10  C   UNL     1     -12.180  14.432  67.393  0.00  0.00    +0.004 C 
ATOM     11  C   UNL     1     -11.594  13.998  66.084  0.00  0.00    +0.022 C 
ENDROOT
BRANCH   1  15
ATOM     12  C   UNL     1      -7.505  16.224  66.498  0.00  0.00    -0.005 C 
ATOM     13  C   UNL     1      -8.201  17.149  66.940  0.00  0.00    -0.026 C 
ATOM     14  C   UNL     1      -9.646  16.894  66.882  0.00  0.00    -0.024 C 
ATOM     15  C   UNL     1     -10.041  16.193  65.814  0.00  0.00    -0.005 C 
ATOM     16  C   UNL     1     -10.563  17.836  67.596  0.00  0.00    +0.059 C 
ATOM     17  C   UNL     1     -10.095  19.207  66.780  0.00  0.00    +0.157 C 
ATOM     18  O   UNL     1     -10.982  20.083  67.666  0.00  0.00    -0.223 OA
ATOM     19  C   UNL     1      -8.787  19.414  67.784  0.00  0.00    +0.038 C 
ATOM     20  C   UNL     1      -7.703  18.537  67.204  0.00  0.00    +0.029 C 
ENDBRANCH   1  15
BRANCH   6  21
ATOM     21  C   UNL     1     -11.312  10.303  69.123  0.00  0.00    +0.000 C 
ATOM     22  C   UNL     1     -12.047  10.806  70.483  0.00  0.00    +0.000 C 
BRANCH  21  23
ATOM     23  C   UNL     1     -10.270   9.349  69.931  0.00  0.00    +0.000 C 
BRANCH  23  24
ATOM     24  C   UNL     1     -10.725   7.936  69.764  0.00  0.00    +0.000 C 
BRANCH  24  25
ATOM     25  C   UNL     1      -9.955   7.186  68.720  0.00  0.00    +0.000 C 
BRANCH  25  26
ATOM     26  C   UNL     1     -10.604   7.233  67.351  0.00  0.00    +0.000 C 
ATOM     27  C   UNL     1     -10.908   5.826  66.880  0.00  0.00    +0.000 C 
ATOM     28  C   UNL     1      -9.632   7.885  66.374  0.00  0.00    +0.000 C 
ENDBRANCH  25  26
ENDBRANCH  24  25
ENDBRANCH  23  24
ENDBRANCH  21  23
ENDBRANCH   6  21
TORSDOF 6
ENDMDL
MODEL 9
REMARK VINA RESULT:      -6.3      4.387      9.538
REMARK  Name = 
REMARK  6 active torsions:
REMARK  status: ('A' for Active; 'I' for Inactive)
REMARK    1  A    between atoms: C_9  and  C_10
REMARK    2  A    between atoms: C_20  and  C_21
REMARK    3  A    between atoms: C_21  and  C_23
REMARK    4  A    between atoms: C_23  and  C_24
REMARK    5  A    between atoms: C_24  and  C_25
REMARK    6  A    between atoms: C_25  and  C_26
REMARK                            x       y       z     vdW  Elec       q    Type
REMARK                         _______ _______ _______ _____ _____    ______ ____
ROOT
ATOM      1  C   UNL     1     -10.096  11.456  68.472  0.00  0.00    -0.009 C 
ATOM      2  C   UNL     1      -9.701  10.433  69.247  0.00  0.00    -0.045 C 
ATOM      3  C   UNL     1     -10.831   9.284  69.415  0.00  0.00    +0.018 C 
ATOM      4  C   UNL     1     -11.159   9.697  70.968  0.00  0.00    +0.004 C 
ATOM      5  C   UNL     1     -11.366   8.376  71.609  0.00  0.00    +0.000 C 
ATOM      6  C   UNL     1     -11.041   7.292  70.444  0.00  0.00    +0.000 C 
ATOM      7  C   UNL     1      -9.762   8.158  69.950  0.00  0.00    +0.003 C 
ATOM      8  C   UNL     1      -9.038   8.661  71.087  0.00  0.00    +0.000 C 
ATOM      9  C   UNL     1      -9.161   7.611  68.769  0.00  0.00    +0.001 C 
ATOM     10  C   UNL     1      -8.525   8.703  67.939  0.00  0.00    +0.004 C 
ATOM     11  C   UNL     1      -8.362   9.908  68.816  0.00  0.00    +0.022 C 
ENDROOT
BRANCH   1  15
ATOM     12  C   UNL     1     -11.965  12.658  67.413  0.00  0.00    -0.005 C 
ATOM     13  C   UNL     1     -11.685  12.287  66.265  0.00  0.00    -0.026 C 
ATOM     14  C   UNL     1     -10.552  11.355  66.195  0.00  0.00    -0.024 C 
ATOM     15  C   UNL     1      -9.588  11.589  67.091  0.00  0.00    -0.005 C 
ATOM     16  C   UNL     1     -10.277  10.667  64.895  0.00  0.00    +0.059 C 
ATOM     17  C   UNL     1     -10.060  12.049  63.995  0.00  0.00    +0.157 C 
ATOM     18  O   UNL     1      -9.921  11.235  62.708  0.00  0.00    -0.223 OA
ATOM     19  C   UNL     1     -11.699  12.221  63.778  0.00  0.00    +0.038 C 
ATOM     20  C   UNL     1     -12.185  12.941  65.014  0.00  0.00    +0.029 C 
ENDBRANCH   1  15
BRANCH   6  21
ATOM     21  C   UNL     1     -10.106   6.346  71.508  0.00  0.00    +0.000 C 
ATOM     22  C   UNL     1     -10.118   5.071  70.499  0.00  0.00    +0.000 C 
BRANCH  21  23
ATOM     23  C   UNL     1     -11.408   5.823  72.331  0.00  0.00    +0.000 C 
BRANCH  23  24
ATOM     24  C   UNL     1     -10.934   5.301  73.648  0.00  0.00    +0.000 C 
BRANCH  24  25
ATOM     25  C   UNL     1      -9.999   6.236  74.352  0.00  0.00    +0.000 C 
BRANCH  25  26
ATOM     26  C   UNL     1      -8.912   5.519  75.129  0.00  0.00    +0.000 C 
ATOM     27  C   UNL     1      -8.231   6.491  76.071  0.00  0.00    +0.000 C 
ATOM     28  C   UNL     1      -7.882   4.980  74.143  0.00  0.00    +0.000 C 
ENDBRANCH  25  26
ENDBRANCH  24  25
ENDBRANCH  23  24
ENDBRANCH  21  23
ENDBRANCH   6  21
TORSDOF 6
ENDMDL
