MODEL 1
REMARK VINA RESULT:      -6.4      0.000      0.000
REMARK  Name = 
REMARK  10 active torsions:
REMARK  status: ('A' for Active; 'I' for Inactive)
REMARK    1  A    between atoms: C_2  and  N_3
REMARK    2  A    between atoms: N_3  and  C_4
REMARK    3  A    between atoms: N_3  and  C_6
REMARK    4  A    between atoms: C_6  and  C_7
REMARK    5  A    between atoms: C_8  and  C_9
REMARK    6  A    between atoms: C_9  and  O_10
REMARK    7  A    between atoms: O_10  and  C_11
REMARK    8  A    between atoms: C_11  and  C_13
REMARK    9  A    between atoms: C_13  and  C_15
REMARK   10  A    between atoms: C_13  and  C_21
REMARK                            x       y       z     vdW  Elec       q    Type
REMARK                         _______ _______ _______ _____ _____    ______ ____
ROOT
ATOM      1  C   UNL     1     -11.163  12.956  67.582  0.00  0.00    +0.233 C 
ATOM      2  O   UNL     1     -12.232  13.826  67.835  0.00  0.00    -0.210 OA
ENDROOT
BRANCH   1   3
ATOM      3  C   UNL     1     -11.386  12.416  66.207  0.00  0.00    +0.015 A 
ATOM      4  C   UNL     1     -12.293  13.114  65.422  0.00  0.00    -0.001 A 
ATOM      5  C   UNL     1     -12.316  12.971  64.059  0.00  0.00    -0.000 A 
ATOM      6  C   UNL     1     -11.396  12.103  63.495  0.00  0.00    -0.000 A 
ATOM      7  C   UNL     1     -10.792  11.160  64.317  0.00  0.00    -0.000 A 
ATOM      8  C   UNL     1     -10.641  11.392  65.674  0.00  0.00    -0.001 A 
ENDBRANCH   1   3
BRANCH   1   9
ATOM      9  C   UNL     1     -11.224  11.794  68.520  0.00  0.00    +0.043 C 
ATOM     10  C   UNL     1     -11.989  12.055  69.783  0.00  0.00    +0.003 C 
ATOM     11  C   UNL     1     -12.332  10.692  70.373  0.00  0.00    +0.000 C 
ATOM     12  C   UNL     1     -11.032   9.944  70.641  0.00  0.00    +0.000 C 
ATOM     13  C   UNL     1     -10.232   9.746  69.364  0.00  0.00    +0.000 C 
ATOM     14  C   UNL     1      -9.912  11.099  68.736  0.00  0.00    +0.003 C 
ENDBRANCH   1   9
BRANCH   1  15
ATOM     15  C   UNL     1      -9.881  13.709  67.664  0.00  0.00    +0.350 C 
ATOM     16  O   UNL     1      -9.321  14.182  66.651  0.00  0.00    -0.247 OA
BRANCH  15  17
ATOM     17  O   UNL     1      -9.553  14.258  68.887  0.00  0.00    -0.432 OA
BRANCH  17  18
ATOM     18  C   UNL     1      -9.398  15.629  69.140  0.00  0.00    +0.284 C 
BRANCH  18  20
ATOM     19  C   UNL     1     -11.535  15.981  70.612  0.00  0.00    -0.069 C 
ATOM     20  C   UNL     1     -10.612  16.100  69.830  0.00  0.00    -0.042 C 
BRANCH  19  21
ATOM     21  C   UNL     1     -12.828  15.777  71.291  0.00  0.00    +0.150 C 
BRANCH  21  22
ATOM     22  N   UNL     1     -12.710  14.791  72.359  0.00  0.00    -0.262 NA
BRANCH  22  23
ATOM     23  C   UNL     1     -13.858  13.892  72.312  0.00  0.00    +0.073 C 
ATOM     24  C   UNL     1     -15.007  14.578  71.600  0.00  0.00    +0.019 C 
ENDBRANCH  22  23
BRANCH  22  26
ATOM     25  C   UNL     1     -12.353  15.493  74.240  0.00  0.00    +0.019 C 
ATOM     26  C   UNL     1     -12.710  15.400  73.669  0.00  0.00    +0.073 C 
ENDBRANCH  22  26
ENDBRANCH  21  22
ENDBRANCH  19  21
ENDBRANCH  18  20
ENDBRANCH  17  18
ENDBRANCH  15  17
ENDBRANCH   1  15
TORSDOF 10
ENDMDL
MODEL 2
REMARK VINA RESULT:      -6.2      1.440      3.703
REMARK  Name = 
REMARK  10 active torsions:
REMARK  status: ('A' for Active; 'I' for Inactive)
REMARK    1  A    between atoms: C_2  and  N_3
REMARK    2  A    between atoms: N_3  and  C_4
REMARK    3  A    between atoms: N_3  and  C_6
REMARK    4  A    between atoms: C_6  and  C_7
REMARK    5  A    between atoms: C_8  and  C_9
REMARK    6  A    between atoms: C_9  and  O_10
REMARK    7  A    between atoms: O_10  and  C_11
REMARK    8  A    between atoms: C_11  and  C_13
REMARK    9  A    between atoms: C_13  and  C_15
REMARK   10  A    between atoms: C_13  and  C_21
REMARK                            x       y       z     vdW  Elec       q    Type
REMARK                         _______ _______ _______ _____ _____    ______ ____
ROOT
ATOM      1  C   UNL     1     -10.374  12.265  67.758  0.00  0.00    +0.233 C 
ATOM      2  O   UNL     1      -9.043  11.881  67.968  0.00  0.00    -0.210 OA
ENDROOT
BRANCH   1   3
ATOM      3  C   UNL     1     -10.645  12.041  66.305  0.00  0.00    +0.015 A 
ATOM      4  C   UNL     1     -11.405  13.017  65.674  0.00  0.00    -0.001 A 
ATOM      5  C   UNL     1     -11.413  13.142  64.309  0.00  0.00    -0.000 A 
ATOM      6  C   UNL     1     -10.633  12.258  63.584  0.00  0.00    -0.000 A 
ATOM      7  C   UNL     1     -10.213  11.089  64.207  0.00  0.00    -0.000 A 
ATOM      8  C   UNL     1     -10.063  11.030  65.582  0.00  0.00    -0.001 A 
ENDBRANCH   1   3
BRANCH   1   9
ATOM      9  C   UNL     1     -10.523  13.731  68.007  0.00  0.00    +0.043 C 
ATOM     10  C   UNL     1      -9.228  14.475  68.130  0.00  0.00    +0.003 C 
ATOM     11  C   UNL     1      -9.550  15.950  67.920  0.00  0.00    +0.000 C 
ATOM     12  C   UNL     1     -10.554  16.376  68.984  0.00  0.00    +0.000 C 
ATOM     13  C   UNL     1     -11.838  15.568  68.894  0.00  0.00    +0.000 C 
ATOM     14  C   UNL     1     -11.530  14.084  69.061  0.00  0.00    +0.003 C 
ENDBRANCH   1   9
BRANCH   1  15
ATOM     15  C   UNL     1     -11.270  11.432  68.608  0.00  0.00    +0.350 C 
ATOM     16  O   UNL     1     -12.301  10.890  68.154  0.00  0.00    -0.247 OA
BRANCH  15  17
ATOM     17  O   UNL     1     -10.727  10.905  69.762  0.00  0.00    -0.432 OA
BRANCH  17  18
ATOM     18  C   UNL     1     -11.434  10.162  70.719  0.00  0.00    +0.284 C 
BRANCH  18  20
ATOM     19  C   UNL     1     -13.108  11.965  71.617  0.00  0.00    -0.069 C 
ATOM     20  C   UNL     1     -12.589  10.969  71.151  0.00  0.00    -0.042 C 
BRANCH  19  21
ATOM     21  C   UNL     1     -13.760  12.991  72.450  0.00  0.00    +0.150 C 
BRANCH  21  22
ATOM     22  N   UNL     1     -13.383  14.334  72.021  0.00  0.00    -0.262 NA
BRANCH  22  23
ATOM     23  C   UNL     1     -12.900  15.088  73.173  0.00  0.00    +0.073 C 
ATOM     24  C   UNL     1     -11.950  16.171  72.703  0.00  0.00    +0.019 C 
ENDBRANCH  22  23
BRANCH  22  26
ATOM     25  C   UNL     1     -15.176  15.081  71.402  0.00  0.00    +0.019 C 
ATOM     26  C   UNL     1     -14.500  15.070  71.479  0.00  0.00    +0.073 C 
ENDBRANCH  22  26
ENDBRANCH  21  22
ENDBRANCH  19  21
ENDBRANCH  18  20
ENDBRANCH  17  18
ENDBRANCH  15  17
ENDBRANCH   1  15
TORSDOF 10
ENDMDL
MODEL 3
REMARK VINA RESULT:      -6.2      0.895      1.434
REMARK  Name = 
REMARK  10 active torsions:
REMARK  status: ('A' for Active; 'I' for Inactive)
REMARK    1  A    between atoms: C_2  and  N_3
REMARK    2  A    between atoms: N_3  and  C_4
REMARK    3  A    between atoms: N_3  and  C_6
REMARK    4  A    between atoms: C_6  and  C_7
REMARK    5  A    between atoms: C_8  and  C_9
REMARK    6  A    between atoms: C_9  and  O_10
REMARK    7  A    between atoms: O_10  and  C_11
REMARK    8  A    between atoms: C_11  and  C_13
REMARK    9  A    between atoms: C_13  and  C_15
REMARK   10  A    between atoms: C_13  and  C_21
REMARK                            x       y       z     vdW  Elec       q    Type
REMARK                         _______ _______ _______ _____ _____    ______ ____
ROOT
ATOM      1  C   UNL     1     -10.852  13.574  66.831  0.00  0.00    +0.233 C 
ATOM      2  O   UNL     1     -12.042  14.221  67.193  0.00  0.00    -0.210 OA
ENDROOT
BRANCH   1   3
ATOM      3  C   UNL     1     -11.043  13.117  65.421  0.00  0.00    +0.015 A 
ATOM      4  C   UNL     1     -10.271  12.033  65.026  0.00  0.00    -0.001 A 
ATOM      5  C   UNL     1     -10.600  11.286  63.925  0.00  0.00    -0.000 A 
ATOM      6  C   UNL     1     -11.734  11.655  63.221  0.00  0.00    -0.000 A 
ATOM      7  C   UNL     1     -12.238  12.936  63.411  0.00  0.00    -0.000 A 
ATOM      8  C   UNL     1     -12.022  13.617  64.598  0.00  0.00    -0.001 A 
ENDBRANCH   1   3
BRANCH   1   9
ATOM      9  C   UNL     1     -10.670  12.347  67.664  0.00  0.00    +0.043 C 
ATOM     10  C   UNL     1     -11.822  12.035  68.571  0.00  0.00    +0.003 C 
ATOM     11  C   UNL     1     -11.675  10.573  68.975  0.00  0.00    +0.000 C 
ATOM     12  C   UNL     1     -10.335  10.403  69.680  0.00  0.00    +0.000 C 
ATOM     13  C   UNL     1      -9.177  10.788  68.774  0.00  0.00    +0.000 C 
ATOM     14  C   UNL     1      -9.328  12.238  68.326  0.00  0.00    +0.003 C 
ENDBRANCH   1   9
BRANCH   1  15
ATOM     15  C   UNL     1      -9.716  14.530  66.939  0.00  0.00    +0.350 C 
ATOM     16  O   UNL     1      -9.235  15.107  65.939  0.00  0.00    -0.247 OA
BRANCH  15  17
ATOM     17  O   UNL     1      -9.495  15.105  68.173  0.00  0.00    -0.432 OA
BRANCH  17  18
ATOM     18  C   UNL     1      -9.972  16.362  68.574  0.00  0.00    +0.284 C 
BRANCH  18  20
ATOM     19  C   UNL     1     -11.695  15.758  70.451  0.00  0.00    -0.069 C 
ATOM     20  C   UNL     1     -10.749  16.176  69.812  0.00  0.00    -0.042 C 
BRANCH  19  21
ATOM     21  C   UNL     1     -12.947  15.559  71.203  0.00  0.00    +0.150 C 
BRANCH  21  22
ATOM     22  N   UNL     1     -12.738  14.682  72.350  0.00  0.00    -0.262 NA
BRANCH  22  23
ATOM     23  C   UNL     1     -13.784  13.666  72.375  0.00  0.00    +0.073 C 
ATOM     24  C   UNL     1     -13.209  12.339  71.925  0.00  0.00    +0.019 C 
ENDBRANCH  22  23
BRANCH  22  26
ATOM     25  C   UNL     1     -12.462  15.615  74.142  0.00  0.00    +0.019 C 
ATOM     26  C   UNL     1     -12.814  15.393  73.604  0.00  0.00    +0.073 C 
ENDBRANCH  22  26
ENDBRANCH  21  22
ENDBRANCH  19  21
ENDBRANCH  18  20
ENDBRANCH  17  18
ENDBRANCH  15  17
ENDBRANCH   1  15
TORSDOF 10
ENDMDL
MODEL 4
REMARK VINA RESULT:      -6.0      2.380      5.141
REMARK  Name = 
REMARK  10 active torsions:
REMARK  status: ('A' for Active; 'I' for Inactive)
REMARK    1  A    between atoms: C_2  and  N_3
REMARK    2  A    between atoms: N_3  and  C_4
REMARK    3  A    between atoms: N_3  and  C_6
REMARK    4  A    between atoms: C_6  and  C_7
REMARK    5  A    between atoms: C_8  and  C_9
REMARK    6  A    between atoms: C_9  and  O_10
REMARK    7  A    between atoms: O_10  and  C_11
REMARK    8  A    between atoms: C_11  and  C_13
REMARK    9  A    between atoms: C_13  and  C_15
REMARK   10  A    between atoms: C_13  and  C_21
REMARK                            x       y       z     vdW  Elec       q    Type
REMARK                         _______ _______ _______ _____ _____    ______ ____
ROOT
ATOM      1  C   UNL     1     -10.623  12.964  68.143  0.00  0.00    +0.233 C 
ATOM      2  O   UNL     1      -9.223  12.989  68.192  0.00  0.00    -0.210 OA
ENDROOT
BRANCH   1   3
ATOM      3  C   UNL     1     -10.993  13.290  66.732  0.00  0.00    +0.015 A 
ATOM      4  C   UNL     1     -10.210  12.699  65.750  0.00  0.00    -0.001 A 
ATOM      5  C   UNL     1     -10.646  12.600  64.454  0.00  0.00    -0.000 A 
ATOM      6  C   UNL     1     -11.900  13.112  64.164  0.00  0.00    -0.000 A 
ATOM      7  C   UNL     1     -12.464  14.015  65.057  0.00  0.00    -0.000 A 
ATOM      8  C   UNL     1     -12.121  13.997  66.398  0.00  0.00    -0.001 A 
ENDBRANCH   1   3
BRANCH   1   9
ATOM      9  C   UNL     1     -11.179  14.054  69.001  0.00  0.00    +0.043 C 
ATOM     10  C   UNL     1     -10.188  15.113  69.379  0.00  0.00    +0.003 C 
ATOM     11  C   UNL     1     -10.995  16.324  69.833  0.00  0.00    +0.000 C 
ATOM     12  C   UNL     1     -11.860  15.907  71.015  0.00  0.00    +0.000 C 
ATOM     13  C   UNL     1     -12.814  14.785  70.639  0.00  0.00    +0.000 C 
ATOM     14  C   UNL     1     -12.026  13.577  70.143  0.00  0.00    +0.003 C 
ENDBRANCH   1   9
BRANCH   1  15
ATOM     15  C   UNL     1     -11.109  11.610  68.529  0.00  0.00    +0.350 C 
ATOM     16  O   UNL     1     -12.054  11.049  67.935  0.00  0.00    -0.247 OA
BRANCH  15  17
ATOM     17  O   UNL     1     -10.236  10.809  69.237  0.00  0.00    -0.432 OA
BRANCH  17  18
ATOM     18  C   UNL     1      -9.816   9.530  68.843  0.00  0.00    +0.284 C 
BRANCH  18  20
ATOM     19  C   UNL     1     -11.192   7.873  70.332  0.00  0.00    -0.069 C 
ATOM     20  C   UNL     1     -10.326   8.564  69.832  0.00  0.00    -0.042 C 
BRANCH  19  21
ATOM     21  C   UNL     1     -12.253   7.272  71.161  0.00  0.00    +0.150 C 
BRANCH  21  22
ATOM     22  N   UNL     1     -13.357   8.204  71.358  0.00  0.00    -0.262 NA
BRANCH  22  23
ATOM     23  C   UNL     1     -12.969   9.206  72.346  0.00  0.00    +0.073 C 
ATOM     24  C   UNL     1     -13.153  10.590  71.758  0.00  0.00    +0.019 C 
ENDBRANCH  22  23
BRANCH  22  26
ATOM     25  C   UNL     1     -14.997   7.060  71.757  0.00  0.00    +0.019 C 
ATOM     26  C   UNL     1     -14.541   7.552  71.867  0.00  0.00    +0.073 C 
ENDBRANCH  22  26
ENDBRANCH  21  22
ENDBRANCH  19  21
ENDBRANCH  18  20
ENDBRANCH  17  18
ENDBRANCH  15  17
ENDBRANCH   1  15
TORSDOF 10
ENDMDL
MODEL 5
REMARK VINA RESULT:      -6.0      1.335      4.509
REMARK  Name = 
REMARK  10 active torsions:
REMARK  status: ('A' for Active; 'I' for Inactive)
REMARK    1  A    between atoms: C_2  and  N_3
REMARK    2  A    between atoms: N_3  and  C_4
REMARK    3  A    between atoms: N_3  and  C_6
REMARK    4  A    between atoms: C_6  and  C_7
REMARK    5  A    between atoms: C_8  and  C_9
REMARK    6  A    between atoms: C_9  and  O_10
REMARK    7  A    between atoms: O_10  and  C_11
REMARK    8  A    between atoms: C_11  and  C_13
REMARK    9  A    between atoms: C_13  and  C_15
REMARK   10  A    between atoms: C_13  and  C_21
REMARK                            x       y       z     vdW  Elec       q    Type
REMARK                         _______ _______ _______ _____ _____    ______ ____
ROOT
ATOM      1  C   UNL     1     -11.080  13.381  67.630  0.00  0.00    +0.233 C 
ATOM      2  O   UNL     1     -12.187  14.002  68.225  0.00  0.00    -0.210 OA
ENDROOT
BRANCH   1   3
ATOM      3  C   UNL     1      -9.920  14.296  67.860  0.00  0.00    +0.015 A 
ATOM      4  C   UNL     1      -9.024  14.413  66.806  0.00  0.00    -0.001 A 
ATOM      5  C   UNL     1      -8.152  15.468  66.725  0.00  0.00    -0.000 A 
ATOM      6  C   UNL     1      -8.201  16.413  67.736  0.00  0.00    -0.000 A 
ATOM      7  C   UNL     1      -8.815  16.064  68.933  0.00  0.00    -0.000 A 
ATOM      8  C   UNL     1      -9.808  15.099  68.968  0.00  0.00    -0.001 A 
ENDBRANCH   1   3
BRANCH   1   9
ATOM      9  C   UNL     1     -11.281  13.297  66.152  0.00  0.00    +0.043 C 
ATOM     10  C   UNL     1     -12.479  14.041  65.645  0.00  0.00    +0.003 C 
ATOM     11  C   UNL     1     -12.274  14.230  64.146  0.00  0.00    +0.000 C 
ATOM     12  C   UNL     1     -12.144  12.855  63.503  0.00  0.00    +0.000 C 
ATOM     13  C   UNL     1     -10.966  12.082  64.075  0.00  0.00    +0.000 C 
ATOM     14  C   UNL     1     -11.134  11.917  65.581  0.00  0.00    +0.003 C 
ENDBRANCH   1   9
BRANCH   1  15
ATOM     15  C   UNL     1     -10.854  12.054  68.268  0.00  0.00    +0.350 C 
ATOM     16  O   UNL     1      -9.724  11.687  68.655  0.00  0.00    -0.247 OA
BRANCH  15  17
ATOM     17  O   UNL     1     -11.952  11.431  68.824  0.00  0.00    -0.432 OA
BRANCH  17  18
ATOM     18  C   UNL     1     -11.904  10.487  69.860  0.00  0.00    +0.284 C 
BRANCH  18  20
ATOM     19  C   UNL     1     -13.132  11.863  71.720  0.00  0.00    -0.069 C 
ATOM     20  C   UNL     1     -12.379  11.144  71.090  0.00  0.00    -0.042 C 
BRANCH  19  21
ATOM     21  C   UNL     1     -13.800  12.949  72.459  0.00  0.00    +0.150 C 
BRANCH  21  22
ATOM     22  N   UNL     1     -13.553  14.242  71.831  0.00  0.00    -0.262 NA
BRANCH  22  23
ATOM     23  C   UNL     1     -12.712  15.049  72.708  0.00  0.00    +0.073 C 
ATOM     24  C   UNL     1     -11.394  15.335  72.019  0.00  0.00    +0.019 C 
ENDBRANCH  22  23
BRANCH  22  26
ATOM     25  C   UNL     1     -15.330  15.045  71.234  0.00  0.00    +0.019 C 
ATOM     26  C   UNL     1     -14.770  14.988  71.616  0.00  0.00    +0.073 C 
ENDBRANCH  22  26
ENDBRANCH  21  22
ENDBRANCH  19  21
ENDBRANCH  18  20
ENDBRANCH  17  18
ENDBRANCH  15  17
ENDBRANCH   1  15
TORSDOF 10
ENDMDL
MODEL 6
REMARK VINA RESULT:      -5.8      2.963      5.597
REMARK  Name = 
REMARK  10 active torsions:
REMARK  status: ('A' for Active; 'I' for Inactive)
REMARK    1  A    between atoms: C_2  and  N_3
REMARK    2  A    between atoms: N_3  and  C_4
REMARK    3  A    between atoms: N_3  and  C_6
REMARK    4  A    between atoms: C_6  and  C_7
REMARK    5  A    between atoms: C_8  and  C_9
REMARK    6  A    between atoms: C_9  and  O_10
REMARK    7  A    between atoms: O_10  and  C_11
REMARK    8  A    between atoms: C_11  and  C_13
REMARK    9  A    between atoms: C_13  and  C_15
REMARK   10  A    between atoms: C_13  and  C_21
REMARK                            x       y       z     vdW  Elec       q    Type
REMARK                         _______ _______ _______ _____ _____    ______ ____
ROOT
ATOM      1  C   UNL     1     -11.385  12.499  67.835  0.00  0.00    +0.233 C 
ATOM      2  O   UNL     1     -12.118  11.404  68.313  0.00  0.00    -0.210 OA
ENDROOT
BRANCH   1   3
ATOM      3  C   UNL     1      -9.950  12.086  67.878  0.00  0.00    +0.015 A 
ATOM      4  C   UNL     1      -9.636  11.078  68.780  0.00  0.00    -0.001 A 
ATOM      5  C   UNL     1      -8.478  10.354  68.666  0.00  0.00    -0.000 A 
ATOM      6  C   UNL     1      -7.632  10.667  67.615  0.00  0.00    -0.000 A 
ATOM      7  C   UNL     1      -7.787  11.899  66.992  0.00  0.00    -0.000 A 
ATOM      8  C   UNL     1      -9.011  12.545  66.986  0.00  0.00    -0.001 A 
ENDBRANCH   1   3
BRANCH   1   9
ATOM      9  C   UNL     1     -11.533  13.654  68.771  0.00  0.00    +0.043 C 
ATOM     10  C   UNL     1     -10.315  14.520  68.886  0.00  0.00    +0.003 C 
ATOM     11  C   UNL     1     -10.776  15.844  69.485  0.00  0.00    +0.000 C 
ATOM     12  C   UNL     1     -11.405  15.562  70.844  0.00  0.00    +0.000 C 
ATOM     13  C   UNL     1     -12.598  14.629  70.722  0.00  0.00    +0.000 C 
ATOM     14  C   UNL     1     -12.164  13.311  70.088  0.00  0.00    +0.003 C 
ENDBRANCH   1   9
BRANCH   1  15
ATOM     15  C   UNL     1     -11.815  12.813  66.444  0.00  0.00    +0.350 C 
ATOM     16  O   UNL     1     -12.251  11.934  65.669  0.00  0.00    -0.247 OA
BRANCH  15  17
ATOM     17  O   UNL     1     -12.143  14.124  66.170  0.00  0.00    -0.432 OA
BRANCH  17  18
ATOM     18  C   UNL     1     -11.847  14.797  64.975  0.00  0.00    +0.284 C 
BRANCH  18  20
ATOM     19  C   UNL     1      -9.713  16.068  65.803  0.00  0.00    -0.069 C 
ATOM     20  C   UNL     1     -10.554  15.480  65.150  0.00  0.00    -0.042 C 
BRANCH  19  21
ATOM     21  C   UNL     1      -8.816  17.045  66.447  0.00  0.00    +0.150 C 
BRANCH  21  22
ATOM     22  N   UNL     1      -9.186  18.411  66.094  0.00  0.00    -0.262 NA
BRANCH  22  23
ATOM     23  C   UNL     1      -8.006  19.265  66.173  0.00  0.00    +0.073 C 
ATOM     24  C   UNL     1      -6.780  18.467  65.782  0.00  0.00    +0.019 C 
ENDBRANCH  22  23
BRANCH  22  26
ATOM     25  C   UNL     1     -10.517  19.522  67.169  0.00  0.00    +0.019 C 
ATOM     26  C   UNL     1     -10.165  18.965  67.001  0.00  0.00    +0.073 C 
ENDBRANCH  22  26
ENDBRANCH  21  22
ENDBRANCH  19  21
ENDBRANCH  18  20
ENDBRANCH  17  18
ENDBRANCH  15  17
ENDBRANCH   1  15
TORSDOF 10
ENDMDL
MODEL 7
REMARK VINA RESULT:      -5.8      2.598      5.547
REMARK  Name = 
REMARK  10 active torsions:
REMARK  status: ('A' for Active; 'I' for Inactive)
REMARK    1  A    between atoms: C_2  and  N_3
REMARK    2  A    between atoms: N_3  and  C_4
REMARK    3  A    between atoms: N_3  and  C_6
REMARK    4  A    between atoms: C_6  and  C_7
REMARK    5  A    between atoms: C_8  and  C_9
REMARK    6  A    between atoms: C_9  and  O_10
REMARK    7  A    between atoms: O_10  and  C_11
REMARK    8  A    between atoms: C_11  and  C_13
REMARK    9  A    between atoms: C_13  and  C_15
REMARK   10  A    between atoms: C_13  and  C_21
REMARK                            x       y       z     vdW  Elec       q    Type
REMARK                         _______ _______ _______ _____ _____    ______ ____
ROOT
ATOM      1  C   UNL     1     -11.128  12.456  67.618  0.00  0.00    +0.233 C 
ATOM      2  O   UNL     1     -12.011  11.431  67.985  0.00  0.00    -0.210 OA
ENDROOT
BRANCH   1   3
ATOM      3  C   UNL     1     -11.590  13.679  68.342  0.00  0.00    +0.015 A 
ATOM      4  C   UNL     1     -12.070  13.475  69.629  0.00  0.00    -0.001 A 
ATOM      5  C   UNL     1     -12.169  14.508  70.525  0.00  0.00    -0.000 A 
ATOM      6  C   UNL     1     -11.770  15.763  70.096  0.00  0.00    -0.000 A 
ATOM      7  C   UNL     1     -11.672  15.990  68.729  0.00  0.00    -0.000 A 
ATOM      8  C   UNL     1     -11.418  14.950  67.851  0.00  0.00    -0.001 A 
ENDBRANCH   1   3
BRANCH   1   9
ATOM      9  C   UNL     1     -11.260  12.740  66.157  0.00  0.00    +0.043 C 
ATOM     10  C   UNL     1     -12.573  13.343  65.758  0.00  0.00    +0.003 C 
ATOM     11  C   UNL     1     -12.366  13.970  64.384  0.00  0.00    +0.000 C 
ATOM     12  C   UNL     1     -11.927  12.875  63.420  0.00  0.00    +0.000 C 
ATOM     13  C   UNL     1     -10.630  12.223  63.871  0.00  0.00    +0.000 C 
ATOM     14  C   UNL     1     -10.806  11.624  65.263  0.00  0.00    +0.003 C 
ENDBRANCH   1   9
BRANCH   1  15
ATOM     15  C   UNL     1      -9.743  12.083  68.019  0.00  0.00    +0.350 C 
ATOM     16  O   UNL     1      -9.487  11.009  68.605  0.00  0.00    -0.247 OA
BRANCH  15  17
ATOM     17  O   UNL     1      -8.708  12.710  67.356  0.00  0.00    -0.432 OA
BRANCH  17  18
ATOM     18  C   UNL     1      -7.843  13.657  67.923  0.00  0.00    +0.284 C 
BRANCH  18  20
ATOM     19  C   UNL     1      -8.135  16.078  66.969  0.00  0.00    -0.069 C 
ATOM     20  C   UNL     1      -7.934  14.888  67.119  0.00  0.00    -0.042 C 
BRANCH  19  21
ATOM     21  C   UNL     1      -8.666  17.420  66.671  0.00  0.00    +0.150 C 
BRANCH  21  22
ATOM     22  N   UNL     1      -8.908  18.174  67.896  0.00  0.00    -0.262 NA
BRANCH  22  23
ATOM     23  C   UNL     1      -9.962  19.154  67.658  0.00  0.00    +0.073 C 
ATOM     24  C   UNL     1     -10.457  19.025  66.232  0.00  0.00    +0.019 C 
ENDBRANCH  22  23
BRANCH  22  26
ATOM     25  C   UNL     1      -7.459  19.258  68.837  0.00  0.00    +0.019 C 
ATOM     26  C   UNL     1      -7.742  18.910  68.325  0.00  0.00    +0.073 C 
ENDBRANCH  22  26
ENDBRANCH  21  22
ENDBRANCH  19  21
ENDBRANCH  18  20
ENDBRANCH  17  18
ENDBRANCH  15  17
ENDBRANCH   1  15
TORSDOF 10
ENDMDL
MODEL 8
REMARK VINA RESULT:      -5.8      2.708      6.950
REMARK  Name = 
REMARK  10 active torsions:
REMARK  status: ('A' for Active; 'I' for Inactive)
REMARK    1  A    between atoms: C_2  and  N_3
REMARK    2  A    between atoms: N_3  and  C_4
REMARK    3  A    between atoms: N_3  and  C_6
REMARK    4  A    between atoms: C_6  and  C_7
REMARK    5  A    between atoms: C_8  and  C_9
REMARK    6  A    between atoms: C_9  and  O_10
REMARK    7  A    between atoms: O_10  and  C_11
REMARK    8  A    between atoms: C_11  and  C_13
REMARK    9  A    between atoms: C_13  and  C_15
REMARK   10  A    between atoms: C_13  and  C_21
REMARK                            x       y       z     vdW  Elec       q    Type
REMARK                         _______ _______ _______ _____ _____    ______ ____
ROOT
ATOM      1  C   UNL     1      -9.596  15.942  67.876  0.00  0.00    +0.233 C 
ATOM      2  O   UNL     1      -9.935  15.453  66.607  0.00  0.00    -0.210 OA
ENDROOT
BRANCH   1   3
ATOM      3  C   UNL     1     -10.699  15.517  68.791  0.00  0.00    +0.015 A 
ATOM      4  C   UNL     1     -11.202  14.240  68.580  0.00  0.00    -0.001 A 
ATOM      5  C   UNL     1     -11.924  13.589  69.547  0.00  0.00    -0.000 A 
ATOM      6  C   UNL     1     -12.133  14.256  70.743  0.00  0.00    -0.000 A 
ATOM      7  C   UNL     1     -11.958  15.635  70.765  0.00  0.00    -0.000 A 
ATOM      8  C   UNL     1     -11.101  16.258  69.874  0.00  0.00    -0.001 A 
ENDBRANCH   1   3
BRANCH   1   9
ATOM      9  C   UNL     1      -9.597  17.436  67.859  0.00  0.00    +0.043 C 
ATOM     10  C   UNL     1     -10.404  18.044  66.752  0.00  0.00    +0.003 C 
ATOM     11  C   UNL     1     -10.666  19.493  67.148  0.00  0.00    +0.000 C 
ATOM     12  C   UNL     1      -9.324  20.192  67.324  0.00  0.00    +0.000 C 
ATOM     13  C   UNL     1      -8.486  19.524  68.402  0.00  0.00    +0.000 C 
ATOM     14  C   UNL     1      -8.246  18.061  68.043  0.00  0.00    +0.003 C 
ENDBRANCH   1   9
BRANCH   1  15
ATOM     15  C   UNL     1      -8.292  15.361  68.298  0.00  0.00    +0.350 C 
ATOM     16  O   UNL     1      -7.995  15.197  69.502  0.00  0.00    -0.247 OA
BRANCH  15  17
ATOM     17  O   UNL     1      -7.611  14.606  67.366  0.00  0.00    -0.432 OA
BRANCH  17  18
ATOM     18  C   UNL     1      -7.136  13.302  67.575  0.00  0.00    +0.284 C 
BRANCH  18  20
ATOM     19  C   UNL     1      -9.142  11.821  66.773  0.00  0.00    -0.069 C 
ATOM     20  C   UNL     1      -8.273  12.378  67.417  0.00  0.00    -0.042 C 
BRANCH  19  21
ATOM     21  C   UNL     1     -10.389  11.365  66.134  0.00  0.00    +0.150 C 
BRANCH  21  22
ATOM     22  N   UNL     1     -10.824  12.300  65.103  0.00  0.00    -0.262 NA
BRANCH  22  23
ATOM     23  C   UNL     1     -12.265  12.499  65.212  0.00  0.00    +0.073 C 
ATOM     24  C   UNL     1     -12.569  13.983  65.230  0.00  0.00    +0.019 C 
ENDBRANCH  22  23
BRANCH  22  26
ATOM     25  C   UNL     1     -10.163  11.850  63.227  0.00  0.00    +0.019 C 
ATOM     26  C   UNL     1     -10.570  11.805  63.771  0.00  0.00    +0.073 C 
ENDBRANCH  22  26
ENDBRANCH  21  22
ENDBRANCH  19  21
ENDBRANCH  18  20
ENDBRANCH  17  18
ENDBRANCH  15  17
ENDBRANCH   1  15
TORSDOF 10
ENDMDL
MODEL 9
REMARK VINA RESULT:      -5.7      2.774      5.344
REMARK  Name = 
REMARK  10 active torsions:
REMARK  status: ('A' for Active; 'I' for Inactive)
REMARK    1  A    between atoms: C_2  and  N_3
REMARK    2  A    between atoms: N_3  and  C_4
REMARK    3  A    between atoms: N_3  and  C_6
REMARK    4  A    between atoms: C_6  and  C_7
REMARK    5  A    between atoms: C_8  and  C_9
REMARK    6  A    between atoms: C_9  and  O_10
REMARK    7  A    between atoms: O_10  and  C_11
REMARK    8  A    between atoms: C_11  and  C_13
REMARK    9  A    between atoms: C_13  and  C_15
REMARK   10  A    between atoms: C_13  and  C_21
REMARK                            x       y       z     vdW  Elec       q    Type
REMARK                         _______ _______ _______ _____ _____    ______ ____
ROOT
ATOM      1  C   UNL     1     -10.483  12.126  67.596  0.00  0.00    +0.233 C 
ATOM      2  O   UNL     1      -9.326  12.903  67.738  0.00  0.00    -0.210 OA
ENDROOT
BRANCH   1   3
ATOM      3  C   UNL     1     -11.422  12.582  68.666  0.00  0.00    +0.015 A 
ATOM      4  C   UNL     1     -11.925  11.589  69.495  0.00  0.00    -0.001 A 
ATOM      5  C   UNL     1     -12.475  11.888  70.714  0.00  0.00    -0.000 A 
ATOM      6  C   UNL     1     -12.508  13.221  71.088  0.00  0.00    -0.000 A 
ATOM      7  C   UNL     1     -12.360  14.184  70.098  0.00  0.00    -0.000 A 
ATOM      8  C   UNL     1     -11.665  13.907  68.933  0.00  0.00    -0.001 A 
ENDBRANCH   1   3
BRANCH   1   9
ATOM      9  C   UNL     1     -10.168  10.693  67.878  0.00  0.00    +0.043 C 
ATOM     10  C   UNL     1      -8.943  10.479  68.715  0.00  0.00    +0.003 C 
ATOM     11  C   UNL     1      -9.034   9.062  69.270  0.00  0.00    +0.000 C 
ATOM     12  C   UNL     1      -9.097   8.092  68.097  0.00  0.00    +0.000 C 
ATOM     13  C   UNL     1     -10.306   8.362  67.216  0.00  0.00    +0.000 C 
ATOM     14  C   UNL     1     -10.253   9.790  66.683  0.00  0.00    +0.003 C 
ENDBRANCH   1   9
BRANCH   1  15
ATOM     15  C   UNL     1     -11.063  12.343  66.242  0.00  0.00    +0.350 C 
ATOM     16  O   UNL     1     -12.282  12.194  66.009  0.00  0.00    -0.247 OA
BRANCH  15  17
ATOM     17  O   UNL     1     -10.339  13.128  65.368  0.00  0.00    -0.432 OA
BRANCH  17  18
ATOM     18  C   UNL     1     -10.846  14.231  64.666  0.00  0.00    +0.284 C 
BRANCH  18  20
ATOM     19  C   UNL     1     -10.201  16.145  66.333  0.00  0.00    -0.069 C 
ATOM     20  C   UNL     1     -10.385  15.451  65.351  0.00  0.00    -0.042 C 
BRANCH  19  21
ATOM     21  C   UNL     1     -10.244  17.143  67.417  0.00  0.00    +0.150 C 
BRANCH  21  22
ATOM     22  N   UNL     1      -9.483  18.336  67.063  0.00  0.00    -0.262 NA
BRANCH  22  23
ATOM     23  C   UNL     1      -9.182  19.091  68.274  0.00  0.00    +0.073 C 
ATOM     24  C   UNL     1      -7.741  18.848  68.674  0.00  0.00    +0.019 C 
ENDBRANCH  22  23
BRANCH  22  26
ATOM     25  C   UNL     1     -10.484  19.844  66.123  0.00  0.00    +0.019 C 
ATOM     26  C   UNL     1     -10.223  19.220  66.193  0.00  0.00    +0.073 C 
ENDBRANCH  22  26
ENDBRANCH  21  22
ENDBRANCH  19  21
ENDBRANCH  18  20
ENDBRANCH  17  18
ENDBRANCH  15  17
ENDBRANCH   1  15
TORSDOF 10
ENDMDL
