MODEL 1
REMARK VINA RESULT:      -6.8      0.000      0.000
REMARK  Name = 
REMARK  7 active torsions:
REMARK  status: ('A' for Active; 'I' for Inactive)
REMARK    1  A    between atoms: O_2  and  N_3
REMARK    2  A    between atoms: C_4  and  C_5
REMARK    3  A    between atoms: C_4  and  C_27
REMARK    4  A    between atoms: N_7  and  CA_8
REMARK    5  A    between atoms: CA_12  and  C_13
REMARK    6  A    between atoms: C_16  and  C_17
REMARK    7  A    between atoms: C_17  and  N_18
REMARK                            x       y       z     vdW  Elec       q    Type
REMARK                         _______ _______ _______ _____ _____    ______ ____
ROOT
ATOM      1  CA  UNL     1     -10.100  11.885  67.134  0.00  0.00    +0.201 C 
ATOM      2  C   UNL     1      -9.938  13.149  66.016  0.00  0.00    +0.157 C 
ATOM      3  N   UNL     1      -9.172  13.716  67.204  0.00  0.00    -0.242 N 
ATOM      4  CA  UNL     1      -9.418  15.000  67.703  0.00  0.00    +0.133 C 
ATOM      5  C   UNL     1      -9.926  16.003  66.996  0.00  0.00    +0.042 C 
ATOM      6  C   UNL     1     -10.776  15.673  65.841  0.00  0.00    +0.088 C 
ATOM      7  S   UNL     1     -11.592  14.085  66.220  0.00  0.00    -0.114 S 
ATOM      8  C   UNL     1      -8.636  12.432  67.577  0.00  0.00    +0.253 C 
ATOM      9  O   UNL     1      -7.921  11.899  68.433  0.00  0.00    -0.273 OA
ENDROOT
BRANCH   1  11
ATOM     10  C   UNL     1     -11.834  12.007  68.930  0.00  0.00    +0.288 C 
ATOM     11  N   UNL     1     -10.810  12.758  68.265  0.00  0.00    -0.190 NA
ATOM     12  O   UNL     1     -12.377  11.031  68.332  0.00  0.00    -0.267 OA
BRANCH  10  14
ATOM     13  N   UNL     1     -12.371  13.065  70.945  0.00  0.00    -0.077 NA
ATOM     14  C   UNL     1     -11.959  11.978  70.394  0.00  0.00    +0.192 C 
BRANCH  14  15
ATOM     15  C   UNL     1     -12.108  10.657  71.030  0.00  0.00    +0.115 A 
ATOM     16  N   UNL     1     -13.054  10.350  71.936  0.00  0.00    -0.220 NA
ATOM     17  C   UNL     1     -13.532   9.098  71.739  0.00  0.00    +0.201 A 
ATOM     18  N   UNL     1     -14.817   8.569  72.089  0.00  0.00    -0.100 NA
ATOM     19  S   UNL     1     -12.047   8.288  71.435  0.00  0.00    -0.048 S 
ATOM     20  C   UNL     1     -11.127   9.672  70.993  0.00  0.00    +0.059 A 
ENDBRANCH  14  15
BRANCH  13  22
ATOM     21  C   UNL     1     -13.071  15.029  70.260  0.00  0.00    +0.288 C 
ATOM     22  O   UNL     1     -12.847  14.137  70.222  0.00  0.00    -0.373 OA
ENDBRANCH  13  22
ENDBRANCH  10  14
ENDBRANCH   1  11
BRANCH   4  23
ATOM     23  C   UNL     1      -8.864  15.402  69.008  0.00  0.00    +0.401 C 
ATOM     24  OXT UNL     1      -9.716  15.265  70.099  0.00  0.00    -0.239 OA
ATOM     25  O   UNL     1      -7.631  15.472  69.177  0.00  0.00    -0.239 OA
ENDBRANCH   4  23
BRANCH   5  26
ATOM     26  C   UNL     1     -10.315  17.251  67.678  0.00  0.00    +0.134 C 
BRANCH  26  27
ATOM     27  N   UNL     1      -9.644  18.399  67.124  0.00  0.00    +0.305 N 
ATOM     28  C   UNL     1      -8.385  18.024  66.511  0.00  0.00    +0.109 C 
ATOM     29  C   UNL     1      -7.289  18.593  67.390  0.00  0.00    +0.067 C 
ATOM     30  C   UNL     1      -8.013  18.990  68.665  0.00  0.00    +0.067 C 
ATOM     31  C   UNL     1      -9.353  19.410  68.106  0.00  0.00    +0.109 C 
ATOM     32  C   UNL     1     -10.471  18.968  66.061  0.00  0.00    +0.171 C 
ENDBRANCH  26  27
ENDBRANCH   5  26
TORSDOF 7
ENDMDL
MODEL 2
REMARK VINA RESULT:      -6.1      3.202      5.175
REMARK  Name = 
REMARK  7 active torsions:
REMARK  status: ('A' for Active; 'I' for Inactive)
REMARK    1  A    between atoms: O_2  and  N_3
REMARK    2  A    between atoms: C_4  and  C_5
REMARK    3  A    between atoms: C_4  and  C_27
REMARK    4  A    between atoms: N_7  and  CA_8
REMARK    5  A    between atoms: CA_12  and  C_13
REMARK    6  A    between atoms: C_16  and  C_17
REMARK    7  A    between atoms: C_17  and  N_18
REMARK                            x       y       z     vdW  Elec       q    Type
REMARK                         _______ _______ _______ _____ _____    ______ ____
ROOT
ATOM      1  CA  UNL     1      -9.963  17.785  66.916  0.00  0.00    +0.201 C 
ATOM      2  C   UNL     1      -8.526  18.685  66.875  0.00  0.00    +0.157 C 
ATOM      3  N   UNL     1      -7.975  17.269  66.974  0.00  0.00    -0.242 N 
ATOM      4  CA  UNL     1      -7.009  16.912  67.920  0.00  0.00    +0.133 C 
ATOM      5  C   UNL     1      -6.144  17.754  68.477  0.00  0.00    +0.042 C 
ATOM      6  C   UNL     1      -6.520  19.174  68.560  0.00  0.00    +0.088 C 
ATOM      7  S   UNL     1      -8.340  19.234  68.696  0.00  0.00    -0.114 S 
ATOM      8  C   UNL     1      -9.013  16.718  66.142  0.00  0.00    +0.253 C 
ATOM      9  O   UNL     1      -9.407  15.641  65.678  0.00  0.00    -0.273 OA
ENDROOT
BRANCH   1  11
ATOM     10  C   UNL     1     -10.842  16.417  68.814  0.00  0.00    +0.288 C 
ATOM     11  N   UNL     1      -9.672  17.082  68.318  0.00  0.00    -0.190 NA
ATOM     12  O   UNL     1     -11.986  16.803  68.429  0.00  0.00    -0.267 OA
BRANCH  10  14
ATOM     13  N   UNL     1     -11.055  14.922  70.599  0.00  0.00    -0.077 NA
ATOM     14  C   UNL     1     -10.801  15.047  69.344  0.00  0.00    +0.192 C 
BRANCH  14  15
ATOM     15  C   UNL     1     -10.985  13.948  68.380  0.00  0.00    +0.115 A 
ATOM     16  N   UNL     1     -12.139  13.679  67.742  0.00  0.00    -0.220 NA
ATOM     17  C   UNL     1     -11.912  13.312  66.458  0.00  0.00    +0.201 A 
ATOM     18  N   UNL     1     -12.786  13.436  65.328  0.00  0.00    -0.100 NA
ATOM     19  S   UNL     1     -10.568  12.272  66.707  0.00  0.00    -0.048 S 
ATOM     20  C   UNL     1     -10.088  12.893  68.238  0.00  0.00    +0.059 A 
ENDBRANCH  14  15
BRANCH  13  22
ATOM     21  C   UNL     1     -11.970  16.176  72.149  0.00  0.00    +0.288 C 
ATOM     22  O   UNL     1     -11.521  15.960  71.376  0.00  0.00    -0.373 OA
ENDBRANCH  13  22
ENDBRANCH  10  14
ENDBRANCH   1  11
BRANCH   4  23
ATOM     23  C   UNL     1      -6.710  15.490  68.168  0.00  0.00    +0.401 C 
ATOM     24  OXT UNL     1      -7.342  14.918  69.267  0.00  0.00    -0.239 OA
ATOM     25  O   UNL     1      -6.261  14.771  67.254  0.00  0.00    -0.239 OA
ENDBRANCH   4  23
BRANCH   5  26
ATOM     26  C   UNL     1      -5.303  17.298  69.598  0.00  0.00    +0.134 C 
BRANCH  26  27
ATOM     27  N   UNL     1      -3.900  17.464  69.320  0.00  0.00    +0.305 N 
ATOM     28  C   UNL     1      -3.652  17.527  67.892  0.00  0.00    +0.109 C 
ATOM     29  C   UNL     1      -2.933  16.246  67.520  0.00  0.00    +0.067 C 
ATOM     30  C   UNL     1      -3.111  15.359  68.741  0.00  0.00    +0.067 C 
ATOM     31  C   UNL     1      -3.091  16.394  69.843  0.00  0.00    +0.109 C 
ATOM     32  C   UNL     1      -3.450  18.738  69.876  0.00  0.00    +0.171 C 
ENDBRANCH  26  27
ENDBRANCH   5  26
TORSDOF 7
ENDMDL
MODEL 3
REMARK VINA RESULT:      -6.1      3.151      4.836
REMARK  Name = 
REMARK  7 active torsions:
REMARK  status: ('A' for Active; 'I' for Inactive)
REMARK    1  A    between atoms: O_2  and  N_3
REMARK    2  A    between atoms: C_4  and  C_5
REMARK    3  A    between atoms: C_4  and  C_27
REMARK    4  A    between atoms: N_7  and  CA_8
REMARK    5  A    between atoms: CA_12  and  C_13
REMARK    6  A    between atoms: C_16  and  C_17
REMARK    7  A    between atoms: C_17  and  N_18
REMARK                            x       y       z     vdW  Elec       q    Type
REMARK                         _______ _______ _______ _____ _____    ______ ____
ROOT
ATOM      1  CA  UNL     1     -11.735  12.937  68.348  0.00  0.00    +0.201 C 
ATOM      2  C   UNL     1     -12.171  14.470  68.925  0.00  0.00    +0.157 C 
ATOM      3  N   UNL     1     -11.508  14.839  67.605  0.00  0.00    -0.242 N 
ATOM      4  CA  UNL     1     -10.517  15.823  67.521  0.00  0.00    +0.133 C 
ATOM      5  C   UNL     1     -10.374  16.831  68.375  0.00  0.00    +0.042 C 
ATOM      6  C   UNL     1     -10.877  16.651  69.746  0.00  0.00    +0.088 C 
ATOM      7  S   UNL     1     -10.743  14.871  70.130  0.00  0.00    -0.114 S 
ATOM      8  C   UNL     1     -12.018  13.675  66.928  0.00  0.00    +0.253 C 
ATOM      9  O   UNL     1     -11.988  13.109  65.829  0.00  0.00    -0.273 OA
ENDROOT
BRANCH   1  11
ATOM     10  C   UNL     1      -9.412  12.031  68.180  0.00  0.00    +0.288 C 
ATOM     11  N   UNL     1     -10.173  13.244  68.238  0.00  0.00    -0.190 NA
ATOM     12  O   UNL     1      -9.900  10.967  68.664  0.00  0.00    -0.267 OA
BRANCH  10  14
ATOM     13  N   UNL     1      -7.167  12.217  67.551  0.00  0.00    -0.077 NA
ATOM     14  C   UNL     1      -8.339  11.824  67.196  0.00  0.00    +0.192 C 
BRANCH  14  15
ATOM     15  C   UNL     1      -8.556  10.784  66.175  0.00  0.00    +0.115 A 
ATOM     16  N   UNL     1      -9.563  10.790  65.283  0.00  0.00    -0.220 NA
ATOM     17  C   UNL     1      -9.143  10.355  64.070  0.00  0.00    +0.201 A 
ATOM     18  N   UNL     1      -9.680  10.665  62.778  0.00  0.00    -0.100 NA
ATOM     19  S   UNL     1      -8.181   9.026  64.579  0.00  0.00    -0.048 S 
ATOM     20  C   UNL     1      -7.929   9.541  66.200  0.00  0.00    +0.059 A 
ENDBRANCH  14  15
BRANCH  13  22
ATOM     21  C   UNL     1      -6.266  13.090  69.351  0.00  0.00    +0.288 C 
ATOM     22  O   UNL     1      -6.873  12.634  68.831  0.00  0.00    -0.373 OA
ENDBRANCH  13  22
ENDBRANCH  10  14
ENDBRANCH   1  11
BRANCH   4  23
ATOM     23  C   UNL     1      -9.711  15.953  66.294  0.00  0.00    +0.401 C 
ATOM     24  OXT UNL     1      -8.522  15.231  66.267  0.00  0.00    -0.239 OA
ATOM     25  O   UNL     1     -10.234  16.344  65.233  0.00  0.00    -0.239 OA
ENDBRANCH   4  23
BRANCH   5  26
ATOM     26  C   UNL     1      -9.181  17.693  68.291  0.00  0.00    +0.134 C 
BRANCH  26  27
ATOM     27  N   UNL     1      -9.530  19.079  68.110  0.00  0.00    +0.305 N 
ATOM     28  C   UNL     1     -10.731  19.216  67.309  0.00  0.00    +0.109 C 
ATOM     29  C   UNL     1     -10.301  19.800  65.978  0.00  0.00    +0.067 C 
ATOM     30  C   UNL     1      -8.789  19.650  65.985  0.00  0.00    +0.067 C 
ATOM     31  C   UNL     1      -8.497  19.839  67.457  0.00  0.00    +0.109 C 
ATOM     32  C   UNL     1      -9.828  19.670  69.412  0.00  0.00    +0.171 C 
ENDBRANCH  26  27
ENDBRANCH   5  26
TORSDOF 7
ENDMDL
MODEL 4
REMARK VINA RESULT:      -6.0      4.321      7.066
REMARK  Name = 
REMARK  7 active torsions:
REMARK  status: ('A' for Active; 'I' for Inactive)
REMARK    1  A    between atoms: O_2  and  N_3
REMARK    2  A    between atoms: C_4  and  C_5
REMARK    3  A    between atoms: C_4  and  C_27
REMARK    4  A    between atoms: N_7  and  CA_8
REMARK    5  A    between atoms: CA_12  and  C_13
REMARK    6  A    between atoms: C_16  and  C_17
REMARK    7  A    between atoms: C_17  and  N_18
REMARK                            x       y       z     vdW  Elec       q    Type
REMARK                         _______ _______ _______ _____ _____    ______ ____
ROOT
ATOM      1  CA  UNL     1      -9.234  18.969  68.190  0.00  0.00    +0.201 C 
ATOM      2  C   UNL     1      -8.146  20.262  68.336  0.00  0.00    +0.157 C 
ATOM      3  N   UNL     1      -7.729  19.686  66.989  0.00  0.00    -0.242 N 
ATOM      4  CA  UNL     1      -6.394  19.393  66.689  0.00  0.00    +0.133 C 
ATOM      5  C   UNL     1      -5.343  19.973  67.258  0.00  0.00    +0.042 C 
ATOM      6  C   UNL     1      -5.509  20.528  68.610  0.00  0.00    +0.088 C 
ATOM      7  S   UNL     1      -6.780  19.518  69.446  0.00  0.00    -0.114 S 
ATOM      8  C   UNL     1      -9.080  19.354  66.618  0.00  0.00    +0.253 C 
ATOM      9  O   UNL     1      -9.727  18.830  65.704  0.00  0.00    -0.273 OA
ENDROOT
BRANCH   1  11
ATOM     10  C   UNL     1      -8.659  16.544  68.370  0.00  0.00    +0.288 C 
ATOM     11  N   UNL     1      -8.120  17.835  68.058  0.00  0.00    -0.190 NA
ATOM     12  O   UNL     1      -9.683  16.460  69.112  0.00  0.00    -0.267 OA
BRANCH  10  14
ATOM     13  N   UNL     1      -7.505  14.556  67.939  0.00  0.00    -0.077 NA
ATOM     14  C   UNL     1      -8.414  15.366  67.525  0.00  0.00    +0.192 C 
BRANCH  14  15
ATOM     15  C   UNL     1      -9.501  14.950  66.621  0.00  0.00    +0.115 A 
ATOM     16  N   UNL     1     -10.538  15.730  66.266  0.00  0.00    -0.220 NA
ATOM     17  C   UNL     1     -10.858  15.553  64.961  0.00  0.00    +0.201 A 
ATOM     18  N   UNL     1     -11.493  16.477  64.067  0.00  0.00    -0.100 NA
ATOM     19  S   UNL     1     -10.740  13.842  64.884  0.00  0.00    -0.048 S 
ATOM     20  C   UNL     1      -9.740  13.625  66.266  0.00  0.00    +0.059 A 
ENDBRANCH  14  15
BRANCH  13  22
ATOM     21  C   UNL     1      -6.151  14.504  69.665  0.00  0.00    +0.288 C 
ATOM     22  O   UNL     1      -6.918  14.661  69.181  0.00  0.00    -0.373 OA
ENDBRANCH  13  22
ENDBRANCH  10  14
ENDBRANCH   1  11
BRANCH   4  23
ATOM     23  C   UNL     1      -6.068  18.587  65.499  0.00  0.00    +0.401 C 
ATOM     24  OXT UNL     1      -5.868  17.228  65.720  0.00  0.00    -0.239 OA
ATOM     25  O   UNL     1      -6.343  19.006  64.357  0.00  0.00    -0.239 OA
ENDBRANCH   4  23
BRANCH   5  26
ATOM     26  C   UNL     1      -3.991  19.447  66.996  0.00  0.00    +0.134 C 
BRANCH  26  27
ATOM     27  N   UNL     1      -3.118  20.455  66.451  0.00  0.00    +0.305 N 
ATOM     28  C   UNL     1      -3.874  21.506  65.799  0.00  0.00    +0.109 C 
ATOM     29  C   UNL     1      -3.612  21.370  64.312  0.00  0.00    +0.067 C 
ATOM     30  C   UNL     1      -2.962  20.004  64.180  0.00  0.00    +0.067 C 
ATOM     31  C   UNL     1      -2.193  19.934  65.480  0.00  0.00    +0.109 C 
ATOM     32  C   UNL     1      -2.381  21.088  67.543  0.00  0.00    +0.171 C 
ENDBRANCH  26  27
ENDBRANCH   5  26
TORSDOF 7
ENDMDL
MODEL 5
REMARK VINA RESULT:      -5.7      3.291      6.236
REMARK  Name = 
REMARK  7 active torsions:
REMARK  status: ('A' for Active; 'I' for Inactive)
REMARK    1  A    between atoms: O_2  and  N_3
REMARK    2  A    between atoms: C_4  and  C_5
REMARK    3  A    between atoms: C_4  and  C_27
REMARK    4  A    between atoms: N_7  and  CA_8
REMARK    5  A    between atoms: CA_12  and  C_13
REMARK    6  A    between atoms: C_16  and  C_17
REMARK    7  A    between atoms: C_17  and  N_18
REMARK                            x       y       z     vdW  Elec       q    Type
REMARK                         _______ _______ _______ _____ _____    ______ ____
ROOT
ATOM      1  CA  UNL     1      -9.650  18.525  68.238  0.00  0.00    +0.201 C 
ATOM      2  C   UNL     1      -8.667  19.904  68.311  0.00  0.00    +0.157 C 
ATOM      3  N   UNL     1      -8.115  19.225  67.065  0.00  0.00    -0.242 N 
ATOM      4  CA  UNL     1      -6.746  19.004  66.883  0.00  0.00    +0.133 C 
ATOM      5  C   UNL     1      -5.780  19.718  67.451  0.00  0.00    +0.042 C 
ATOM      6  C   UNL     1      -6.080  20.397  68.722  0.00  0.00    +0.088 C 
ATOM      7  S   UNL     1      -7.335  19.386  69.580  0.00  0.00    -0.114 S 
ATOM      8  C   UNL     1      -9.411  18.755  66.647  0.00  0.00    +0.253 C 
ATOM      9  O   UNL     1      -9.953  18.091  65.757  0.00  0.00    -0.273 OA
ENDROOT
BRANCH   1  11
ATOM     10  C   UNL     1      -8.929  16.175  68.689  0.00  0.00    +0.288 C 
ATOM     11  N   UNL     1      -8.454  17.471  68.303  0.00  0.00    -0.190 NA
ATOM     12  O   UNL     1     -10.005  16.079  69.351  0.00  0.00    -0.267 OA
BRANCH  10  14
ATOM     13  N   UNL     1      -7.460  14.378  68.401  0.00  0.00    -0.077 NA
ATOM     14  C   UNL     1      -8.532  14.950  67.979  0.00  0.00    +0.192 C 
BRANCH  14  15
ATOM     15  C   UNL     1      -9.587  14.226  67.247  0.00  0.00    +0.115 A 
ATOM     16  N   UNL     1      -9.879  12.924  67.422  0.00  0.00    -0.220 NA
ATOM     17  C   UNL     1     -11.216  12.713  67.371  0.00  0.00    +0.201 A 
ATOM     18  N   UNL     1     -11.976  11.663  67.984  0.00  0.00    -0.100 NA
ATOM     19  S   UNL     1     -11.598  13.718  66.031  0.00  0.00    -0.048 S 
ATOM     20  C   UNL     1     -10.199  14.716  66.097  0.00  0.00    +0.059 A 
ENDBRANCH  14  15
BRANCH  13  22
ATOM     21  C   UNL     1      -6.066  14.626  70.077  0.00  0.00    +0.288 C 
ATOM     22  O   UNL     1      -6.813  14.760  69.556  0.00  0.00    -0.373 OA
ENDBRANCH  13  22
ENDBRANCH  10  14
ENDBRANCH   1  11
BRANCH   4  23
ATOM     23  C   UNL     1      -6.281  18.106  65.812  0.00  0.00    +0.401 C 
ATOM     24  OXT UNL     1      -6.101  16.773  66.169  0.00  0.00    -0.239 OA
ATOM     25  O   UNL     1      -6.424  18.423  64.615  0.00  0.00    -0.239 OA
ENDBRANCH   4  23
BRANCH   5  26
ATOM     26  C   UNL     1      -4.380  19.272  67.335  0.00  0.00    +0.134 C 
BRANCH  26  27
ATOM     27  N   UNL     1      -3.532  20.298  66.785  0.00  0.00    +0.305 N 
ATOM     28  C   UNL     1      -4.306  21.273  66.040  0.00  0.00    +0.109 C 
ATOM     29  C   UNL     1      -3.957  21.078  64.578  0.00  0.00    +0.067 C 
ATOM     30  C   UNL     1      -3.229  19.745  64.551  0.00  0.00    +0.067 C 
ATOM     31  C   UNL     1      -2.530  19.781  65.891  0.00  0.00    +0.109 C 
ATOM     32  C   UNL     1      -2.890  21.024  67.878  0.00  0.00    +0.171 C 
ENDBRANCH  26  27
ENDBRANCH   5  26
TORSDOF 7
ENDMDL
MODEL 6
REMARK VINA RESULT:      -5.6      4.219      9.021
REMARK  Name = 
REMARK  7 active torsions:
REMARK  status: ('A' for Active; 'I' for Inactive)
REMARK    1  A    between atoms: O_2  and  N_3
REMARK    2  A    between atoms: C_4  and  C_5
REMARK    3  A    between atoms: C_4  and  C_27
REMARK    4  A    between atoms: N_7  and  CA_8
REMARK    5  A    between atoms: CA_12  and  C_13
REMARK    6  A    between atoms: C_16  and  C_17
REMARK    7  A    between atoms: C_17  and  N_18
REMARK                            x       y       z     vdW  Elec       q    Type
REMARK                         _______ _______ _______ _____ _____    ______ ____
ROOT
ATOM      1  CA  UNL     1      -7.920  20.356  67.721  0.00  0.00    +0.201 C 
ATOM      2  C   UNL     1      -9.392  19.604  68.099  0.00  0.00    +0.157 C 
ATOM      3  N   UNL     1      -8.409  18.481  68.402  0.00  0.00    -0.242 N 
ATOM      4  CA  UNL     1      -8.578  17.189  67.894  0.00  0.00    +0.133 C 
ATOM      5  C   UNL     1      -9.744  16.661  67.535  0.00  0.00    +0.042 C 
ATOM      6  C   UNL     1     -10.817  17.577  67.120  0.00  0.00    +0.088 C 
ATOM      7  S   UNL     1     -10.012  19.039  66.382  0.00  0.00    -0.114 S 
ATOM      8  C   UNL     1      -7.410  19.381  68.917  0.00  0.00    +0.253 C 
ATOM      9  O   UNL     1      -6.264  19.385  69.380  0.00  0.00    -0.273 OA
ENDROOT
BRANCH   1  11
ATOM     10  C   UNL     1      -6.334  19.759  65.884  0.00  0.00    +0.288 C 
ATOM     11  N   UNL     1      -7.475  19.294  66.616  0.00  0.00    -0.190 NA
ATOM     12  O   UNL     1      -6.103  21.003  65.816  0.00  0.00    -0.267 OA
BRANCH  10  14
ATOM     13  N   UNL     1      -4.932  18.641  64.383  0.00  0.00    -0.077 NA
ATOM     14  C   UNL     1      -5.169  18.902  65.620  0.00  0.00    +0.192 C 
BRANCH  14  15
ATOM     15  C   UNL     1      -4.126  18.846  66.660  0.00  0.00    +0.115 A 
ATOM     16  N   UNL     1      -3.173  19.779  66.834  0.00  0.00    -0.220 NA
ATOM     17  C   UNL     1      -2.940  19.998  68.151  0.00  0.00    +0.201 A 
ATOM     18  N   UNL     1      -2.437  21.184  68.781  0.00  0.00    -0.100 NA
ATOM     19  S   UNL     1      -2.948  18.371  68.701  0.00  0.00    -0.048 S 
ATOM     20  C   UNL     1      -3.827  17.697  67.386  0.00  0.00    +0.059 A 
ENDBRANCH  14  15
BRANCH  13  22
ATOM     21  C   UNL     1      -5.544  19.503  62.460  0.00  0.00    +0.288 C 
ATOM     22  O   UNL     1      -5.596  19.260  63.346  0.00  0.00    -0.373 OA
ENDBRANCH  13  22
ENDBRANCH  10  14
ENDBRANCH   1  11
BRANCH   4  23
ATOM     23  C   UNL     1      -7.475  16.215  67.976  0.00  0.00    +0.401 C 
ATOM     24  OXT UNL     1      -6.707  16.067  66.825  0.00  0.00    -0.239 OA
ATOM     25  O   UNL     1      -7.025  15.862  69.083  0.00  0.00    -0.239 OA
ENDBRANCH   4  23
BRANCH   5  26
ATOM     26  C   UNL     1      -9.771  15.363  66.837  0.00  0.00    +0.134 C 
BRANCH  26  27
ATOM     27  N   UNL     1     -10.549  14.384  67.552  0.00  0.00    +0.305 N 
ATOM     28  C   UNL     1      -9.959  13.064  67.441  0.00  0.00    +0.109 C 
ATOM     29  C   UNL     1     -10.889  12.245  66.568  0.00  0.00    +0.067 C 
ATOM     30  C   UNL     1     -11.813  13.279  65.948  0.00  0.00    +0.067 C 
ATOM     31  C   UNL     1     -11.903  14.283  67.075  0.00  0.00    +0.109 C 
ATOM     32  C   UNL     1     -10.551  14.722  68.973  0.00  0.00    +0.171 C 
ENDBRANCH  26  27
ENDBRANCH   5  26
TORSDOF 7
ENDMDL
MODEL 7
REMARK VINA RESULT:      -5.6      3.512      7.874
REMARK  Name = 
REMARK  7 active torsions:
REMARK  status: ('A' for Active; 'I' for Inactive)
REMARK    1  A    between atoms: O_2  and  N_3
REMARK    2  A    between atoms: C_4  and  C_5
REMARK    3  A    between atoms: C_4  and  C_27
REMARK    4  A    between atoms: N_7  and  CA_8
REMARK    5  A    between atoms: CA_12  and  C_13
REMARK    6  A    between atoms: C_16  and  C_17
REMARK    7  A    between atoms: C_17  and  N_18
REMARK                            x       y       z     vdW  Elec       q    Type
REMARK                         _______ _______ _______ _____ _____    ______ ____
ROOT
ATOM      1  CA  UNL     1      -7.632  12.082  66.991  0.00  0.00    +0.201 C 
ATOM      2  C   UNL     1      -6.879  10.759  67.737  0.00  0.00    +0.157 C 
ATOM      3  N   UNL     1      -8.226  10.152  67.370  0.00  0.00    -0.242 N 
ATOM      4  CA  UNL     1      -9.005   9.455  68.300  0.00  0.00    +0.133 C 
ATOM      5  C   UNL     1      -8.530   8.839  69.377  0.00  0.00    +0.042 C 
ATOM      6  C   UNL     1      -7.267   9.328  69.951  0.00  0.00    +0.088 C 
ATOM      7  S   UNL     1      -7.176  11.115  69.591  0.00  0.00    -0.114 S 
ATOM      8  C   UNL     1      -8.311  10.881  66.131  0.00  0.00    +0.253 C 
ATOM      9  O   UNL     1      -9.062  11.054  65.164  0.00  0.00    -0.273 OA
ENDROOT
BRANCH   1  11
ATOM     10  C   UNL     1      -9.659  13.320  67.770  0.00  0.00    +0.288 C 
ATOM     11  N   UNL     1      -8.885  12.132  67.978  0.00  0.00    -0.190 NA
ATOM     12  O   UNL     1      -9.107  14.341  67.261  0.00  0.00    -0.267 OA
BRANCH  10  14
ATOM     13  N   UNL     1     -11.777  13.643  68.705  0.00  0.00    -0.077 NA
ATOM     14  C   UNL     1     -11.124  13.292  67.655  0.00  0.00    +0.192 C 
BRANCH  14  15
ATOM     15  C   UNL     1     -11.693  13.374  66.298  0.00  0.00    +0.115 A 
ATOM     16  N   UNL     1     -12.390  14.424  65.826  0.00  0.00    -0.220 NA
ATOM     17  C   UNL     1     -12.078  14.675  64.531  0.00  0.00    +0.201 A 
ATOM     18  N   UNL     1     -12.159  15.917  63.820  0.00  0.00    -0.100 NA
ATOM     19  S   UNL     1     -12.058  13.062  63.942  0.00  0.00    -0.048 S 
ATOM     20  C   UNL     1     -11.831  12.276  65.455  0.00  0.00    +0.059 A 
ENDBRANCH  14  15
BRANCH  13  22
ATOM     21  C   UNL     1     -11.174  14.906  70.395  0.00  0.00    +0.288 C 
ATOM     22  O   UNL     1     -11.172  14.192  69.815  0.00  0.00    -0.373 OA
ENDBRANCH  13  22
ENDBRANCH  10  14
ENDBRANCH   1  11
BRANCH   4  23
ATOM     23  C   UNL     1     -10.408   9.131  67.989  0.00  0.00    +0.401 C 
ATOM     24  OXT UNL     1     -11.357  10.051  68.423  0.00  0.00    -0.239 OA
ATOM     25  O   UNL     1     -10.684   8.324  67.079  0.00  0.00    -0.239 OA
ENDBRANCH   4  23
BRANCH   5  26
ATOM     26  C   UNL     1      -9.467   8.303  70.381  0.00  0.00    +0.134 C 
BRANCH  26  27
ATOM     27  N   UNL     1      -9.282   6.889  70.589  0.00  0.00    +0.305 N 
ATOM     28  C   UNL     1      -8.745   6.251  69.402  0.00  0.00    +0.109 C 
ATOM     29  C   UNL     1      -9.853   5.386  68.836  0.00  0.00    +0.067 C 
ATOM     30  C   UNL     1     -11.095   5.852  69.576  0.00  0.00    +0.067 C 
ATOM     31  C   UNL     1     -10.503   6.204  70.922  0.00  0.00    +0.109 C 
ATOM     32  C   UNL     1      -8.298   6.688  71.650  0.00  0.00    +0.171 C 
ENDBRANCH  26  27
ENDBRANCH   5  26
TORSDOF 7
ENDMDL
MODEL 8
REMARK VINA RESULT:      -5.6      3.741      8.263
REMARK  Name = 
REMARK  7 active torsions:
REMARK  status: ('A' for Active; 'I' for Inactive)
REMARK    1  A    between atoms: O_2  and  N_3
REMARK    2  A    between atoms: C_4  and  C_5
REMARK    3  A    between atoms: C_4  and  C_27
REMARK    4  A    between atoms: N_7  and  CA_8
REMARK    5  A    between atoms: CA_12  and  C_13
REMARK    6  A    between atoms: C_16  and  C_17
REMARK    7  A    between atoms: C_17  and  N_18
REMARK                            x       y       z     vdW  Elec       q    Type
REMARK                         _______ _______ _______ _____ _____    ______ ____
ROOT
ATOM      1  CA  UNL     1      -8.371  19.261  67.682  0.00  0.00    +0.201 C 
ATOM      2  C   UNL     1      -9.196  18.385  66.488  0.00  0.00    +0.157 C 
ATOM      3  N   UNL     1      -9.864  17.851  67.748  0.00  0.00    -0.242 N 
ATOM      4  CA  UNL     1     -10.006  16.481  67.991  0.00  0.00    +0.133 C 
ATOM      5  C   UNL     1     -10.044  15.544  67.050  0.00  0.00    +0.042 C 
ATOM      6  C   UNL     1      -9.378  15.825  65.768  0.00  0.00    +0.088 C 
ATOM      7  S   UNL     1      -7.986  16.950  66.129  0.00  0.00    -0.114 S 
ATOM      8  C   UNL     1      -9.816  19.127  68.414  0.00  0.00    +0.253 C 
ATOM      9  O   UNL     1     -10.107  19.665  69.489  0.00  0.00    -0.273 OA
ENDROOT
BRANCH   1  11
ATOM     10  C   UNL     1      -6.413  18.110  68.724  0.00  0.00    +0.288 C 
ATOM     11  N   UNL     1      -7.817  17.985  68.464  0.00  0.00    -0.190 NA
ATOM     12  O   UNL     1      -5.707  18.860  67.985  0.00  0.00    -0.267 OA
BRANCH  10  14
ATOM     13  N   UNL     1      -5.662  16.580  70.325  0.00  0.00    -0.077 NA
ATOM     14  C   UNL     1      -5.830  17.824  70.043  0.00  0.00    +0.192 C 
BRANCH  14  15
ATOM     15  C   UNL     1      -5.049  18.898  70.680  0.00  0.00    +0.115 A 
ATOM     16  N   UNL     1      -3.706  18.918  70.761  0.00  0.00    -0.220 NA
ATOM     17  C   UNL     1      -3.224  20.171  70.570  0.00  0.00    +0.201 A 
ATOM     18  N   UNL     1      -1.938  20.565  70.075  0.00  0.00    -0.100 NA
ATOM     19  S   UNL     1      -4.359  21.044  71.518  0.00  0.00    -0.048 S 
ATOM     20  C   UNL     1      -5.605  19.858  71.521  0.00  0.00    +0.059 A 
ENDBRANCH  14  15
BRANCH  13  22
ATOM     21  C   UNL     1      -6.068  14.691  69.286  0.00  0.00    +0.288 C 
ATOM     22  O   UNL     1      -5.831  15.573  69.400  0.00  0.00    -0.373 OA
ENDBRANCH  13  22
ENDBRANCH  10  14
ENDBRANCH   1  11
BRANCH   4  23
ATOM     23  C   UNL     1     -10.398  16.007  69.330  0.00  0.00    +0.401 C 
ATOM     24  OXT UNL     1      -9.365  15.546  70.140  0.00  0.00    -0.239 OA
ATOM     25  O   UNL     1     -11.482  16.361  69.833  0.00  0.00    -0.239 OA
ENDBRANCH   4  23
BRANCH   5  26
ATOM     26  C   UNL     1     -10.005  14.122  67.437  0.00  0.00    +0.134 C 
BRANCH  26  27
ATOM     27  N   UNL     1     -11.107  13.382  66.877  0.00  0.00    +0.305 N 
ATOM     28  C   UNL     1     -11.652  12.445  67.840  0.00  0.00    +0.109 C 
ATOM     29  C   UNL     1     -11.289  11.058  67.349  0.00  0.00    +0.067 C 
ATOM     30  C   UNL     1     -10.246  11.312  66.274  0.00  0.00    +0.067 C 
ATOM     31  C   UNL     1     -10.742  12.624  65.709  0.00  0.00    +0.109 C 
ATOM     32  C   UNL     1     -12.185  14.311  66.544  0.00  0.00    +0.171 C 
ENDBRANCH  26  27
ENDBRANCH   5  26
TORSDOF 7
ENDMDL
MODEL 9
REMARK VINA RESULT:      -5.5      4.554      9.223
REMARK  Name = 
REMARK  7 active torsions:
REMARK  status: ('A' for Active; 'I' for Inactive)
REMARK    1  A    between atoms: O_2  and  N_3
REMARK    2  A    between atoms: C_4  and  C_5
REMARK    3  A    between atoms: C_4  and  C_27
REMARK    4  A    between atoms: N_7  and  CA_8
REMARK    5  A    between atoms: CA_12  and  C_13
REMARK    6  A    between atoms: C_16  and  C_17
REMARK    7  A    between atoms: C_17  and  N_18
REMARK                            x       y       z     vdW  Elec       q    Type
REMARK                         _______ _______ _______ _____ _____    ______ ____
ROOT
ATOM      1  CA  UNL     1      -7.216  19.859  68.711  0.00  0.00    +0.201 C 
ATOM      2  C   UNL     1      -8.742  19.121  68.700  0.00  0.00    +0.157 C 
ATOM      3  N   UNL     1      -7.836  17.910  68.516  0.00  0.00    -0.242 N 
ATOM      4  CA  UNL     1      -8.047  16.971  67.501  0.00  0.00    +0.133 C 
ATOM      5  C   UNL     1      -9.219  16.727  66.925  0.00  0.00    +0.042 C 
ATOM      6  C   UNL     1     -10.222  17.804  66.917  0.00  0.00    +0.088 C 
ATOM      7  S   UNL     1      -9.304  19.382  66.892  0.00  0.00    -0.114 S 
ATOM      8  C   UNL     1      -6.818  18.436  69.388  0.00  0.00    +0.253 C 
ATOM      9  O   UNL     1      -5.697  18.165  69.834  0.00  0.00    -0.273 OA
ENDROOT
BRANCH   1  11
ATOM     10  C   UNL     1      -6.112  20.373  66.529  0.00  0.00    +0.288 C 
ATOM     11  N   UNL     1      -6.773  19.339  67.270  0.00  0.00    -0.190 NA
ATOM     12  O   UNL     1      -6.343  21.586  66.813  0.00  0.00    -0.267 OA
BRANCH  10  14
ATOM     13  N   UNL     1      -3.789  20.111  66.528  0.00  0.00    -0.077 NA
ATOM     14  C   UNL     1      -4.853  20.139  65.807  0.00  0.00    +0.192 C 
BRANCH  14  15
ATOM     15  C   UNL     1      -4.945  19.475  64.495  0.00  0.00    +0.115 A 
ATOM     16  N   UNL     1      -5.969  19.623  63.635  0.00  0.00    -0.220 NA
ATOM     17  C   UNL     1      -5.528  19.682  62.355  0.00  0.00    +0.201 A 
ATOM     18  N   UNL     1      -6.145  20.317  61.228  0.00  0.00    -0.100 NA
ATOM     19  S   UNL     1      -4.363  18.421  62.413  0.00  0.00    -0.048 S 
ATOM     20  C   UNL     1      -4.140  18.403  64.118  0.00  0.00    +0.059 A 
ENDBRANCH  14  15
BRANCH  13  22
ATOM     21  C   UNL     1      -3.317  20.243  68.667  0.00  0.00    +0.288 C 
ATOM     22  O   UNL     1      -3.817  20.110  67.905  0.00  0.00    -0.373 OA
ENDBRANCH  13  22
ENDBRANCH  10  14
ENDBRANCH   1  11
BRANCH   4  23
ATOM     23  C   UNL     1      -7.002  15.982  67.184  0.00  0.00    +0.401 C 
ATOM     24  OXT UNL     1      -5.938  16.444  66.416  0.00  0.00    -0.239 OA
ATOM     25  O   UNL     1      -6.879  14.950  67.872  0.00  0.00    -0.239 OA
ENDBRANCH   4  23
BRANCH   5  26
ATOM     26  C   UNL     1      -9.280  15.853  65.739  0.00  0.00    +0.134 C 
BRANCH  26  27
ATOM     27  N   UNL     1     -10.334  14.877  65.844  0.00  0.00    +0.305 N 
ATOM     28  C   UNL     1     -10.859  14.816  67.194  0.00  0.00    +0.109 C 
ATOM     29  C   UNL     1     -10.423  13.484  67.769  0.00  0.00    +0.067 C 
ATOM     30  C   UNL     1      -9.367  12.993  66.794  0.00  0.00    +0.067 C 
ATOM     31  C   UNL     1      -9.907  13.548  65.495  0.00  0.00    +0.109 C 
ATOM     32  C   UNL     1     -11.444  15.280  64.983  0.00  0.00    +0.171 C 
ENDBRANCH  26  27
ENDBRANCH   5  26
TORSDOF 7
ENDMDL
