MODEL 1
REMARK VINA RESULT:      -5.4      0.000      0.000
REMARK  Name = 
REMARK  2 active torsions:
REMARK  status: ('A' for Active; 'I' for Inactive)
REMARK    1  A    between atoms: C_2  and  C_4
REMARK    2  A    between atoms: C_6  and  C_7
REMARK                            x       y       z     vdW  Elec       q    Type
REMARK                         _______ _______ _______ _____ _____    ______ ____
ROOT
ATOM      1  C   UNL     1     -10.517  14.561  65.252  0.00  0.00    +0.239 C 
ATOM      2  N   UNL     1     -10.914  13.189  64.536  0.00  0.00    -0.232 N 
ATOM      3  C   UNL     1     -11.435  12.319  65.772  0.00  0.00    +0.256 C 
ATOM      4  C   UNL     1     -10.124  11.330  65.412  0.00  0.00    +0.151 C 
ATOM      5  O   UNL     1     -10.582  13.160  66.813  0.00  0.00    -0.462 OA
ATOM      6  C   UNL     1     -10.204  12.027  64.090  0.00  0.00    +0.234 C 
ATOM      7  O   UNL     1     -10.444  11.517  62.956  0.00  0.00    -0.275 OA
ATOM      8  C   UNL     1     -11.448  14.242  66.576  0.00  0.00    +0.146 C 
ATOM      9  C   UNL     1     -11.645  15.273  67.399  0.00  0.00    +0.044 C 
ENDROOT
BRANCH   1  11
ATOM     10  O   UNL     1     -12.567  14.719  63.949  0.00  0.00    -0.243 OA
ATOM     11  C   UNL     1     -11.727  15.411  64.525  0.00  0.00    +0.390 C 
ATOM     12  O   UNL     1     -11.344  16.687  64.188  0.00  0.00    -0.243 OA
ENDBRANCH   1  11
BRANCH   9  13
ATOM     13  C   UNL     1     -11.454  15.097  68.862  0.00  0.00    +0.211 C 
ATOM     14  O   UNL     1     -12.147  16.098  69.565  0.00  0.00    -0.215 OA
ENDBRANCH   9  13
TORSDOF 2
ENDMDL
MODEL 2
REMARK VINA RESULT:      -5.2      1.750      3.699
REMARK  Name = 
REMARK  2 active torsions:
REMARK  status: ('A' for Active; 'I' for Inactive)
REMARK    1  A    between atoms: C_2  and  C_4
REMARK    2  A    between atoms: C_6  and  C_7
REMARK                            x       y       z     vdW  Elec       q    Type
REMARK                         _______ _______ _______ _____ _____    ______ ____
ROOT
ATOM      1  C   UNL     1     -12.241  13.264  65.351  0.00  0.00    +0.239 C 
ATOM      2  N   UNL     1     -11.322  14.486  64.888  0.00  0.00    -0.232 N 
ATOM      3  C   UNL     1     -10.125  14.407  65.944  0.00  0.00    +0.256 C 
ATOM      4  C   UNL     1     -10.685  15.911  66.441  0.00  0.00    +0.151 C 
ATOM      5  O   UNL     1     -11.026  13.659  67.015  0.00  0.00    -0.462 OA
ATOM      6  C   UNL     1     -11.332  15.905  65.091  0.00  0.00    +0.234 C 
ATOM      7  O   UNL     1     -11.124  16.698  64.126  0.00  0.00    -0.275 OA
ATOM      8  C   UNL     1     -11.010  12.534  66.172  0.00  0.00    +0.146 C 
ATOM      9  C   UNL     1     -11.243  11.276  66.551  0.00  0.00    +0.044 C 
ENDROOT
BRANCH   1  11
ATOM     10  O   UNL     1     -10.856  12.623  63.455  0.00  0.00    -0.243 OA
ATOM     11  C   UNL     1     -11.941  12.387  63.989  0.00  0.00    +0.390 C 
ATOM     12  O   UNL     1     -13.092  11.978  63.362  0.00  0.00    -0.243 OA
ENDBRANCH   1  11
BRANCH   9  13
ATOM     13  C   UNL     1     -10.946  10.859  67.946  0.00  0.00    +0.211 C 
ATOM     14  O   UNL     1     -12.119  10.886  68.720  0.00  0.00    -0.215 OA
ENDBRANCH   9  13
TORSDOF 2
ENDMDL
MODEL 3
REMARK VINA RESULT:      -5.2      1.724      4.256
REMARK  Name = 
REMARK  2 active torsions:
REMARK  status: ('A' for Active; 'I' for Inactive)
REMARK    1  A    between atoms: C_2  and  C_4
REMARK    2  A    between atoms: C_6  and  C_7
REMARK                            x       y       z     vdW  Elec       q    Type
REMARK                         _______ _______ _______ _____ _____    ______ ____
ROOT
ATOM      1  C   UNL     1     -11.889  14.812  65.812  0.00  0.00    +0.239 C 
ATOM      2  N   UNL     1     -11.160  14.782  67.233  0.00  0.00    -0.232 N 
ATOM      3  C   UNL     1     -10.718  13.250  67.337  0.00  0.00    +0.256 C 
ATOM      4  C   UNL     1     -11.771  13.208  68.646  0.00  0.00    +0.151 C 
ATOM      5  O   UNL     1     -11.858  12.781  66.338  0.00  0.00    -0.462 OA
ATOM      6  C   UNL     1     -11.587  14.693  68.598  0.00  0.00    +0.234 C 
ATOM      7  O   UNL     1     -11.081  15.441  69.485  0.00  0.00    -0.275 OA
ATOM      8  C   UNL     1     -11.153  13.425  65.306  0.00  0.00    +0.146 C 
ATOM      9  C   UNL     1     -11.268  13.161  64.004  0.00  0.00    +0.044 C 
ENDROOT
BRANCH   1  11
ATOM     10  O   UNL     1      -9.692  15.859  65.775  0.00  0.00    -0.243 OA
ATOM     11  C   UNL     1     -10.731  15.758  65.121  0.00  0.00    +0.390 C 
ATOM     12  O   UNL     1     -11.258  16.697  64.269  0.00  0.00    -0.243 OA
ENDBRANCH   1  11
BRANCH   9  13
ATOM     13  C   UNL     1     -11.669  11.800  63.560  0.00  0.00    +0.211 C 
ATOM     14  O   UNL     1     -13.042  11.773  63.259  0.00  0.00    -0.215 OA
ENDBRANCH   9  13
TORSDOF 2
ENDMDL
MODEL 4
REMARK VINA RESULT:      -5.1      3.946      6.461
REMARK  Name = 
REMARK  2 active torsions:
REMARK  status: ('A' for Active; 'I' for Inactive)
REMARK    1  A    between atoms: C_2  and  C_4
REMARK    2  A    between atoms: C_6  and  C_7
REMARK                            x       y       z     vdW  Elec       q    Type
REMARK                         _______ _______ _______ _____ _____    ______ ____
ROOT
ATOM      1  C   UNL     1     -13.237  14.800  71.133  0.00  0.00    +0.239 C 
ATOM      2  N   UNL     1     -12.170  14.490  69.984  0.00  0.00    -0.232 N 
ATOM      3  C   UNL     1     -10.914  15.352  70.468  0.00  0.00    +0.256 C 
ATOM      4  C   UNL     1     -11.169  16.213  69.048  0.00  0.00    +0.151 C 
ATOM      5  O   UNL     1     -11.829  16.348  71.298  0.00  0.00    -0.462 OA
ATOM      6  C   UNL     1     -11.925  14.981  68.660  0.00  0.00    +0.234 C 
ATOM      7  O   UNL     1     -11.673  14.182  67.710  0.00  0.00    -0.275 OA
ATOM      8  C   UNL     1     -12.077  15.296  72.197  0.00  0.00    +0.146 C 
ATOM      9  C   UNL     1     -12.483  15.433  73.460  0.00  0.00    +0.044 C 
ENDROOT
BRANCH   1  11
ATOM     10  O   UNL     1     -12.592  12.456  71.018  0.00  0.00    -0.243 OA
ATOM     11  C   UNL     1     -13.209  13.260  71.718  0.00  0.00    +0.390 C 
ATOM     12  O   UNL     1     -14.282  12.987  72.531  0.00  0.00    -0.243 OA
ENDBRANCH   1  11
BRANCH   9  13
ATOM     13  C   UNL     1     -12.138  16.665  74.217  0.00  0.00    +0.211 C 
ATOM     14  O   UNL     1     -12.460  16.506  75.575  0.00  0.00    -0.215 OA
ENDBRANCH   9  13
TORSDOF 2
ENDMDL
MODEL 5
REMARK VINA RESULT:      -5.0      1.407      1.759
REMARK  Name = 
REMARK  2 active torsions:
REMARK  status: ('A' for Active; 'I' for Inactive)
REMARK    1  A    between atoms: C_2  and  C_4
REMARK    2  A    between atoms: C_6  and  C_7
REMARK                            x       y       z     vdW  Elec       q    Type
REMARK                         _______ _______ _______ _____ _____    ______ ____
ROOT
ATOM      1  C   UNL     1      -9.978  14.977  66.292  0.00  0.00    +0.239 C 
ATOM      2  N   UNL     1     -11.009  14.273  65.295  0.00  0.00    -0.232 N 
ATOM      3  C   UNL     1     -12.229  13.941  66.274  0.00  0.00    +0.256 C 
ATOM      4  C   UNL     1     -11.857  12.340  65.923  0.00  0.00    +0.151 C 
ATOM      5  O   UNL     1     -11.290  13.933  67.554  0.00  0.00    -0.462 OA
ATOM      6  C   UNL     1     -11.164  12.957  64.748  0.00  0.00    +0.234 C 
ATOM      7  O   UNL     1     -11.424  12.794  63.520  0.00  0.00    -0.275 OA
ATOM      8  C   UNL     1     -11.150  15.323  67.401  0.00  0.00    +0.146 C 
ATOM      9  C   UNL     1     -10.793  16.178  68.360  0.00  0.00    +0.044 C 
ENDROOT
BRANCH   1  11
ATOM     10  O   UNL     1     -10.927  16.487  64.636  0.00  0.00    -0.243 OA
ATOM     11  C   UNL     1     -10.129  16.451  65.573  0.00  0.00    +0.390 C 
ATOM     12  O   UNL     1      -9.005  17.227  65.724  0.00  0.00    -0.243 OA
ENDBRANCH   1  11
BRANCH   9  13
ATOM     13  C   UNL     1     -11.093  15.861  69.781  0.00  0.00    +0.211 C 
ATOM     14  O   UNL     1     -12.476  15.946  70.015  0.00  0.00    -0.215 OA
ENDBRANCH   9  13
TORSDOF 2
ENDMDL
MODEL 6
REMARK VINA RESULT:      -5.0      1.310      4.418
REMARK  Name = 
REMARK  2 active torsions:
REMARK  status: ('A' for Active; 'I' for Inactive)
REMARK    1  A    between atoms: C_2  and  C_4
REMARK    2  A    between atoms: C_6  and  C_7
REMARK                            x       y       z     vdW  Elec       q    Type
REMARK                         _______ _______ _______ _____ _____    ______ ____
ROOT
ATOM      1  C   UNL     1     -11.800  14.632  65.766  0.00  0.00    +0.239 C 
ATOM      2  N   UNL     1     -11.232  15.260  67.120  0.00  0.00    -0.232 N 
ATOM      3  C   UNL     1     -10.234  14.112  67.614  0.00  0.00    +0.256 C 
ATOM      4  C   UNL     1     -11.286  13.991  68.919  0.00  0.00    +0.151 C 
ATOM      5  O   UNL     1     -11.017  12.990  66.811  0.00  0.00    -0.462 OA
ATOM      6  C   UNL     1     -11.696  15.360  68.473  0.00  0.00    +0.234 C 
ATOM      7  O   UNL     1     -11.595  16.448  69.112  0.00  0.00    -0.275 OA
ATOM      8  C   UNL     1     -10.542  13.574  65.624  0.00  0.00    +0.146 C 
ATOM      9  C   UNL     1     -10.441  12.962  64.443  0.00  0.00    +0.044 C 
ENDROOT
BRANCH   1  11
ATOM     10  O   UNL     1     -10.089  16.309  65.335  0.00  0.00    -0.243 OA
ATOM     11  C   UNL     1     -11.054  15.750  64.813  0.00  0.00    +0.390 C 
ATOM     12  O   UNL     1     -11.897  16.281  63.867  0.00  0.00    -0.243 OA
ENDBRANCH   1  11
BRANCH   9  13
ATOM     13  C   UNL     1     -10.241  11.491  64.390  0.00  0.00    +0.211 C 
ATOM     14  O   UNL     1     -10.337  11.036  63.063  0.00  0.00    -0.215 OA
ENDBRANCH   9  13
TORSDOF 2
ENDMDL
MODEL 7
REMARK VINA RESULT:      -4.8      2.061      3.490
REMARK  Name = 
REMARK  2 active torsions:
REMARK  status: ('A' for Active; 'I' for Inactive)
REMARK    1  A    between atoms: C_2  and  C_4
REMARK    2  A    between atoms: C_6  and  C_7
REMARK                            x       y       z     vdW  Elec       q    Type
REMARK                         _______ _______ _______ _____ _____    ______ ____
ROOT
ATOM      1  C   UNL     1     -10.595  13.092  66.187  0.00  0.00    +0.239 C 
ATOM      2  N   UNL     1     -11.680  12.528  67.216  0.00  0.00    -0.232 N 
ATOM      3  C   UNL     1     -12.028  13.836  68.067  0.00  0.00    +0.256 C 
ATOM      4  C   UNL     1     -11.371  12.972  69.350  0.00  0.00    +0.151 C 
ATOM      5  O   UNL     1     -10.629  14.509  67.735  0.00  0.00    -0.462 OA
ATOM      6  C   UNL     1     -11.636  11.804  68.452  0.00  0.00    +0.234 C 
ATOM      7  O   UNL     1     -12.414  10.827  68.658  0.00  0.00    -0.275 OA
ATOM      8  C   UNL     1     -11.069  14.656  66.407  0.00  0.00    +0.146 C 
ATOM      9  C   UNL     1     -10.586  15.529  65.522  0.00  0.00    +0.044 C 
ENDROOT
BRANCH   1  11
ATOM     10  O   UNL     1     -12.725  12.531  65.151  0.00  0.00    -0.243 OA
ATOM     11  C   UNL     1     -11.583  12.906  64.882  0.00  0.00    +0.390 C 
ATOM     12  O   UNL     1     -10.886  12.650  63.727  0.00  0.00    -0.243 OA
ENDBRANCH   1  11
BRANCH   9  13
ATOM     13  C   UNL     1      -9.987  16.805  65.994  0.00  0.00    +0.211 C 
ATOM     14  O   UNL     1     -10.615  17.896  65.370  0.00  0.00    -0.215 OA
ENDBRANCH   9  13
TORSDOF 2
ENDMDL
MODEL 8
REMARK VINA RESULT:      -4.8      3.102      5.455
REMARK  Name = 
REMARK  2 active torsions:
REMARK  status: ('A' for Active; 'I' for Inactive)
REMARK    1  A    between atoms: C_2  and  C_4
REMARK    2  A    between atoms: C_6  and  C_7
REMARK                            x       y       z     vdW  Elec       q    Type
REMARK                         _______ _______ _______ _____ _____    ______ ____
ROOT
ATOM      1  C   UNL     1     -10.513  16.823  68.539  0.00  0.00    +0.239 C 
ATOM      2  N   UNL     1     -10.570  15.749  69.721  0.00  0.00    -0.232 N 
ATOM      3  C   UNL     1     -11.012  14.429  68.937  0.00  0.00    +0.256 C 
ATOM      4  C   UNL     1     -12.394  14.529  69.887  0.00  0.00    +0.151 C 
ATOM      5  O   UNL     1     -11.690  15.265  67.770  0.00  0.00    -0.462 OA
ATOM      6  C   UNL     1     -11.519  15.397  70.735  0.00  0.00    +0.234 C 
ATOM      7  O   UNL     1     -11.146  15.194  71.928  0.00  0.00    -0.275 OA
ATOM      8  C   UNL     1     -10.401  15.663  67.372  0.00  0.00    +0.146 C 
ATOM      9  C   UNL     1     -10.065  16.104  66.159  0.00  0.00    +0.044 C 
ENDROOT
BRANCH   1  11
ATOM     10  O   UNL     1      -8.306  16.111  69.278  0.00  0.00    -0.243 OA
ATOM     11  C   UNL     1      -8.876  16.987  68.626  0.00  0.00    +0.390 C 
ATOM     12  O   UNL     1      -8.469  18.290  68.469  0.00  0.00    -0.243 OA
ENDBRANCH   1  11
BRANCH   9  13
ATOM     13  C   UNL     1     -10.840  15.659  64.971  0.00  0.00    +0.211 C 
ATOM     14  O   UNL     1     -11.310  16.772  64.254  0.00  0.00    -0.215 OA
ENDBRANCH   9  13
TORSDOF 2
ENDMDL
MODEL 9
REMARK VINA RESULT:      -4.8      2.127      3.743
REMARK  Name = 
REMARK  2 active torsions:
REMARK  status: ('A' for Active; 'I' for Inactive)
REMARK    1  A    between atoms: C_2  and  C_4
REMARK    2  A    between atoms: C_6  and  C_7
REMARK                            x       y       z     vdW  Elec       q    Type
REMARK                         _______ _______ _______ _____ _____    ______ ____
ROOT
ATOM      1  C   UNL     1     -10.331  14.556  67.438  0.00  0.00    +0.239 C 
ATOM      2  N   UNL     1     -11.176  15.331  66.326  0.00  0.00    -0.232 N 
ATOM      3  C   UNL     1     -12.379  14.311  66.065  0.00  0.00    +0.256 C 
ATOM      4  C   UNL     1     -11.732  14.205  64.517  0.00  0.00    +0.151 C 
ATOM      5  O   UNL     1     -11.525  13.069  66.563  0.00  0.00    -0.462 OA
ATOM      6  C   UNL     1     -11.084  15.497  64.905  0.00  0.00    +0.234 C 
ATOM      7  O   UNL     1     -11.243  16.635  64.375  0.00  0.00    -0.275 OA
ATOM      8  C   UNL     1     -11.604  13.597  67.864  0.00  0.00    +0.146 C 
ATOM      9  C   UNL     1     -11.446  12.906  68.994  0.00  0.00    +0.044 C 
ENDROOT
BRANCH   1  11
ATOM     10  O   UNL     1     -11.512  16.503  68.297  0.00  0.00    -0.243 OA
ATOM     11  C   UNL     1     -10.678  15.654  68.616  0.00  0.00    +0.390 C 
ATOM     12  O   UNL     1      -9.647  15.812  69.509  0.00  0.00    -0.243 OA
ENDBRANCH   1  11
BRANCH   9  13
ATOM     13  C   UNL     1     -11.771  11.456  69.023  0.00  0.00    +0.211 C 
ATOM     14  O   UNL     1     -11.764  10.985  70.348  0.00  0.00    -0.215 OA
ENDBRANCH   9  13
TORSDOF 2
ENDMDL
