MODEL 1
REMARK VINA RESULT:      -6.8      0.000      0.000
REMARK  Name = 
REMARK  2 active torsions:
REMARK  status: ('A' for Active; 'I' for Inactive)
REMARK    1  A    between atoms: C_2  and  C_3
REMARK    2  A    between atoms: C_21  and  C_22
REMARK                            x       y       z     vdW  Elec       q    Type
REMARK                         _______ _______ _______ _____ _____    ______ ____
ROOT
ATOM      1  C   UNL     1      -8.684  10.427  68.196  0.00  0.00    +0.180 C 
ATOM      2  C   UNL     1      -9.518  10.244  67.020  0.00  0.00    +0.037 C 
ATOM      3  C   UNL     1      -9.254  11.547  66.072  0.00  0.00    +0.003 C 
ATOM      4  C   UNL     1     -10.716  11.138  65.327  0.00  0.00    +0.001 C 
ATOM      5  C   UNL     1     -11.914  12.057  66.034  0.00  0.00    +0.004 C 
ATOM      6  C   UNL     1     -11.611  11.655  67.581  0.00  0.00    +0.000 C 
ATOM      7  C   UNL     1     -11.425  13.666  66.031  0.00  0.00    +0.019 C 
ATOM      8  C   UNL     1     -12.262  13.775  64.642  0.00  0.00    -0.042 C 
ATOM      9  C   UNL     1     -12.279  15.036  64.318  0.00  0.00    +0.029 C 
ATOM     10  C   UNL     1     -11.214  15.910  64.840  0.00  0.00    +0.173 C 
ATOM     11  C   UNL     1      -9.929  15.300  65.246  0.00  0.00    +0.069 C 
ATOM     12  O   UNL     1     -11.129  17.114  64.507  0.00  0.00    -0.291 OA
ATOM     13  C   UNL     1     -11.972  12.631  63.704  0.00  0.00    +0.022 C 
ATOM     14  C   UNL     1     -10.064  13.782  65.161  0.00  0.00    +0.012 C 
ATOM     15  C   UNL     1     -10.624  11.991  63.944  0.00  0.00    +0.004 C 
ATOM     16  C   UNL     1      -9.608  12.407  67.392  0.00  0.00    +0.004 C 
ATOM     17  C   UNL     1     -10.920  10.415  67.610  0.00  0.00    +0.003 C 
ATOM     18  C   UNL     1      -8.530  11.943  68.306  0.00  0.00    +0.043 C 
ATOM     19  O   UNL     1      -7.447   9.826  68.205  0.00  0.00    -0.212 OA
ENDROOT
BRANCH   1  21
ATOM     20  C   UNL     1      -9.606   9.556  70.175  0.00  0.00    -0.012 C 
ATOM     21  C   UNL     1      -9.428   9.949  69.397  0.00  0.00    -0.049 C 
ENDBRANCH   1  21
BRANCH   2  22
ATOM     22  C   UNL     1      -9.541   9.029  66.233  0.00  0.00    +0.003 C 
ATOM     23  C   UNL     1     -10.489   8.007  66.870  0.00  0.00    +0.000 C 
ENDBRANCH   2  22
TORSDOF 2
ENDMDL
MODEL 2
REMARK VINA RESULT:      -6.6      2.715      4.965
REMARK  Name = 
REMARK  2 active torsions:
REMARK  status: ('A' for Active; 'I' for Inactive)
REMARK    1  A    between atoms: C_2  and  C_3
REMARK    2  A    between atoms: C_21  and  C_22
REMARK                            x       y       z     vdW  Elec       q    Type
REMARK                         _______ _______ _______ _____ _____    ______ ____
ROOT
ATOM      1  C   UNL     1     -12.036  13.003  65.001  0.00  0.00    +0.180 C 
ATOM      2  C   UNL     1     -11.478  13.000  66.342  0.00  0.00    +0.037 C 
ATOM      3  C   UNL     1     -11.676  14.516  66.916  0.00  0.00    +0.003 C 
ATOM      4  C   UNL     1     -10.472  14.110  68.032  0.00  0.00    +0.001 C 
ATOM      5  C   UNL     1      -9.021  14.667  67.429  0.00  0.00    +0.004 C 
ATOM      6  C   UNL     1      -9.101  13.948  65.971  0.00  0.00    +0.000 C 
ATOM      7  C   UNL     1      -9.208  16.279  66.990  0.00  0.00    +0.019 C 
ATOM      8  C   UNL     1      -8.634  16.608  68.474  0.00  0.00    -0.042 C 
ATOM      9  C   UNL     1      -8.453  17.896  68.524  0.00  0.00    +0.029 C 
ATOM     10  C   UNL     1      -9.232  18.751  67.611  0.00  0.00    +0.173 C 
ATOM     11  C   UNL     1     -10.509  18.236  67.069  0.00  0.00    +0.069 C 
ATOM     12  O   UNL     1      -9.161  20.001  67.658  0.00  0.00    -0.291 OA
ATOM     13  C   UNL     1      -9.289  15.771  69.543  0.00  0.00    +0.022 C 
ATOM     14  C   UNL     1     -10.663  16.779  67.496  0.00  0.00    +0.012 C 
ATOM     15  C   UNL     1     -10.663  15.275  69.153  0.00  0.00    +0.004 C 
ATOM     16  C   UNL     1     -10.939  14.980  65.557  0.00  0.00    +0.004 C 
ATOM     17  C   UNL     1      -9.984  12.839  66.051  0.00  0.00    +0.003 C 
ATOM     18  C   UNL     1     -11.896  14.454  64.546  0.00  0.00    +0.043 C 
ATOM     19  O   UNL     1     -13.337  12.584  64.846  0.00  0.00    -0.212 OA
ENDROOT
BRANCH   1  21
ATOM     20  C   UNL     1     -10.915  11.663  63.427  0.00  0.00    -0.012 C 
ATOM     21  C   UNL     1     -11.182  12.157  64.118  0.00  0.00    -0.049 C 
ENDBRANCH   1  21
BRANCH   2  22
ATOM     22  C   UNL     1     -11.816  12.017  67.351  0.00  0.00    +0.003 C 
ATOM     23  C   UNL     1     -10.955  10.762  67.173  0.00  0.00    +0.000 C 
ENDBRANCH   2  22
TORSDOF 2
ENDMDL
MODEL 3
REMARK VINA RESULT:      -6.6      3.255      6.485
REMARK  Name = 
REMARK  2 active torsions:
REMARK  status: ('A' for Active; 'I' for Inactive)
REMARK    1  A    between atoms: C_2  and  C_3
REMARK    2  A    between atoms: C_21  and  C_22
REMARK                            x       y       z     vdW  Elec       q    Type
REMARK                         _______ _______ _______ _____ _____    ______ ____
ROOT
ATOM      1  C   UNL     1      -9.152  18.890  66.700  0.00  0.00    +0.180 C 
ATOM      2  C   UNL     1      -8.648  17.628  67.215  0.00  0.00    +0.037 C 
ATOM      3  C   UNL     1      -9.081  16.491  66.125  0.00  0.00    +0.003 C 
ATOM      4  C   UNL     1      -8.830  15.383  67.378  0.00  0.00    +0.001 C 
ATOM      5  C   UNL     1     -10.308  15.082  68.086  0.00  0.00    +0.004 C 
ATOM      6  C   UNL     1     -10.720  16.626  68.392  0.00  0.00    +0.000 C 
ATOM      7  C   UNL     1     -11.412  14.701  66.877  0.00  0.00    +0.019 C 
ATOM      8  C   UNL     1     -11.026  13.156  67.200  0.00  0.00    -0.042 C 
ATOM      9  C   UNL     1     -11.847  12.417  66.512  0.00  0.00    +0.029 C 
ATOM     10  C   UNL     1     -12.472  12.994  65.308  0.00  0.00    +0.173 C 
ATOM     11  C   UNL     1     -11.800  14.125  64.631  0.00  0.00    +0.069 C 
ATOM     12  O   UNL     1     -13.212  12.315  64.560  0.00  0.00    -0.291 OA
ATOM     13  C   UNL     1      -9.537  12.947  67.309  0.00  0.00    +0.022 C 
ATOM     14  C   UNL     1     -10.607  14.559  65.479  0.00  0.00    +0.012 C 
ATOM     15  C   UNL     1      -8.733  13.982  66.555  0.00  0.00    +0.004 C 
ATOM     16  C   UNL     1     -10.571  17.088  66.300  0.00  0.00    +0.004 C 
ATOM     17  C   UNL     1      -9.543  17.418  68.439  0.00  0.00    +0.003 C 
ATOM     18  C   UNL     1     -10.350  18.487  65.843  0.00  0.00    +0.043 C 
ATOM     19  O   UNL     1      -8.291  19.674  65.968  0.00  0.00    -0.212 OA
ENDROOT
BRANCH   1  21
ATOM     20  C   UNL     1     -10.022  20.382  68.295  0.00  0.00    -0.012 C 
ATOM     21  C   UNL     1      -9.654  19.713  67.839  0.00  0.00    -0.049 C 
ENDBRANCH   1  21
BRANCH   2  22
ATOM     22  C   UNL     1      -7.283  17.428  67.656  0.00  0.00    +0.003 C 
ATOM     23  C   UNL     1      -7.047  18.152  68.985  0.00  0.00    +0.000 C 
ENDBRANCH   2  22
TORSDOF 2
ENDMDL
MODEL 4
REMARK VINA RESULT:      -6.5      1.702      5.758
REMARK  Name = 
REMARK  2 active torsions:
REMARK  status: ('A' for Active; 'I' for Inactive)
REMARK    1  A    between atoms: C_2  and  C_3
REMARK    2  A    between atoms: C_21  and  C_22
REMARK                            x       y       z     vdW  Elec       q    Type
REMARK                         _______ _______ _______ _____ _____    ______ ____
ROOT
ATOM      1  C   UNL     1     -11.724  14.345  65.339  0.00  0.00    +0.180 C 
ATOM      2  C   UNL     1     -10.901  13.153  65.225  0.00  0.00    +0.037 C 
ATOM      3  C   UNL     1     -11.583  12.039  66.206  0.00  0.00    +0.003 C 
ATOM      4  C   UNL     1     -10.083  11.259  66.146  0.00  0.00    +0.001 C 
ATOM      5  C   UNL     1      -9.220  11.727  67.493  0.00  0.00    +0.004 C 
ATOM      6  C   UNL     1      -9.347  13.336  67.284  0.00  0.00    +0.000 C 
ATOM      7  C   UNL     1     -10.190  11.514  68.849  0.00  0.00    +0.019 C 
ATOM      8  C   UNL     1      -9.461  10.068  68.975  0.00  0.00    -0.042 C 
ATOM      9  C   UNL     1      -9.849   9.555  70.107  0.00  0.00    +0.029 C 
ATOM     10  C   UNL     1     -11.123  10.014  70.687  0.00  0.00    +0.173 C 
ATOM     11  C   UNL     1     -12.142  10.602  69.790  0.00  0.00    +0.069 C 
ATOM     12  O   UNL     1     -11.591   9.508  71.733  0.00  0.00    -0.291 OA
ATOM     13  C   UNL     1      -9.397   9.340  67.657  0.00  0.00    +0.022 C 
ATOM     14  C   UNL     1     -11.538  10.740  68.395  0.00  0.00    +0.012 C 
ATOM     15  C   UNL     1     -10.470   9.773  66.684  0.00  0.00    +0.004 C 
ATOM     16  C   UNL     1     -11.488  13.182  67.342  0.00  0.00    +0.004 C 
ATOM     17  C   UNL     1      -9.611  13.605  65.915  0.00  0.00    +0.003 C 
ATOM     18  C   UNL     1     -12.345  14.234  66.730  0.00  0.00    +0.043 C 
ATOM     19  O   UNL     1     -12.708  14.537  64.397  0.00  0.00    -0.212 OA
ENDROOT
BRANCH   1  21
ATOM     20  C   UNL     1     -10.576  16.396  65.323  0.00  0.00    -0.012 C 
ATOM     21  C   UNL     1     -10.841  15.547  65.321  0.00  0.00    -0.049 C 
ENDBRANCH   1  21
BRANCH   2  22
ATOM     22  C   UNL     1     -10.514  12.561  63.961  0.00  0.00    +0.003 C 
ATOM     23  C   UNL     1     -11.696  11.802  63.351  0.00  0.00    +0.000 C 
ENDBRANCH   2  22
TORSDOF 2
ENDMDL
MODEL 5
REMARK VINA RESULT:      -6.4      6.686      9.543
REMARK  Name = 
REMARK  2 active torsions:
REMARK  status: ('A' for Active; 'I' for Inactive)
REMARK    1  A    between atoms: C_2  and  C_3
REMARK    2  A    between atoms: C_21  and  C_22
REMARK                            x       y       z     vdW  Elec       q    Type
REMARK                         _______ _______ _______ _____ _____    ______ ____
ROOT
ATOM      1  C   UNL     1      -9.499  18.432  67.407  0.00  0.00    +0.180 C 
ATOM      2  C   UNL     1      -8.114  18.190  67.042  0.00  0.00    +0.037 C 
ATOM      3  C   UNL     1      -7.268  18.210  68.438  0.00  0.00    +0.003 C 
ATOM      4  C   UNL     1      -5.913  18.475  67.462  0.00  0.00    +0.001 C 
ATOM      5  C   UNL     1      -5.637  20.119  67.422  0.00  0.00    +0.004 C 
ATOM      6  C   UNL     1      -7.125  20.578  66.949  0.00  0.00    +0.000 C 
ATOM      7  C   UNL     1      -5.623  20.696  69.001  0.00  0.00    +0.019 C 
ATOM      8  C   UNL     1      -4.013  20.497  68.915  0.00  0.00    -0.042 C 
ATOM      9  C   UNL     1      -3.517  21.018  70.000  0.00  0.00    +0.029 C 
ATOM     10  C   UNL     1      -4.384  21.130  71.186  0.00  0.00    +0.173 C 
ATOM     11  C   UNL     1      -5.549  20.225  71.303  0.00  0.00    +0.069 C 
ATOM     12  O   UNL     1      -3.949  21.551  72.282  0.00  0.00    -0.291 OA
ATOM     13  C   UNL     1      -3.629  19.164  68.325  0.00  0.00    +0.022 C 
ATOM     14  C   UNL     1      -5.676  19.429  70.007  0.00  0.00    +0.012 C 
ATOM     15  C   UNL     1      -4.701  18.111  68.485  0.00  0.00    +0.004 C 
ATOM     16  C   UNL     1      -7.974  19.641  68.685  0.00  0.00    +0.004 C 
ATOM     17  C   UNL     1      -7.762  19.485  66.304  0.00  0.00    +0.003 C 
ATOM     18  C   UNL     1      -9.404  19.230  68.706  0.00  0.00    +0.043 C 
ATOM     19  O   UNL     1     -10.316  17.340  67.584  0.00  0.00    -0.212 OA
ENDROOT
BRANCH   1  21
ATOM     20  C   UNL     1     -10.746  19.721  65.886  0.00  0.00    -0.012 C 
ATOM     21  C   UNL     1     -10.129  19.305  66.374  0.00  0.00    -0.049 C 
ENDBRANCH   1  21
BRANCH   2  22
ATOM     22  C   UNL     1      -7.686  17.097  66.194  0.00  0.00    +0.003 C 
ATOM     23  C   UNL     1      -7.722  15.779  66.975  0.00  0.00    +0.000 C 
ENDBRANCH   2  22
TORSDOF 2
ENDMDL
MODEL 6
REMARK VINA RESULT:      -6.3      1.531      3.014
REMARK  Name = 
REMARK  2 active torsions:
REMARK  status: ('A' for Active; 'I' for Inactive)
REMARK    1  A    between atoms: C_2  and  C_3
REMARK    2  A    between atoms: C_21  and  C_22
REMARK                            x       y       z     vdW  Elec       q    Type
REMARK                         _______ _______ _______ _____ _____    ______ ____
ROOT
ATOM      1  C   UNL     1      -9.968   9.293  66.913  0.00  0.00    +0.180 C 
ATOM      2  C   UNL     1     -10.280  10.301  67.911  0.00  0.00    +0.037 C 
ATOM      3  C   UNL     1     -11.198  11.419  67.153  0.00  0.00    +0.003 C 
ATOM      4  C   UNL     1     -10.763  12.448  68.423  0.00  0.00    +0.001 C 
ATOM      5  C   UNL     1      -9.464  13.356  67.909  0.00  0.00    +0.004 C 
ATOM      6  C   UNL     1      -8.505  12.124  67.451  0.00  0.00    +0.000 C 
ATOM      7  C   UNL     1      -9.839  14.028  66.415  0.00  0.00    +0.019 C 
ATOM      8  C   UNL     1     -10.315  15.325  67.270  0.00  0.00    -0.042 C 
ATOM      9  C   UNL     1     -10.580  16.262  66.406  0.00  0.00    +0.029 C 
ATOM     10  C   UNL     1     -10.930  15.869  65.029  0.00  0.00    +0.173 C 
ATOM     11  C   UNL     1     -11.470  14.513  64.792  0.00  0.00    +0.069 C 
ATOM     12  O   UNL     1     -11.269  16.715  64.170  0.00  0.00    -0.291 OA
ATOM     13  C   UNL     1     -11.172  14.951  68.452  0.00  0.00    +0.022 C 
ATOM     14  C   UNL     1     -11.399  13.727  66.098  0.00  0.00    +0.012 C 
ATOM     15  C   UNL     1     -11.878  13.625  68.281  0.00  0.00    +0.004 C 
ATOM     16  C   UNL     1     -10.006  11.461  66.066  0.00  0.00    +0.004 C 
ATOM     17  C   UNL     1      -8.909  10.946  68.132  0.00  0.00    +0.003 C 
ATOM     18  C   UNL     1     -10.033  10.052  65.589  0.00  0.00    +0.043 C 
ATOM     19  O   UNL     1     -10.771   8.177  66.856  0.00  0.00    -0.212 OA
ENDROOT
BRANCH   1  21
ATOM     20  C   UNL     1      -7.834   8.323  67.085  0.00  0.00    -0.012 C 
ATOM     21  C   UNL     1      -8.564   8.830  67.112  0.00  0.00    -0.049 C 
ENDBRANCH   1  21
BRANCH   2  22
ATOM     22  C   UNL     1     -10.814   9.996  69.222  0.00  0.00    +0.003 C 
ATOM     23  C   UNL     1      -9.684   9.569  70.165  0.00  0.00    +0.000 C 
ENDBRANCH   2  22
TORSDOF 2
ENDMDL
MODEL 7
REMARK VINA RESULT:      -6.1      3.333      5.010
REMARK  Name = 
REMARK  2 active torsions:
REMARK  status: ('A' for Active; 'I' for Inactive)
REMARK    1  A    between atoms: C_2  and  C_3
REMARK    2  A    between atoms: C_21  and  C_22
REMARK                            x       y       z     vdW  Elec       q    Type
REMARK                         _______ _______ _______ _____ _____    ______ ____
ROOT
ATOM      1  C   UNL     1      -9.941  12.840  66.725  0.00  0.00    +0.180 C 
ATOM      2  C   UNL     1     -10.567  14.077  66.292  0.00  0.00    +0.037 C 
ATOM      3  C   UNL     1      -9.388  15.207  66.301  0.00  0.00    +0.003 C 
ATOM      4  C   UNL     1     -10.648  16.334  66.334  0.00  0.00    +0.001 C 
ATOM      5  C   UNL     1     -10.895  16.766  67.925  0.00  0.00    +0.004 C 
ATOM      6  C   UNL     1     -11.083  15.267  68.529  0.00  0.00    +0.000 C 
ATOM      7  C   UNL     1      -9.414  17.187  68.599  0.00  0.00    +0.019 C 
ATOM      8  C   UNL     1      -9.820  18.709  68.200  0.00  0.00    -0.042 C 
ATOM      9  C   UNL     1      -8.916  19.484  68.727  0.00  0.00    +0.029 C 
ATOM     10  C   UNL     1      -7.589  18.916  69.022  0.00  0.00    +0.173 C 
ATOM     11  C   UNL     1      -7.146  17.717  68.276  0.00  0.00    +0.069 C 
ATOM     12  O   UNL     1      -6.652  19.623  69.459  0.00  0.00    -0.291 OA
ATOM     13  C   UNL     1     -10.354  18.812  66.794  0.00  0.00    +0.022 C 
ATOM     14  C   UNL     1      -8.308  17.225  67.417  0.00  0.00    +0.012 C 
ATOM     15  C   UNL     1      -9.875  17.697  65.892  0.00  0.00    +0.004 C 
ATOM     16  C   UNL     1      -9.129  14.727  67.821  0.00  0.00    +0.004 C 
ATOM     17  C   UNL     1     -11.477  14.392  67.482  0.00  0.00    +0.003 C 
ATOM     18  C   UNL     1      -8.769  13.302  67.589  0.00  0.00    +0.043 C 
ATOM     19  O   UNL     1      -9.497  11.972  65.755  0.00  0.00    -0.212 OA
ENDROOT
BRANCH   1  21
ATOM     20  C   UNL     1     -11.307  11.423  68.011  0.00  0.00    -0.012 C 
ATOM     21  C   UNL     1     -10.893  12.094  67.598  0.00  0.00    -0.049 C 
ENDBRANCH   1  21
BRANCH   2  22
ATOM     22  C   UNL     1     -11.383  14.191  65.101  0.00  0.00    +0.003 C 
ATOM     23  C   UNL     1     -12.812  13.725  65.395  0.00  0.00    +0.000 C 
ENDBRANCH   2  22
TORSDOF 2
ENDMDL
MODEL 8
REMARK VINA RESULT:      -5.8      3.209      6.642
REMARK  Name = 
REMARK  2 active torsions:
REMARK  status: ('A' for Active; 'I' for Inactive)
REMARK    1  A    between atoms: C_2  and  C_3
REMARK    2  A    between atoms: C_21  and  C_22
REMARK                            x       y       z     vdW  Elec       q    Type
REMARK                         _______ _______ _______ _____ _____    ______ ____
ROOT
ATOM      1  C   UNL     1      -7.518  17.860  67.598  0.00  0.00    +0.180 C 
ATOM      2  C   UNL     1      -8.913  17.581  67.893  0.00  0.00    +0.037 C 
ATOM      3  C   UNL     1      -8.948  16.079  68.532  0.00  0.00    +0.003 C 
ATOM      4  C   UNL     1     -10.590  16.087  68.129  0.00  0.00    +0.001 C 
ATOM      5  C   UNL     1     -10.749  15.324  66.655  0.00  0.00    +0.004 C 
ATOM      6  C   UNL     1      -9.670  16.220  65.830  0.00  0.00    +0.000 C 
ATOM      7  C   UNL     1      -9.940  13.852  66.726  0.00  0.00    +0.019 C 
ATOM      8  C   UNL     1     -11.388  13.230  67.122  0.00  0.00    -0.042 C 
ATOM      9  C   UNL     1     -11.245  11.936  67.131  0.00  0.00    +0.029 C 
ATOM     10  C   UNL     1      -9.897  11.380  67.344  0.00  0.00    +0.173 C 
ATOM     11  C   UNL     1      -8.886  12.209  68.036  0.00  0.00    +0.069 C 
ATOM     12  O   UNL     1      -9.702  10.146  67.440  0.00  0.00    -0.291 OA
ATOM     13  C   UNL     1     -12.094  14.044  68.175  0.00  0.00    +0.022 C 
ATOM     14  C   UNL     1      -9.469  13.602  68.255  0.00  0.00    +0.012 C 
ATOM     15  C   UNL     1     -11.151  14.856  69.034  0.00  0.00    +0.004 C 
ATOM     16  C   UNL     1      -8.128  15.647  67.209  0.00  0.00    +0.004 C 
ATOM     17  C   UNL     1      -9.506  17.468  66.486  0.00  0.00    +0.003 C 
ATOM     18  C   UNL     1      -6.905  16.479  67.374  0.00  0.00    +0.043 C 
ATOM     19  O   UNL     1      -6.790  18.553  68.537  0.00  0.00    -0.212 OA
ENDROOT
BRANCH   1  21
ATOM     20  C   UNL     1      -7.125  19.137  65.663  0.00  0.00    -0.012 C 
ATOM     21  C   UNL     1      -7.436  18.616  66.314  0.00  0.00    -0.049 C 
ENDBRANCH   1  21
BRANCH   2  22
ATOM     22  C   UNL     1      -9.772  18.479  68.638  0.00  0.00    +0.003 C 
ATOM     23  C   UNL     1     -10.349  19.550  67.706  0.00  0.00    +0.000 C 
ENDBRANCH   2  22
TORSDOF 2
ENDMDL
MODEL 9
REMARK VINA RESULT:      -5.8      3.213      5.143
REMARK  Name = 
REMARK  2 active torsions:
REMARK  status: ('A' for Active; 'I' for Inactive)
REMARK    1  A    between atoms: C_2  and  C_3
REMARK    2  A    between atoms: C_21  and  C_22
REMARK                            x       y       z     vdW  Elec       q    Type
REMARK                         _______ _______ _______ _____ _____    ______ ____
ROOT
ATOM      1  C   UNL     1     -11.145  13.346  67.792  0.00  0.00    +0.180 C 
ATOM      2  C   UNL     1      -9.749  13.741  67.725  0.00  0.00    +0.037 C 
ATOM      3  C   UNL     1      -9.666  15.222  68.409  0.00  0.00    +0.003 C 
ATOM      4  C   UNL     1      -8.195  15.375  67.588  0.00  0.00    +0.001 C 
ATOM      5  C   UNL     1      -8.496  16.191  66.166  0.00  0.00    +0.004 C 
ATOM      6  C   UNL     1      -9.681  15.225  65.608  0.00  0.00    +0.000 C 
ATOM      7  C   UNL     1      -9.373  17.580  66.523  0.00  0.00    +0.019 C 
ATOM      8  C   UNL     1      -7.926  18.320  66.556  0.00  0.00    -0.042 C 
ATOM      9  C   UNL     1      -8.165  19.595  66.670  0.00  0.00    +0.029 C 
ATOM     10  C   UNL     1      -9.447  20.020  67.258  0.00  0.00    +0.173 C 
ATOM     11  C   UNL     1     -10.167  19.083  68.148  0.00  0.00    +0.069 C 
ATOM     12  O   UNL     1      -9.708  21.228  67.465  0.00  0.00    -0.291 OA
ATOM     13  C   UNL     1      -6.901  17.544  67.343  0.00  0.00    +0.022 C 
ATOM     14  C   UNL     1      -9.437  17.743  68.133  0.00  0.00    +0.012 C 
ATOM     15  C   UNL     1      -7.514  16.626  68.376  0.00  0.00    +0.004 C 
ATOM     16  C   UNL     1     -10.840  15.615  67.373  0.00  0.00    +0.004 C 
ATOM     17  C   UNL     1      -9.563  13.949  66.219  0.00  0.00    +0.003 C 
ATOM     18  C   UNL     1     -11.904  14.671  67.810  0.00  0.00    +0.043 C 
ATOM     19  O   UNL     1     -11.539  12.563  68.853  0.00  0.00    -0.212 OA
ENDROOT
BRANCH   1  21
ATOM     20  C   UNL     1     -11.962  12.137  65.949  0.00  0.00    -0.012 C 
ATOM     21  C   UNL     1     -11.506  12.622  66.539  0.00  0.00    -0.049 C 
ENDBRANCH   1  21
BRANCH   2  22
ATOM     22  C   UNL     1      -8.653  12.905  68.170  0.00  0.00    +0.003 C 
ATOM     23  C   UNL     1      -8.213  11.969  67.039  0.00  0.00    +0.000 C 
ENDBRANCH   2  22
TORSDOF 2
ENDMDL
