MODEL 1
REMARK VINA RESULT:      -7.0      0.000      0.000
REMARK  Name = 
REMARK  6 active torsions:
REMARK  status: ('A' for Active; 'I' for Inactive)
REMARK    1  A    between atoms: C_2  and  C_3
REMARK    2  A    between atoms: C_2  and  C_20
REMARK    3  A    between atoms: C_3  and  C_4
REMARK    4  A    between atoms: C_4  and  C_5
REMARK    5  A    between atoms: C_5  and  N_6
REMARK    6  A    between atoms: C_9  and  C_11
REMARK                            x       y       z     vdW  Elec       q    Type
REMARK                         _______ _______ _______ _____ _____    ______ ____
ROOT
ATOM      1  N   UNL     1     -10.441  11.884  66.457  0.00  0.00    -0.272 NA
ATOM      2  C   UNL     1     -11.820  12.260  66.273  0.00  0.00    +0.075 C 
ATOM      3  C   UNL     1     -11.970  13.714  66.706  0.00  0.00    +0.052 C 
ATOM      4  C   UNL     1     -11.269  14.586  65.698  0.00  0.00    +0.148 C 
ATOM      5  O   UNL     1     -12.120  15.012  64.675  0.00  0.00    -0.221 OA
ATOM      6  C   UNL     1     -10.113  13.853  65.037  0.00  0.00    +0.052 C 
ATOM      7  C   UNL     1      -9.508  12.888  66.023  0.00  0.00    +0.075 C 
ENDROOT
BRANCH   4   8
ATOM      8  C   UNL     1     -10.683  15.783  66.372  0.00  0.00    +0.005 A 
ATOM      9  C   UNL     1     -10.805  15.934  67.738  0.00  0.00    -0.001 A 
ATOM     10  C   UNL     1     -10.587  17.178  68.309  0.00  0.00    +0.011 A 
ATOM     11  C   UNL     1     -10.317  18.304  67.561  0.00  0.00    +0.058 A 
ATOM     12 CL   UNL     1      -9.472  19.672  68.247  0.00  0.00    -0.082 Cl
ATOM     13  C   UNL     1     -10.326  18.148  66.186  0.00  0.00    +0.011 A 
ATOM     14  C   UNL     1     -10.552  16.924  65.593  0.00  0.00    -0.001 A 
ENDBRANCH   4   8
BRANCH   1  15
ATOM     15  C   UNL     1     -10.126  11.485  67.804  0.00  0.00    +0.073 C 
BRANCH  15  16
ATOM     16  C   UNL     1     -11.199  10.502  68.251  0.00  0.00    +0.025 C 
BRANCH  16  17
ATOM     17  C   UNL     1     -11.184  10.479  69.773  0.00  0.00    +0.071 C 
BRANCH  17  19
ATOM     18  O   UNL     1     -13.259  10.007  70.744  0.00  0.00    -0.291 OA
ATOM     19  C   UNL     1     -12.536  10.920  70.239  0.00  0.00    +0.173 C 
BRANCH  19  20
ATOM     20  C   UNL     1     -12.553  12.194  70.972  0.00  0.00    +0.035 A 
ATOM     21  C   UNL     1     -12.050  13.361  70.407  0.00  0.00    +0.005 A 
ATOM     22  C   UNL     1     -12.773  14.542  70.522  0.00  0.00    +0.030 A 
ATOM     23  C   UNL     1     -13.789  14.668  71.463  0.00  0.00    +0.140 A 
ATOM     24  F   UNL     1     -14.838  15.517  71.271  0.00  0.00    -0.204 F 
ATOM     25  C   UNL     1     -13.841  13.646  72.403  0.00  0.00    +0.030 A 
ATOM     26  C   UNL     1     -13.358  12.381  72.089  0.00  0.00    +0.005 A 
ENDBRANCH  19  20
ENDBRANCH  17  19
ENDBRANCH  16  17
ENDBRANCH  15  16
ENDBRANCH   1  15
TORSDOF 6
ENDMDL
MODEL 2
REMARK VINA RESULT:      -6.9      2.200      5.696
REMARK  Name = 
REMARK  6 active torsions:
REMARK  status: ('A' for Active; 'I' for Inactive)
REMARK    1  A    between atoms: C_2  and  C_3
REMARK    2  A    between atoms: C_2  and  C_20
REMARK    3  A    between atoms: C_3  and  C_4
REMARK    4  A    between atoms: C_4  and  C_5
REMARK    5  A    between atoms: C_5  and  N_6
REMARK    6  A    between atoms: C_9  and  C_11
REMARK                            x       y       z     vdW  Elec       q    Type
REMARK                         _______ _______ _______ _____ _____    ______ ____
ROOT
ATOM      1  N   UNL     1     -10.119  11.902  65.494  0.00  0.00    -0.272 NA
ATOM      2  C   UNL     1      -9.019  11.838  66.422  0.00  0.00    +0.075 C 
ATOM      3  C   UNL     1      -9.445  12.548  67.702  0.00  0.00    +0.052 C 
ATOM      4  C   UNL     1     -10.487  11.707  68.390  0.00  0.00    +0.148 C 
ATOM      5  O   UNL     1      -9.932  10.813  69.309  0.00  0.00    -0.221 OA
ATOM      6  C   UNL     1     -11.283  10.880  67.392  0.00  0.00    +0.052 C 
ATOM      7  C   UNL     1     -11.398  11.642  66.098  0.00  0.00    +0.075 C 
ENDROOT
BRANCH   4   8
ATOM      8  C   UNL     1     -11.472  12.580  69.096  0.00  0.00    +0.005 A 
ATOM      9  C   UNL     1     -11.386  13.952  68.976  0.00  0.00    -0.001 A 
ATOM     10  C   UNL     1     -12.049  14.759  69.887  0.00  0.00    +0.011 A 
ATOM     11  C   UNL     1     -12.746  14.252  70.964  0.00  0.00    +0.058 A 
ATOM     12 CL   UNL     1     -14.034  15.157  71.723  0.00  0.00    -0.082 Cl
ATOM     13  C   UNL     1     -12.709  12.878  71.131  0.00  0.00    +0.011 A 
ATOM     14  C   UNL     1     -12.046  12.055  70.246  0.00  0.00    -0.001 A 
ENDBRANCH   4   8
BRANCH   1  15
ATOM     15  C   UNL     1     -10.179  13.136  64.754  0.00  0.00    +0.073 C 
BRANCH  15  16
ATOM     16  C   UNL     1     -11.646  13.525  64.636  0.00  0.00    +0.025 C 
BRANCH  16  17
ATOM     17  C   UNL     1     -11.843  14.796  65.450  0.00  0.00    +0.071 C 
BRANCH  17  19
ATOM     18  O   UNL     1     -11.544  16.530  63.908  0.00  0.00    -0.291 OA
ATOM     19  C   UNL     1     -10.989  15.858  64.831  0.00  0.00    +0.173 C 
BRANCH  19  20
ATOM     20  C   UNL     1     -10.204  16.655  65.784  0.00  0.00    +0.035 A 
ATOM     21  C   UNL     1     -10.530  17.978  66.063  0.00  0.00    +0.005 A 
ATOM     22  C   UNL     1     -10.537  18.417  67.381  0.00  0.00    +0.030 A 
ATOM     23  C   UNL     1      -9.901  17.686  68.379  0.00  0.00    +0.140 A 
ATOM     24  F   UNL     1     -10.313  17.743  69.677  0.00  0.00    -0.204 F 
ATOM     25  C   UNL     1      -9.082  16.663  67.919  0.00  0.00    +0.030 A 
ATOM     26  C   UNL     1      -9.338  16.059  66.693  0.00  0.00    +0.005 A 
ENDBRANCH  19  20
ENDBRANCH  17  19
ENDBRANCH  16  17
ENDBRANCH  15  16
ENDBRANCH   1  15
TORSDOF 6
ENDMDL
MODEL 3
REMARK VINA RESULT:      -6.9      2.829      4.100
REMARK  Name = 
REMARK  6 active torsions:
REMARK  status: ('A' for Active; 'I' for Inactive)
REMARK    1  A    between atoms: C_2  and  C_3
REMARK    2  A    between atoms: C_2  and  C_20
REMARK    3  A    between atoms: C_3  and  C_4
REMARK    4  A    between atoms: C_4  and  C_5
REMARK    5  A    between atoms: C_5  and  N_6
REMARK    6  A    between atoms: C_9  and  C_11
REMARK                            x       y       z     vdW  Elec       q    Type
REMARK                         _______ _______ _______ _____ _____    ______ ____
ROOT
ATOM      1  N   UNL     1      -9.953  13.032  66.236  0.00  0.00    -0.272 NA
ATOM      2  C   UNL     1     -10.933  13.995  65.799  0.00  0.00    +0.075 C 
ATOM      3  C   UNL     1     -11.750  14.416  67.015  0.00  0.00    +0.052 C 
ATOM      4  C   UNL     1     -10.873  15.247  67.915  0.00  0.00    +0.148 C 
ATOM      5  O   UNL     1     -10.959  16.613  67.634  0.00  0.00    -0.221 OA
ATOM      6  C   UNL     1      -9.410  14.856  67.779  0.00  0.00    +0.052 C 
ATOM      7  C   UNL     1      -9.315  13.384  67.476  0.00  0.00    +0.075 C 
ENDROOT
BRANCH   4   8
ATOM      8  C   UNL     1     -11.241  15.021  69.344  0.00  0.00    +0.005 A 
ATOM      9  C   UNL     1     -12.136  14.024  69.676  0.00  0.00    -0.001 A 
ATOM     10  C   UNL     1     -12.743  14.041  70.923  0.00  0.00    +0.011 A 
ATOM     11  C   UNL     1     -12.544  15.055  71.835  0.00  0.00    +0.058 A 
ATOM     12 CL   UNL     1     -12.787  14.800  73.547  0.00  0.00    -0.082 Cl
ATOM     13  C   UNL     1     -11.740  16.105  71.426  0.00  0.00    +0.011 A 
ATOM     14  C   UNL     1     -11.135  16.119  70.187  0.00  0.00    -0.001 A 
ENDBRANCH   4   8
BRANCH   1  15
ATOM     15  C   UNL     1     -10.463  11.689  66.323  0.00  0.00    +0.073 C 
BRANCH  15  16
ATOM     16  C   UNL     1      -9.989  11.106  67.647  0.00  0.00    +0.025 C 
BRANCH  16  17
ATOM     17  C   UNL     1     -11.163  10.354  68.256  0.00  0.00    +0.071 C 
BRANCH  17  19
ATOM     18  O   UNL     1      -9.341   9.237  69.207  0.00  0.00    -0.291 OA
ATOM     19  C   UNL     1     -10.602   9.374  69.239  0.00  0.00    +0.173 C 
BRANCH  19  20
ATOM     20  C   UNL     1     -11.178   9.452  70.589  0.00  0.00    +0.035 A 
ATOM     21  C   UNL     1     -12.025  10.493  70.956  0.00  0.00    +0.005 A 
ATOM     22  C   UNL     1     -13.188  10.211  71.662  0.00  0.00    +0.030 A 
ATOM     23  C   UNL     1     -13.353   8.989  72.305  0.00  0.00    +0.140 A 
ATOM     24  F   UNL     1     -14.590   8.457  72.519  0.00  0.00    -0.204 F 
ATOM     25  C   UNL     1     -12.203   8.215  72.388  0.00  0.00    +0.030 A 
ATOM     26  C   UNL     1     -11.197   8.353  71.439  0.00  0.00    +0.005 A 
ENDBRANCH  19  20
ENDBRANCH  17  19
ENDBRANCH  16  17
ENDBRANCH  15  16
ENDBRANCH   1  15
TORSDOF 6
ENDMDL
MODEL 4
REMARK VINA RESULT:      -6.9      3.383      5.507
REMARK  Name = 
REMARK  6 active torsions:
REMARK  status: ('A' for Active; 'I' for Inactive)
REMARK    1  A    between atoms: C_2  and  C_3
REMARK    2  A    between atoms: C_2  and  C_20
REMARK    3  A    between atoms: C_3  and  C_4
REMARK    4  A    between atoms: C_4  and  C_5
REMARK    5  A    between atoms: C_5  and  N_6
REMARK    6  A    between atoms: C_9  and  C_11
REMARK                            x       y       z     vdW  Elec       q    Type
REMARK                         _______ _______ _______ _____ _____    ______ ____
ROOT
ATOM      1  N   UNL     1      -8.137  15.172  67.248  0.00  0.00    -0.272 NA
ATOM      2  C   UNL     1      -9.091  15.817  66.381  0.00  0.00    +0.075 C 
ATOM      3  C   UNL     1     -10.477  15.628  66.987  0.00  0.00    +0.052 C 
ATOM      4  C   UNL     1     -10.570  16.465  68.236  0.00  0.00    +0.148 C 
ATOM      5  O   UNL     1     -11.073  17.744  67.987  0.00  0.00    -0.221 OA
ATOM      6  C   UNL     1      -9.208  16.642  68.888  0.00  0.00    +0.052 C 
ATOM      7  C   UNL     1      -8.376  15.410  68.646  0.00  0.00    +0.075 C 
ENDROOT
BRANCH   4   8
ATOM      8  C   UNL     1     -11.438  15.790  69.246  0.00  0.00    +0.005 A 
ATOM      9  C   UNL     1     -11.394  16.186  70.568  0.00  0.00    -0.001 A 
ATOM     10  C   UNL     1     -11.912  15.352  71.547  0.00  0.00    +0.011 A 
ATOM     11  C   UNL     1     -12.415  14.099  71.269  0.00  0.00    +0.058 A 
ATOM     12 CL   UNL     1     -13.574  13.329  72.326  0.00  0.00    -0.082 Cl
ATOM     13  C   UNL     1     -12.329  13.677  69.954  0.00  0.00    +0.011 A 
ATOM     14  C   UNL     1     -11.808  14.482  68.963  0.00  0.00    -0.001 A 
ENDBRANCH   4   8
BRANCH   1  15
ATOM     15  C   UNL     1      -8.014  13.756  67.017  0.00  0.00    +0.073 C 
BRANCH  15  16
ATOM     16  C   UNL     1      -8.289  13.053  68.338  0.00  0.00    +0.025 C 
BRANCH  16  17
ATOM     17  C   UNL     1      -9.357  12.001  68.076  0.00  0.00    +0.071 C 
BRANCH  17  19
ATOM     18  O   UNL     1      -8.366  10.493  66.586  0.00  0.00    -0.291 OA
ATOM     19  C   UNL     1      -9.147  11.490  66.685  0.00  0.00    +0.173 C 
BRANCH  19  20
ATOM     20  C   UNL     1     -10.365  11.400  65.867  0.00  0.00    +0.035 A 
ATOM     21  C   UNL     1     -11.548  12.014  66.261  0.00  0.00    +0.005 A 
ATOM     22  C   UNL     1     -12.290  12.730  65.330  0.00  0.00    +0.030 A 
ATOM     23  C   UNL     1     -12.075  12.562  63.966  0.00  0.00    +0.140 A 
ATOM     24  F   UNL     1     -12.337  13.558  63.074  0.00  0.00    -0.204 F 
ATOM     25  C   UNL     1     -11.270  11.480  63.633  0.00  0.00    +0.030 A 
ATOM     26  C   UNL     1     -10.320  11.011  64.534  0.00  0.00    +0.005 A 
ENDBRANCH  19  20
ENDBRANCH  17  19
ENDBRANCH  16  17
ENDBRANCH  15  16
ENDBRANCH   1  15
TORSDOF 6
ENDMDL
MODEL 5
REMARK VINA RESULT:      -6.8      3.225      4.671
REMARK  Name = 
REMARK  6 active torsions:
REMARK  status: ('A' for Active; 'I' for Inactive)
REMARK    1  A    between atoms: C_2  and  C_3
REMARK    2  A    between atoms: C_2  and  C_20
REMARK    3  A    between atoms: C_3  and  C_4
REMARK    4  A    between atoms: C_4  and  C_5
REMARK    5  A    between atoms: C_5  and  N_6
REMARK    6  A    between atoms: C_9  and  C_11
REMARK                            x       y       z     vdW  Elec       q    Type
REMARK                         _______ _______ _______ _____ _____    ______ ____
ROOT
ATOM      1  N   UNL     1     -10.173  16.161  69.346  0.00  0.00    -0.272 NA
ATOM      2  C   UNL     1      -8.804  16.127  68.896  0.00  0.00    +0.075 C 
ATOM      3  C   UNL     1      -8.748  15.277  67.632  0.00  0.00    +0.052 C 
ATOM      4  C   UNL     1      -9.426  16.032  66.519  0.00  0.00    +0.148 C 
ATOM      5  O   UNL     1      -8.534  16.822  65.788  0.00  0.00    -0.221 OA
ATOM      6  C   UNL     1     -10.505  16.961  67.054  0.00  0.00    +0.052 C 
ATOM      7  C   UNL     1     -11.124  16.347  68.282  0.00  0.00    +0.075 C 
ENDROOT
BRANCH   4   8
ATOM      8  C   UNL     1     -10.107  15.082  65.591  0.00  0.00    +0.005 A 
ATOM      9  C   UNL     1     -11.257  15.468  64.931  0.00  0.00    -0.001 A 
ATOM     10  C   UNL     1     -12.074  14.502  64.364  0.00  0.00    +0.011 A 
ATOM     11  C   UNL     1     -11.827  13.151  64.486  0.00  0.00    +0.058 A 
ATOM     12 CL   UNL     1     -12.451  12.003  63.326  0.00  0.00    -0.082 Cl
ATOM     13  C   UNL     1     -10.737  12.790  65.260  0.00  0.00    +0.011 A 
ATOM     14  C   UNL     1      -9.916  13.731  65.845  0.00  0.00    -0.001 A 
ENDBRANCH   4   8
BRANCH   1  15
ATOM     15  C   UNL     1     -10.551  15.017  70.133  0.00  0.00    +0.073 C 
BRANCH  15  16
ATOM     16  C   UNL     1     -11.557  14.216  69.319  0.00  0.00    +0.025 C 
BRANCH  16  17
ATOM     17  C   UNL     1     -10.910  12.878  68.990  0.00  0.00    +0.071 C 
BRANCH  17  19
ATOM     18  O   UNL     1     -12.210  11.141  68.116  0.00  0.00    -0.291 OA
ATOM     19  C   UNL     1     -11.958  11.823  69.156  0.00  0.00    +0.173 C 
BRANCH  19  20
ATOM     20  C   UNL     1     -11.857  11.038  70.395  0.00  0.00    +0.035 A 
ATOM     21  C   UNL     1     -12.865  11.064  71.352  0.00  0.00    +0.005 A 
ATOM     22  C   UNL     1     -13.293   9.873  71.926  0.00  0.00    +0.030 A 
ATOM     23  C   UNL     1     -12.522   8.719  71.833  0.00  0.00    +0.140 A 
ATOM     24  F   UNL     1     -13.086   7.479  71.867  0.00  0.00    -0.204 F 
ATOM     25  C   UNL     1     -11.231   8.919  71.360  0.00  0.00    +0.030 A 
ATOM     26  C   UNL     1     -10.950   9.993  70.524  0.00  0.00    +0.005 A 
ENDBRANCH  19  20
ENDBRANCH  17  19
ENDBRANCH  16  17
ENDBRANCH  15  16
ENDBRANCH   1  15
TORSDOF 6
ENDMDL
MODEL 6
REMARK VINA RESULT:      -6.8      4.031      6.734
REMARK  Name = 
REMARK  6 active torsions:
REMARK  status: ('A' for Active; 'I' for Inactive)
REMARK    1  A    between atoms: C_2  and  C_3
REMARK    2  A    between atoms: C_2  and  C_20
REMARK    3  A    between atoms: C_3  and  C_4
REMARK    4  A    between atoms: C_4  and  C_5
REMARK    5  A    between atoms: C_5  and  N_6
REMARK    6  A    between atoms: C_9  and  C_11
REMARK                            x       y       z     vdW  Elec       q    Type
REMARK                         _______ _______ _______ _____ _____    ______ ____
ROOT
ATOM      1  N   UNL     1     -10.110  15.994  66.361  0.00  0.00    -0.272 NA
ATOM      2  C   UNL     1     -10.896  15.978  65.153  0.00  0.00    +0.075 C 
ATOM      3  C   UNL     1     -11.089  14.524  64.740  0.00  0.00    +0.052 C 
ATOM      4  C   UNL     1     -12.018  13.867  65.727  0.00  0.00    +0.148 C 
ATOM      5  O   UNL     1     -13.357  13.947  65.337  0.00  0.00    -0.221 OA
ATOM      6  C   UNL     1     -11.915  14.512  67.100  0.00  0.00    +0.052 C 
ATOM      7  C   UNL     1     -10.506  14.996  67.318  0.00  0.00    +0.075 C 
ENDROOT
BRANCH   4   8
ATOM      8  C   UNL     1     -11.649  12.431  65.905  0.00  0.00    +0.005 A 
ATOM      9  C   UNL     1     -11.655  11.869  67.167  0.00  0.00    -0.001 A 
ATOM     10  C   UNL     1     -10.987  10.675  67.384  0.00  0.00    +0.011 A 
ATOM     11  C   UNL     1     -10.248  10.045  66.405  0.00  0.00    +0.058 A 
ATOM     12 CL   UNL     1      -9.933   8.327  66.467  0.00  0.00    -0.082 Cl
ATOM     13  C   UNL     1     -10.155  10.696  65.187  0.00  0.00    +0.011 A 
ATOM     14  C   UNL     1     -10.800  11.891  64.949  0.00  0.00    -0.001 A 
ENDBRANCH   4   8
BRANCH   1  15
ATOM     15  C   UNL     1      -8.693  15.902  66.130  0.00  0.00    +0.073 C 
BRANCH  15  16
ATOM     16  C   UNL     1      -8.036  15.545  67.456  0.00  0.00    +0.025 C 
BRANCH  16  17
ATOM     17  C   UNL     1      -6.883  16.515  67.665  0.00  0.00    +0.071 C 
BRANCH  17  19
ATOM     18  O   UNL     1      -6.398  17.774  69.576  0.00  0.00    -0.291 OA
ATOM     19  C   UNL     1      -7.299  17.479  68.731  0.00  0.00    +0.173 C 
BRANCH  19  20
ATOM     20  C   UNL     1      -8.096  18.620  68.259  0.00  0.00    +0.035 A 
ATOM     21  C   UNL     1      -7.687  19.389  67.175  0.00  0.00    +0.005 A 
ATOM     22  C   UNL     1      -8.612  19.743  66.200  0.00  0.00    +0.030 A 
ATOM     23  C   UNL     1      -9.978  19.652  66.447  0.00  0.00    +0.140 A 
ATOM     24  F   UNL     1     -10.873  19.450  65.439  0.00  0.00    -0.204 F 
ATOM     25  C   UNL     1     -10.315  19.431  67.776  0.00  0.00    +0.030 A 
ATOM     26  C   UNL     1      -9.426  18.782  68.625  0.00  0.00    +0.005 A 
ENDBRANCH  19  20
ENDBRANCH  17  19
ENDBRANCH  16  17
ENDBRANCH  15  16
ENDBRANCH   1  15
TORSDOF 6
ENDMDL
MODEL 7
REMARK VINA RESULT:      -6.7      1.658      2.131
REMARK  Name = 
REMARK  6 active torsions:
REMARK  status: ('A' for Active; 'I' for Inactive)
REMARK    1  A    between atoms: C_2  and  C_3
REMARK    2  A    between atoms: C_2  and  C_20
REMARK    3  A    between atoms: C_3  and  C_4
REMARK    4  A    between atoms: C_4  and  C_5
REMARK    5  A    between atoms: C_5  and  N_6
REMARK    6  A    between atoms: C_9  and  C_11
REMARK                            x       y       z     vdW  Elec       q    Type
REMARK                         _______ _______ _______ _____ _____    ______ ____
ROOT
ATOM      1  N   UNL     1     -11.501  12.574  66.094  0.00  0.00    -0.272 NA
ATOM      2  C   UNL     1     -12.449  13.561  65.643  0.00  0.00    +0.075 C 
ATOM      3  C   UNL     1     -12.052  14.902  66.249  0.00  0.00    +0.052 C 
ATOM      4  C   UNL     1     -10.779  15.366  65.592  0.00  0.00    +0.148 C 
ATOM      5  O   UNL     1     -11.016  16.169  64.473  0.00  0.00    -0.221 OA
ATOM      6  C   UNL     1      -9.936  14.190  65.125  0.00  0.00    +0.052 C 
ATOM      7  C   UNL     1     -10.137  13.030  66.064  0.00  0.00    +0.075 C 
ENDROOT
BRANCH   4   8
ATOM      8  C   UNL     1      -9.943  16.126  66.567  0.00  0.00    +0.005 A 
ATOM      9  C   UNL     1     -10.546  16.852  67.575  0.00  0.00    -0.001 A 
ATOM     10  C   UNL     1      -9.819  17.823  68.245  0.00  0.00    +0.011 A 
ATOM     11  C   UNL     1      -8.524  18.152  67.905  0.00  0.00    +0.058 A 
ATOM     12 CL   UNL     1      -7.437  18.885  69.061  0.00  0.00    -0.082 Cl
ATOM     13  C   UNL     1      -7.988  17.497  66.809  0.00  0.00    +0.011 A 
ATOM     14  C   UNL     1      -8.695  16.536  66.118  0.00  0.00    -0.001 A 
ENDBRANCH   4   8
BRANCH   1  15
ATOM     15  C   UNL     1     -11.799  12.041  67.397  0.00  0.00    +0.073 C 
BRANCH  15  16
ATOM     16  C   UNL     1     -10.562  12.232  68.263  0.00  0.00    +0.025 C 
BRANCH  16  17
ATOM     17  C   UNL     1     -10.787  13.481  69.103  0.00  0.00    +0.071 C 
BRANCH  17  19
ATOM     18  O   UNL     1     -12.026  12.159  70.583  0.00  0.00    -0.291 OA
ATOM     19  C   UNL     1     -12.013  13.247  69.929  0.00  0.00    +0.173 C 
BRANCH  19  20
ATOM     20  C   UNL     1     -12.489  14.419  70.677  0.00  0.00    +0.035 A 
ATOM     21  C   UNL     1     -13.743  14.433  71.279  0.00  0.00    +0.005 A 
ATOM     22  C   UNL     1     -13.874  14.919  72.574  0.00  0.00    +0.030 A 
ATOM     23  C   UNL     1     -12.875  15.700  73.147  0.00  0.00    +0.140 A 
ATOM     24  F   UNL     1     -12.683  15.734  74.496  0.00  0.00    -0.204 F 
ATOM     25  C   UNL     1     -11.901  16.140  72.261  0.00  0.00    +0.030 A 
ATOM     26  C   UNL     1     -11.618  15.410  71.112  0.00  0.00    +0.005 A 
ENDBRANCH  19  20
ENDBRANCH  17  19
ENDBRANCH  16  17
ENDBRANCH  15  16
ENDBRANCH   1  15
TORSDOF 6
ENDMDL
MODEL 8
REMARK VINA RESULT:      -6.6      3.761      7.098
REMARK  Name = 
REMARK  6 active torsions:
REMARK  status: ('A' for Active; 'I' for Inactive)
REMARK    1  A    between atoms: C_2  and  C_3
REMARK    2  A    between atoms: C_2  and  C_20
REMARK    3  A    between atoms: C_3  and  C_4
REMARK    4  A    between atoms: C_4  and  C_5
REMARK    5  A    between atoms: C_5  and  N_6
REMARK    6  A    between atoms: C_9  and  C_11
REMARK                            x       y       z     vdW  Elec       q    Type
REMARK                         _______ _______ _______ _____ _____    ______ ____
ROOT
ATOM      1  N   UNL     1      -9.860  15.061  66.170  0.00  0.00    -0.272 NA
ATOM      2  C   UNL     1      -9.091  14.063  66.869  0.00  0.00    +0.075 C 
ATOM      3  C   UNL     1      -9.492  14.107  68.339  0.00  0.00    +0.052 C 
ATOM      4  C   UNL     1     -10.894  13.572  68.468  0.00  0.00    +0.148 C 
ATOM      5  O   UNL     1     -10.922  12.197  68.710  0.00  0.00    -0.221 OA
ATOM      6  C   UNL     1     -11.701  13.818  67.203  0.00  0.00    +0.052 C 
ATOM      7  C   UNL     1     -11.243  15.102  66.563  0.00  0.00    +0.075 C 
ENDROOT
BRANCH   4   8
ATOM      8  C   UNL     1     -11.614  14.274  69.572  0.00  0.00    +0.005 A 
ATOM      9  C   UNL     1     -11.159  15.496  70.025  0.00  0.00    -0.001 A 
ATOM     10  C   UNL     1     -11.591  15.972  71.253  0.00  0.00    +0.011 A 
ATOM     11  C   UNL     1     -12.412  15.244  72.088  0.00  0.00    +0.058 A 
ATOM     12 CL   UNL     1     -13.417  16.026  73.285  0.00  0.00    -0.082 Cl
ATOM     13  C   UNL     1     -12.750  13.970  71.664  0.00  0.00    +0.011 A 
ATOM     14  C   UNL     1     -12.324  13.469  70.453  0.00  0.00    -0.001 A 
ENDBRANCH   4   8
BRANCH   1  15
ATOM     15  C   UNL     1      -9.299  16.384  66.253  0.00  0.00    +0.073 C 
BRANCH  15  16
ATOM     16  C   UNL     1     -10.373  17.301  66.821  0.00  0.00    +0.025 C 
BRANCH  16  17
ATOM     17  C   UNL     1     -10.157  18.680  66.215  0.00  0.00    +0.071 C 
BRANCH  17  19
ATOM     18  O   UNL     1     -10.390  19.600  68.353  0.00  0.00    -0.291 OA
ATOM     19  C   UNL     1      -9.668  19.576  67.309  0.00  0.00    +0.173 C 
BRANCH  19  20
ATOM     20  C   UNL     1      -8.222  19.509  67.565  0.00  0.00    +0.035 A 
ATOM     21  C   UNL     1      -7.335  20.376  66.936  0.00  0.00    +0.005 A 
ATOM     22  C   UNL     1      -6.331  20.985  67.680  0.00  0.00    +0.030 A 
ATOM     23  C   UNL     1      -5.974  20.495  68.932  0.00  0.00    +0.140 A 
ATOM     24  F   UNL     1      -5.443  21.306  69.891  0.00  0.00    -0.204 F 
ATOM     25  C   UNL     1      -6.510  19.252  69.244  0.00  0.00    +0.030 A 
ATOM     26  C   UNL     1      -7.707  18.841  68.669  0.00  0.00    +0.005 A 
ENDBRANCH  19  20
ENDBRANCH  17  19
ENDBRANCH  16  17
ENDBRANCH  15  16
ENDBRANCH   1  15
TORSDOF 6
ENDMDL
MODEL 9
REMARK VINA RESULT:      -6.6      2.493      3.440
REMARK  Name = 
REMARK  6 active torsions:
REMARK  status: ('A' for Active; 'I' for Inactive)
REMARK    1  A    between atoms: C_2  and  C_3
REMARK    2  A    between atoms: C_2  and  C_20
REMARK    3  A    between atoms: C_3  and  C_4
REMARK    4  A    between atoms: C_4  and  C_5
REMARK    5  A    between atoms: C_5  and  N_6
REMARK    6  A    between atoms: C_9  and  C_11
REMARK                            x       y       z     vdW  Elec       q    Type
REMARK                         _______ _______ _______ _____ _____    ______ ____
ROOT
ATOM      1  N   UNL     1     -10.426  11.502  64.829  0.00  0.00    -0.272 NA
ATOM      2  C   UNL     1     -11.683  11.925  64.267  0.00  0.00    +0.075 C 
ATOM      3  C   UNL     1     -12.385  12.802  65.298  0.00  0.00    +0.052 C 
ATOM      4  C   UNL     1     -11.635  14.103  65.407  0.00  0.00    +0.148 C 
ATOM      5  O   UNL     1     -12.128  15.079  64.537  0.00  0.00    -0.221 OA
ATOM      6  C   UNL     1     -10.160  13.923  65.084  0.00  0.00    +0.052 C 
ATOM      7  C   UNL     1      -9.721  12.550  65.517  0.00  0.00    +0.075 C 
ENDROOT
BRANCH   4   8
ATOM      8  C   UNL     1     -11.702  14.621  66.806  0.00  0.00    +0.005 A 
ATOM      9  C   UNL     1     -10.889  15.668  67.193  0.00  0.00    -0.001 A 
ATOM     10  C   UNL     1     -10.688  15.912  68.542  0.00  0.00    +0.011 A 
ATOM     11  C   UNL     1     -11.214  15.108  69.532  0.00  0.00    +0.058 A 
ATOM     12 CL   UNL     1     -11.483  15.714  71.149  0.00  0.00    -0.082 Cl
ATOM     13  C   UNL     1     -11.919  13.994  69.112  0.00  0.00    +0.011 A 
ATOM     14  C   UNL     1     -12.123  13.722  67.776  0.00  0.00    -0.001 A 
ENDBRANCH   4   8
BRANCH   1  15
ATOM     15  C   UNL     1     -10.536  10.352  65.689  0.00  0.00    +0.073 C 
BRANCH  15  16
ATOM     16  C   UNL     1     -10.054  10.770  67.072  0.00  0.00    +0.025 C 
BRANCH  16  17
ATOM     17  C   UNL     1     -11.083  10.274  68.077  0.00  0.00    +0.071 C 
BRANCH  17  19
ATOM     18  O   UNL     1      -9.085   9.873  69.226  0.00  0.00    -0.291 OA
ATOM     19  C   UNL     1     -10.333   9.639  69.206  0.00  0.00    +0.173 C 
BRANCH  19  20
ATOM     20  C   UNL     1     -10.995   9.722  70.515  0.00  0.00    +0.035 A 
ATOM     21  C   UNL     1     -11.926  10.717  70.793  0.00  0.00    +0.005 A 
ATOM     22  C   UNL     1     -13.111  10.384  71.438  0.00  0.00    +0.030 A 
ATOM     23  C   UNL     1     -13.239   9.174  72.113  0.00  0.00    +0.140 A 
ATOM     24  F   UNL     1     -14.451   8.570  72.271  0.00  0.00    -0.204 F 
ATOM     25  C   UNL     1     -12.051   8.479  72.292  0.00  0.00    +0.030 A 
ATOM     26  C   UNL     1     -10.998   8.651  71.400  0.00  0.00    +0.005 A 
ENDBRANCH  19  20
ENDBRANCH  17  19
ENDBRANCH  16  17
ENDBRANCH  15  16
ENDBRANCH   1  15
TORSDOF 6
ENDMDL
