MODEL 1
REMARK VINA RESULT:      -7.4      0.000      0.000
REMARK  Name = 
REMARK  9 active torsions:
REMARK  status: ('A' for Active; 'I' for Inactive)
REMARK    1  A    between atoms: C_2  and  C_4
REMARK    2  A    between atoms: N_7  and  S_9
REMARK    3  A    between atoms: C_14  and  C_15
REMARK    4  A    between atoms: C_22  and  C_23
REMARK    5  A    between atoms: C_24  and  C_25
REMARK    6  A    between atoms: C_25  and  C_27
REMARK    7  A    between atoms: C_27  and  C_28
REMARK    8  A    between atoms: C_28  and  C_30
REMARK    9  A    between atoms: C_30  and  C_31
REMARK                            x       y       z     vdW  Elec       q    Type
REMARK                         _______ _______ _______ _____ _____    ______ ____
ROOT
ATOM      1  C   UNL     1     -10.734  15.299  66.474  0.00  0.00    +0.063 A 
ATOM      2  C   UNL     1     -11.455  14.958  67.610  0.00  0.00    +0.031 A 
ATOM      3  C   UNL     1     -11.289  15.827  68.682  0.00  0.00    +0.085 A 
ATOM      4  N   UNL     1     -10.595  16.973  68.494  0.00  0.00    -0.212 NA
ATOM      5  C   UNL     1      -9.637  17.008  67.541  0.00  0.00    +0.239 A 
ATOM      6  N   UNL     1      -8.559  17.918  67.584  0.00  0.00    -0.160 N 
ATOM      7  C   UNL     1      -7.258  17.454  68.021  0.00  0.00    +0.142 C 
ATOM      8  N   UNL     1      -9.652  16.112  66.524  0.00  0.00    -0.217 NA
ENDROOT
BRANCH   3   9
ATOM      9  C   UNL     1     -11.903  15.557  69.976  0.00  0.00    +0.018 A 
ATOM     10  C   UNL     1     -13.255  15.363  70.116  0.00  0.00    +0.004 A 
ATOM     11  C   UNL     1     -13.748  15.196  71.390  0.00  0.00    +0.030 A 
ATOM     12  C   UNL     1     -12.934  15.365  72.492  0.00  0.00    +0.140 A 
ATOM     13  F   UNL     1     -13.468  15.751  73.682  0.00  0.00    -0.204 F 
ATOM     14  C   UNL     1     -11.584  15.213  72.304  0.00  0.00    +0.030 A 
ATOM     15  C   UNL     1     -11.057  15.318  71.045  0.00  0.00    +0.004 A 
ENDBRANCH   3   9
BRANCH   6  16
ATOM     16  S   UNL     1      -8.681  19.396  66.692  0.00  0.00    +0.061 S 
ATOM     17  O   UNL     1      -7.814  19.286  65.461  0.00  0.00    -0.154 OA
ATOM     18  O   UNL     1      -8.143  20.522  67.510  0.00  0.00    -0.154 OA
ATOM     19  C   UNL     1     -10.388  19.635  66.272  0.00  0.00    +0.200 C 
ENDBRANCH   6  16
BRANCH   1  21
ATOM     20  C   UNL     1     -10.446  14.304  65.032  0.00  0.00    +0.006 C 
ATOM     21  C   UNL     1     -10.893  14.399  65.307  0.00  0.00    +0.040 C 
ATOM     22  C   UNL     1     -12.230  14.574  64.619  0.00  0.00    +0.006 C 
ENDBRANCH   1  21
BRANCH   2  23
ATOM     23  C   UNL     1     -11.845  13.599  67.929  0.00  0.00    +0.001 C 
ATOM     24  C   UNL     1     -11.031  12.600  68.189  0.00  0.00    +0.006 C 
BRANCH  24  25
ATOM     25  C   UNL     1     -11.428  11.860  69.616  0.00  0.00    +0.177 C 
ATOM     26  O   UNL     1     -12.471  10.960  68.902  0.00  0.00    -0.218 OA
BRANCH  25  27
ATOM     27  C   UNL     1     -10.227  10.691  69.412  0.00  0.00    +0.071 C 
BRANCH  27  28
ATOM     28  C   UNL     1     -11.305   9.477  69.862  0.00  0.00    +0.166 C 
ATOM     29  O   UNL     1     -10.459   8.384  69.170  0.00  0.00    -0.222 OA
BRANCH  28  30
ATOM     30  C   UNL     1     -10.541   9.210  71.333  0.00  0.00    +0.147 C 
BRANCH  30  31
ATOM     31  C   UNL     1     -11.464   8.486  72.174  0.00  0.00    +0.367 C 
ATOM     32  O   UNL     1     -11.243   7.364  72.935  0.00  0.00    -0.246 OA
ATOM     33  O   UNL     1     -12.641   8.954  72.257  0.00  0.00    -0.246 OA
ENDBRANCH  30  31
ENDBRANCH  28  30
ENDBRANCH  27  28
ENDBRANCH  25  27
ENDBRANCH  24  25
ENDBRANCH   2  23
TORSDOF 9
ENDMDL
MODEL 2
REMARK VINA RESULT:      -7.1      4.129      8.432
REMARK  Name = 
REMARK  9 active torsions:
REMARK  status: ('A' for Active; 'I' for Inactive)
REMARK    1  A    between atoms: C_2  and  C_4
REMARK    2  A    between atoms: N_7  and  S_9
REMARK    3  A    between atoms: C_14  and  C_15
REMARK    4  A    between atoms: C_22  and  C_23
REMARK    5  A    between atoms: C_24  and  C_25
REMARK    6  A    between atoms: C_25  and  C_27
REMARK    7  A    between atoms: C_27  and  C_28
REMARK    8  A    between atoms: C_28  and  C_30
REMARK    9  A    between atoms: C_30  and  C_31
REMARK                            x       y       z     vdW  Elec       q    Type
REMARK                         _______ _______ _______ _____ _____    ______ ____
ROOT
ATOM      1  C   UNL     1     -11.569  10.730  69.282  0.00  0.00    +0.063 A 
ATOM      2  C   UNL     1     -11.771  11.816  68.442  0.00  0.00    +0.031 A 
ATOM      3  C   UNL     1     -11.164  11.702  67.196  0.00  0.00    +0.085 A 
ATOM      4  N   UNL     1     -10.585  10.527  66.856  0.00  0.00    -0.212 NA
ATOM      5  C   UNL     1     -10.100   9.730  67.833  0.00  0.00    +0.239 A 
ATOM      6  N   UNL     1      -9.081   8.781  67.600  0.00  0.00    -0.160 N 
ATOM      7  C   UNL     1      -7.724   9.086  68.007  0.00  0.00    +0.142 C 
ATOM      8  N   UNL     1     -10.547   9.861  69.106  0.00  0.00    -0.217 NA
ENDROOT
BRANCH   3   9
ATOM      9  C   UNL     1     -11.201  12.796  66.234  0.00  0.00    +0.018 A 
ATOM     10  C   UNL     1     -10.061  13.434  65.810  0.00  0.00    +0.004 A 
ATOM     11  C   UNL     1     -10.208  14.508  64.963  0.00  0.00    +0.030 A 
ATOM     12  C   UNL     1     -11.458  15.016  64.673  0.00  0.00    +0.140 A 
ATOM     13  F   UNL     1     -11.603  16.326  64.336  0.00  0.00    -0.204 F 
ATOM     14  C   UNL     1     -12.529  14.171  64.825  0.00  0.00    +0.030 A 
ATOM     15  C   UNL     1     -12.411  13.060  65.615  0.00  0.00    +0.004 A 
ENDBRANCH   3   9
BRANCH   6  16
ATOM     16  S   UNL     1      -9.529   7.140  67.286  0.00  0.00    +0.061 S 
ATOM     17  O   UNL     1     -10.995   7.103  66.928  0.00  0.00    -0.154 OA
ATOM     18  O   UNL     1      -9.358   6.326  68.526  0.00  0.00    -0.154 OA
ATOM     19  C   UNL     1      -8.516   6.546  65.957  0.00  0.00    +0.200 C 
ENDBRANCH   6  16
BRANCH   1  21
ATOM     20  C   UNL     1     -11.871  10.862  71.027  0.00  0.00    +0.006 C 
ATOM     21  C   UNL     1     -12.209  10.813  70.617  0.00  0.00    +0.040 C 
ATOM     22  C   UNL     1     -13.462   9.969  70.712  0.00  0.00    +0.006 C 
ENDBRANCH   1  21
BRANCH   2  23
ATOM     23  C   UNL     1     -12.022  13.160  68.921  0.00  0.00    +0.001 C 
ATOM     24  C   UNL     1     -11.118  14.008  69.361  0.00  0.00    +0.006 C 
BRANCH  24  25
ATOM     25  C   UNL     1     -11.235  15.466  68.583  0.00  0.00    +0.177 C 
ATOM     26  O   UNL     1     -11.609  16.183  69.907  0.00  0.00    -0.218 OA
BRANCH  25  27
ATOM     27  C   UNL     1      -9.597  15.794  68.828  0.00  0.00    +0.071 C 
BRANCH  27  28
ATOM     28  C   UNL     1      -9.895  17.449  68.728  0.00  0.00    +0.166 C 
ATOM     29  O   UNL     1      -8.385  17.784  68.742  0.00  0.00    -0.222 OA
BRANCH  28  30
ATOM     30  C   UNL     1      -9.930  17.439  67.049  0.00  0.00    +0.147 C 
BRANCH  30  31
ATOM     31  C   UNL     1     -10.534  18.679  66.623  0.00  0.00    +0.367 C 
ATOM     32  O   UNL     1     -10.620  19.210  65.359  0.00  0.00    -0.246 OA
ATOM     33  O   UNL     1     -11.096  19.375  67.524  0.00  0.00    -0.246 OA
ENDBRANCH  30  31
ENDBRANCH  28  30
ENDBRANCH  27  28
ENDBRANCH  25  27
ENDBRANCH  24  25
ENDBRANCH   2  23
TORSDOF 9
ENDMDL
MODEL 3
REMARK VINA RESULT:      -6.9      5.480      9.270
REMARK  Name = 
REMARK  9 active torsions:
REMARK  status: ('A' for Active; 'I' for Inactive)
REMARK    1  A    between atoms: C_2  and  C_4
REMARK    2  A    between atoms: N_7  and  S_9
REMARK    3  A    between atoms: C_14  and  C_15
REMARK    4  A    between atoms: C_22  and  C_23
REMARK    5  A    between atoms: C_24  and  C_25
REMARK    6  A    between atoms: C_25  and  C_27
REMARK    7  A    between atoms: C_27  and  C_28
REMARK    8  A    between atoms: C_28  and  C_30
REMARK    9  A    between atoms: C_30  and  C_31
REMARK                            x       y       z     vdW  Elec       q    Type
REMARK                         _______ _______ _______ _____ _____    ______ ____
ROOT
ATOM      1  C   UNL     1     -12.218   8.736  71.553  0.00  0.00    +0.063 A 
ATOM      2  C   UNL     1     -11.766   9.252  70.347  0.00  0.00    +0.031 A 
ATOM      3  C   UNL     1     -10.504   8.809  69.967  0.00  0.00    +0.085 A 
ATOM      4  N   UNL     1      -9.909   7.831  70.689  0.00  0.00    -0.212 NA
ATOM      5  C   UNL     1     -10.219   7.705  71.998  0.00  0.00    +0.239 A 
ATOM      6  N   UNL     1      -9.346   7.097  72.927  0.00  0.00    -0.160 N 
ATOM      7  C   UNL     1      -8.562   7.933  73.814  0.00  0.00    +0.142 C 
ATOM      8  N   UNL     1     -11.375   8.221  72.479  0.00  0.00    -0.217 NA
ENDROOT
BRANCH   3   9
ATOM      9  C   UNL     1      -9.848   9.330  68.774  0.00  0.00    +0.018 A 
ATOM     10  C   UNL     1      -8.717  10.107  68.843  0.00  0.00    +0.004 A 
ATOM     11  C   UNL     1      -8.220  10.617  67.666  0.00  0.00    +0.030 A 
ATOM     12  C   UNL     1      -8.917  10.476  66.483  0.00  0.00    +0.140 A 
ATOM     13  F   UNL     1      -8.765  11.391  65.487  0.00  0.00    -0.204 F 
ATOM     14  C   UNL     1      -9.814   9.441  66.402  0.00  0.00    +0.030 A 
ATOM     15  C   UNL     1     -10.294   8.866  67.548  0.00  0.00    +0.004 A 
ENDBRANCH   3   9
BRANCH   6  16
ATOM     16  S   UNL     1      -9.574   5.426  73.311  0.00  0.00    +0.061 S 
ATOM     17  O   UNL     1     -10.385   4.787  72.209  0.00  0.00    -0.154 OA
ATOM     18  O   UNL     1     -10.369   5.303  74.569  0.00  0.00    -0.154 OA
ATOM     19  C   UNL     1      -7.972   4.680  73.462  0.00  0.00    +0.200 C 
ENDBRANCH   6  16
BRANCH   1  21
ATOM     20  C   UNL     1     -13.579   9.431  72.458  0.00  0.00    +0.006 C 
ATOM     21  C   UNL     1     -13.564   9.180  71.987  0.00  0.00    +0.040 C 
ATOM     22  C   UNL     1     -14.656   8.223  71.559  0.00  0.00    +0.006 C 
ENDBRANCH   1  21
BRANCH   2  23
ATOM     23  C   UNL     1     -12.192  10.531  69.815  0.00  0.00    +0.001 C 
ATOM     24  C   UNL     1     -11.895  11.713  70.308  0.00  0.00    +0.006 C 
BRANCH  24  25
ATOM     25  C   UNL     1     -11.260  12.705  69.143  0.00  0.00    +0.177 C 
ATOM     26  O   UNL     1     -12.092  12.000  68.039  0.00  0.00    -0.218 OA
BRANCH  25  27
ATOM     27  C   UNL     1     -12.476  13.853  69.376  0.00  0.00    +0.071 C 
BRANCH  27  28
ATOM     28  C   UNL     1     -11.847  14.239  70.891  0.00  0.00    +0.166 C 
ATOM     29  O   UNL     1     -10.821  15.222  70.282  0.00  0.00    -0.222 OA
BRANCH  28  30
ATOM     30  C   UNL     1     -12.957  15.474  71.144  0.00  0.00    +0.147 C 
BRANCH  30  31
ATOM     31  C   UNL     1     -14.158  14.872  71.671  0.00  0.00    +0.367 C 
ATOM     32  O   UNL     1     -14.292  13.753  72.457  0.00  0.00    -0.246 OA
ATOM     33  O   UNL     1     -15.252  15.461  71.406  0.00  0.00    -0.246 OA
ENDBRANCH  30  31
ENDBRANCH  28  30
ENDBRANCH  27  28
ENDBRANCH  25  27
ENDBRANCH  24  25
ENDBRANCH   2  23
TORSDOF 9
ENDMDL
MODEL 4
REMARK VINA RESULT:      -6.9      4.031      8.868
REMARK  Name = 
REMARK  9 active torsions:
REMARK  status: ('A' for Active; 'I' for Inactive)
REMARK    1  A    between atoms: C_2  and  C_4
REMARK    2  A    between atoms: N_7  and  S_9
REMARK    3  A    between atoms: C_14  and  C_15
REMARK    4  A    between atoms: C_22  and  C_23
REMARK    5  A    between atoms: C_24  and  C_25
REMARK    6  A    between atoms: C_25  and  C_27
REMARK    7  A    between atoms: C_27  and  C_28
REMARK    8  A    between atoms: C_28  and  C_30
REMARK    9  A    between atoms: C_30  and  C_31
REMARK                            x       y       z     vdW  Elec       q    Type
REMARK                         _______ _______ _______ _____ _____    ______ ____
ROOT
ATOM      1  C   UNL     1     -12.038  13.174  69.957  0.00  0.00    +0.063 A 
ATOM      2  C   UNL     1     -11.745  13.253  68.602  0.00  0.00    +0.031 A 
ATOM      3  C   UNL     1     -11.700  12.026  67.950  0.00  0.00    +0.085 A 
ATOM      4  N   UNL     1     -12.084  10.914  68.619  0.00  0.00    -0.212 NA
ATOM      5  C   UNL     1     -11.951  10.883  69.963  0.00  0.00    +0.239 A 
ATOM      6  N   UNL     1     -11.841   9.674  70.685  0.00  0.00    -0.160 N 
ATOM      7  C   UNL     1     -10.538   9.244  71.151  0.00  0.00    +0.142 C 
ATOM      8  N   UNL     1     -11.861  12.036  70.668  0.00  0.00    -0.217 NA
ENDROOT
BRANCH   3   9
ATOM      9  C   UNL     1     -11.312  11.930  66.548  0.00  0.00    +0.018 A 
ATOM     10  C   UNL     1     -12.104  12.416  65.537  0.00  0.00    +0.004 A 
ATOM     11  C   UNL     1     -11.688  12.205  64.242  0.00  0.00    +0.030 A 
ATOM     12  C   UNL     1     -10.596  11.405  63.970  0.00  0.00    +0.140 A 
ATOM     13  F   UNL     1     -10.509  10.750  62.782  0.00  0.00    -0.204 F 
ATOM     14  C   UNL     1      -9.674  11.242  64.973  0.00  0.00    +0.030 A 
ATOM     15  C   UNL     1     -10.028  11.494  66.270  0.00  0.00    +0.004 A 
ENDBRANCH   3   9
BRANCH   6  16
ATOM     16  S   UNL     1     -13.267   8.994  71.391  0.00  0.00    +0.061 S 
ATOM     17  O   UNL     1     -14.453   9.373  70.537  0.00  0.00    -0.154 OA
ATOM     18  O   UNL     1     -13.490   9.589  72.742  0.00  0.00    -0.154 OA
ATOM     19  C   UNL     1     -13.049   7.236  71.467  0.00  0.00    +0.200 C 
ENDBRANCH   6  16
BRANCH   1  21
ATOM     20  C   UNL     1     -11.737  14.527  71.067  0.00  0.00    +0.006 C 
ATOM     21  C   UNL     1     -12.104  14.464  70.684  0.00  0.00    +0.040 C 
ATOM     22  C   UNL     1     -13.523  14.964  70.851  0.00  0.00    +0.006 C 
ENDBRANCH   1  21
BRANCH   2  23
ATOM     23  C   UNL     1     -10.977  14.331  68.013  0.00  0.00    +0.001 C 
ATOM     24  C   UNL     1     -11.466  15.427  67.473  0.00  0.00    +0.006 C 
BRANCH  24  25
ATOM     25  C   UNL     1     -10.763  16.779  68.121  0.00  0.00    +0.177 C 
ATOM     26  O   UNL     1      -9.421  16.027  68.326  0.00  0.00    -0.218 OA
BRANCH  25  27
ATOM     27  C   UNL     1     -10.268  17.321  66.601  0.00  0.00    +0.071 C 
BRANCH  27  28
ATOM     28  C   UNL     1      -8.747  17.709  67.214  0.00  0.00    +0.166 C 
ATOM     29  O   UNL     1      -8.081  17.552  65.828  0.00  0.00    -0.222 OA
BRANCH  28  30
ATOM     30  C   UNL     1      -8.966  19.357  66.981  0.00  0.00    +0.147 C 
BRANCH  30  31
ATOM     31  C   UNL     1      -7.910  20.037  67.691  0.00  0.00    +0.367 C 
ATOM     32  O   UNL     1      -7.221  21.172  67.337  0.00  0.00    -0.246 OA
ATOM     33  O   UNL     1      -7.578  19.550  68.816  0.00  0.00    -0.246 OA
ENDBRANCH  30  31
ENDBRANCH  28  30
ENDBRANCH  27  28
ENDBRANCH  25  27
ENDBRANCH  24  25
ENDBRANCH   2  23
TORSDOF 9
ENDMDL
MODEL 5
REMARK VINA RESULT:      -6.8      1.582      2.078
REMARK  Name = 
REMARK  9 active torsions:
REMARK  status: ('A' for Active; 'I' for Inactive)
REMARK    1  A    between atoms: C_2  and  C_4
REMARK    2  A    between atoms: N_7  and  S_9
REMARK    3  A    between atoms: C_14  and  C_15
REMARK    4  A    between atoms: C_22  and  C_23
REMARK    5  A    between atoms: C_24  and  C_25
REMARK    6  A    between atoms: C_25  and  C_27
REMARK    7  A    between atoms: C_27  and  C_28
REMARK    8  A    between atoms: C_28  and  C_30
REMARK    9  A    between atoms: C_30  and  C_31
REMARK                            x       y       z     vdW  Elec       q    Type
REMARK                         _______ _______ _______ _____ _____    ______ ____
ROOT
ATOM      1  C   UNL     1      -9.857  13.990  67.495  0.00  0.00    +0.063 A 
ATOM      2  C   UNL     1     -10.772  13.907  68.535  0.00  0.00    +0.031 A 
ATOM      3  C   UNL     1     -11.003  15.108  69.197  0.00  0.00    +0.085 A 
ATOM      4  N   UNL     1     -10.465  16.245  68.698  0.00  0.00    -0.212 NA
ATOM      5  C   UNL     1      -9.322  16.166  67.982  0.00  0.00    +0.239 A 
ATOM      6  N   UNL     1      -8.435  17.258  67.848  0.00  0.00    -0.160 N 
ATOM      7  C   UNL     1      -7.224  17.287  68.644  0.00  0.00    +0.142 C 
ATOM      8  N   UNL     1      -8.955  14.996  67.406  0.00  0.00    -0.217 NA
ENDROOT
BRANCH   3   9
ATOM      9  C   UNL     1     -11.864  15.170  70.371  0.00  0.00    +0.018 A 
ATOM     10  C   UNL     1     -13.224  14.996  70.289  0.00  0.00    +0.004 A 
ATOM     11  C   UNL     1     -13.959  15.153  71.442  0.00  0.00    +0.030 A 
ATOM     12  C   UNL     1     -13.368  15.615  72.601  0.00  0.00    +0.140 A 
ATOM     13  F   UNL     1     -14.108  16.286  73.525  0.00  0.00    -0.204 F 
ATOM     14  C   UNL     1     -12.012  15.443  72.726  0.00  0.00    +0.030 A 
ATOM     15  C   UNL     1     -11.249  15.229  71.610  0.00  0.00    +0.004 A 
ENDBRANCH   3   9
BRANCH   6  16
ATOM     16  S   UNL     1      -8.559  18.263  66.446  0.00  0.00    +0.061 S 
ATOM     17  O   UNL     1      -9.829  17.906  65.711  0.00  0.00    -0.154 OA
ATOM     18  O   UNL     1      -7.422  17.979  65.522  0.00  0.00    -0.154 OA
ATOM     19  C   UNL     1      -8.570  19.952  66.988  0.00  0.00    +0.200 C 
ENDBRANCH   6  16
BRANCH   1  21
ATOM     20  C   UNL     1      -9.075  12.609  66.698  0.00  0.00    +0.006 C 
ATOM     21  C   UNL     1      -9.592  12.731  66.760  0.00  0.00    +0.040 C 
ATOM     22  C   UNL     1     -10.608  12.472  65.668  0.00  0.00    +0.006 C 
ENDBRANCH   1  21
BRANCH   2  23
ATOM     23  C   UNL     1     -11.018  12.694  69.286  0.00  0.00    +0.001 C 
ATOM     24  C   UNL     1     -11.988  11.831  69.071  0.00  0.00    +0.006 C 
BRANCH  24  25
ATOM     25  C   UNL     1     -11.398  10.291  68.926  0.00  0.00    +0.177 C 
ATOM     26  O   UNL     1     -10.014  10.730  69.473  0.00  0.00    -0.218 OA
BRANCH  25  27
ATOM     27  C   UNL     1     -11.922   9.882  70.478  0.00  0.00    +0.071 C 
BRANCH  27  28
ATOM     28  C   UNL     1     -10.711   8.715  70.599  0.00  0.00    +0.166 C 
ATOM     29  O   UNL     1     -10.628   8.874  72.135  0.00  0.00    -0.222 OA
BRANCH  28  30
ATOM     30  C   UNL     1     -11.809   7.452  70.737  0.00  0.00    +0.147 C 
BRANCH  30  31
ATOM     31  C   UNL     1     -11.296   6.349  69.961  0.00  0.00    +0.367 C 
ATOM     32  O   UNL     1     -11.320   6.164  68.600  0.00  0.00    -0.246 OA
ATOM     33  O   UNL     1     -10.712   5.424  70.606  0.00  0.00    -0.246 OA
ENDBRANCH  30  31
ENDBRANCH  28  30
ENDBRANCH  27  28
ENDBRANCH  25  27
ENDBRANCH  24  25
ENDBRANCH   2  23
TORSDOF 9
ENDMDL
MODEL 6
REMARK VINA RESULT:      -6.7      4.495      9.439
REMARK  Name = 
REMARK  9 active torsions:
REMARK  status: ('A' for Active; 'I' for Inactive)
REMARK    1  A    between atoms: C_2  and  C_4
REMARK    2  A    between atoms: N_7  and  S_9
REMARK    3  A    between atoms: C_14  and  C_15
REMARK    4  A    between atoms: C_22  and  C_23
REMARK    5  A    between atoms: C_24  and  C_25
REMARK    6  A    between atoms: C_25  and  C_27
REMARK    7  A    between atoms: C_27  and  C_28
REMARK    8  A    between atoms: C_28  and  C_30
REMARK    9  A    between atoms: C_30  and  C_31
REMARK                            x       y       z     vdW  Elec       q    Type
REMARK                         _______ _______ _______ _____ _____    ______ ____
ROOT
ATOM      1  C   UNL     1      -9.638  18.273  66.724  0.00  0.00    +0.063 A 
ATOM      2  C   UNL     1      -8.299  18.505  66.443  0.00  0.00    +0.031 A 
ATOM      3  C   UNL     1      -7.527  17.355  66.324  0.00  0.00    +0.085 A 
ATOM      4  N   UNL     1      -8.143  16.149  66.332  0.00  0.00    -0.212 NA
ATOM      5  C   UNL     1      -9.313  16.019  66.993  0.00  0.00    +0.239 A 
ATOM      6  N   UNL     1      -9.773  14.776  67.482  0.00  0.00    -0.160 N 
ATOM      7  C   UNL     1      -9.636  14.476  68.893  0.00  0.00    +0.142 C 
ATOM      8  N   UNL     1     -10.071  17.109  67.264  0.00  0.00    -0.217 NA
ENDROOT
BRANCH   3   9
ATOM      9  C   UNL     1      -6.085  17.430  66.124  0.00  0.00    +0.018 A 
ATOM     10  C   UNL     1      -5.197  16.820  66.976  0.00  0.00    +0.004 A 
ATOM     11  C   UNL     1      -3.855  17.017  66.748  0.00  0.00    +0.030 A 
ATOM     12  C   UNL     1      -3.423  17.915  65.792  0.00  0.00    +0.140 A 
ATOM     13  F   UNL     1      -2.214  18.523  65.924  0.00  0.00    -0.204 F 
ATOM     14  C   UNL     1      -4.295  18.217  64.777  0.00  0.00    +0.030 A 
ATOM     15  C   UNL     1      -5.634  17.986  64.939  0.00  0.00    +0.004 A 
ENDBRANCH   3   9
BRANCH   6  16
ATOM     16  S   UNL     1     -10.883  13.863  66.519  0.00  0.00    +0.061 S 
ATOM     17  O   UNL     1     -12.282  14.117  67.030  0.00  0.00    -0.154 OA
ATOM     18  O   UNL     1     -10.612  12.405  66.686  0.00  0.00    -0.154 OA
ATOM     19  C   UNL     1     -10.697  14.385  64.834  0.00  0.00    +0.200 C 
ENDBRANCH   6  16
BRANCH   1  21
ATOM     20  C   UNL     1     -10.840  19.467  67.257  0.00  0.00    +0.006 C 
ATOM     21  C   UNL     1     -10.494  19.477  66.850  0.00  0.00    +0.040 C 
ATOM     22  C   UNL     1     -10.861  20.070  65.507  0.00  0.00    +0.006 C 
ENDBRANCH   1  21
BRANCH   2  23
ATOM     23  C   UNL     1      -7.602  19.718  66.820  0.00  0.00    +0.001 C 
ATOM     24  C   UNL     1      -6.967  19.927  67.953  0.00  0.00    +0.006 C 
BRANCH  24  25
ATOM     25  C   UNL     1      -5.421  20.456  67.682  0.00  0.00    +0.177 C 
ATOM     26  O   UNL     1      -5.939  21.834  67.193  0.00  0.00    -0.218 OA
BRANCH  25  27
ATOM     27  C   UNL     1      -5.279  21.031  69.264  0.00  0.00    +0.071 C 
BRANCH  27  28
ATOM     28  C   UNL     1      -4.001  19.972  69.554  0.00  0.00    +0.166 C 
ATOM     29  O   UNL     1      -3.266  20.408  68.265  0.00  0.00    -0.222 OA
BRANCH  28  30
ATOM     30  C   UNL     1      -3.155  21.092  70.476  0.00  0.00    +0.147 C 
BRANCH  30  31
ATOM     31  C   UNL     1      -3.796  21.158  71.768  0.00  0.00    +0.367 C 
ATOM     32  O   UNL     1      -4.429  22.221  72.366  0.00  0.00    -0.246 OA
ATOM     33  O   UNL     1      -3.811  20.087  72.449  0.00  0.00    -0.246 OA
ENDBRANCH  30  31
ENDBRANCH  28  30
ENDBRANCH  27  28
ENDBRANCH  25  27
ENDBRANCH  24  25
ENDBRANCH   2  23
TORSDOF 9
ENDMDL
MODEL 7
REMARK VINA RESULT:      -6.7      4.017      8.049
REMARK  Name = 
REMARK  9 active torsions:
REMARK  status: ('A' for Active; 'I' for Inactive)
REMARK    1  A    between atoms: C_2  and  C_4
REMARK    2  A    between atoms: N_7  and  S_9
REMARK    3  A    between atoms: C_14  and  C_15
REMARK    4  A    between atoms: C_22  and  C_23
REMARK    5  A    between atoms: C_24  and  C_25
REMARK    6  A    between atoms: C_25  and  C_27
REMARK    7  A    between atoms: C_27  and  C_28
REMARK    8  A    between atoms: C_28  and  C_30
REMARK    9  A    between atoms: C_30  and  C_31
REMARK                            x       y       z     vdW  Elec       q    Type
REMARK                         _______ _______ _______ _____ _____    ______ ____
ROOT
ATOM      1  C   UNL     1     -10.598   9.960  68.652  0.00  0.00    +0.063 A 
ATOM      2  C   UNL     1     -11.140  11.192  68.992  0.00  0.00    +0.031 A 
ATOM      3  C   UNL     1     -11.665  11.254  70.279  0.00  0.00    +0.085 A 
ATOM      4  N   UNL     1     -11.472  10.209  71.116  0.00  0.00    -0.212 NA
ATOM      5  C   UNL     1     -11.317   8.973  70.592  0.00  0.00    +0.239 A 
ATOM      6  N   UNL     1     -11.603   7.799  71.324  0.00  0.00    -0.160 N 
ATOM      7  C   UNL     1     -12.843   7.093  71.072  0.00  0.00    +0.142 C 
ATOM      8  N   UNL     1     -10.928   8.821  69.303  0.00  0.00    -0.217 NA
ENDROOT
BRANCH   3   9
ATOM      9  C   UNL     1     -12.355  12.446  70.755  0.00  0.00    +0.018 A 
ATOM     10  C   UNL     1     -13.245  12.406  71.801  0.00  0.00    +0.004 A 
ATOM     11  C   UNL     1     -13.905  13.569  72.123  0.00  0.00    +0.030 A 
ATOM     12  C   UNL     1     -13.788  14.693  71.329  0.00  0.00    +0.140 A 
ATOM     13  F   UNL     1     -14.795  15.606  71.287  0.00  0.00    -0.204 F 
ATOM     14  C   UNL     1     -12.670  14.790  70.541  0.00  0.00    +0.030 A 
ATOM     15  C   UNL     1     -11.950  13.666  70.240  0.00  0.00    +0.004 A 
ENDBRANCH   3   9
BRANCH   6  16
ATOM     16  S   UNL     1     -10.307   6.986  72.132  0.00  0.00    +0.061 S 
ATOM     17  O   UNL     1      -9.743   5.940  71.201  0.00  0.00    -0.154 OA
ATOM     18  O   UNL     1     -10.834   6.270  73.331  0.00  0.00    -0.154 OA
ATOM     19  C   UNL     1      -9.090   8.202  72.565  0.00  0.00    +0.200 C 
ENDBRANCH   6  16
BRANCH   1  21
ATOM     20  C   UNL     1     -10.194   9.445  67.001  0.00  0.00    +0.006 C 
ATOM     21  C   UNL     1     -10.020   9.858  67.290  0.00  0.00    +0.040 C 
ATOM     22  C   UNL     1      -8.579  10.320  67.236  0.00  0.00    +0.006 C 
ENDBRANCH   1  21
BRANCH   2  23
ATOM     23  C   UNL     1     -11.684  12.120  68.023  0.00  0.00    +0.001 C 
ATOM     24  C   UNL     1     -11.054  13.146  67.492  0.00  0.00    +0.006 C 
BRANCH  24  25
ATOM     25  C   UNL     1     -11.137  13.110  65.839  0.00  0.00    +0.177 C 
ATOM     26  O   UNL     1     -12.491  12.353  65.887  0.00  0.00    -0.218 OA
BRANCH  25  27
ATOM     27  C   UNL     1     -11.932  14.599  65.788  0.00  0.00    +0.071 C 
BRANCH  27  28
ATOM     28  C   UNL     1     -10.695  15.247  64.844  0.00  0.00    +0.166 C 
ATOM     29  O   UNL     1     -11.661  16.235  64.149  0.00  0.00    -0.222 OA
BRANCH  28  30
ATOM     30  C   UNL     1     -10.278  16.389  66.002  0.00  0.00    +0.147 C 
BRANCH  30  31
ATOM     31  C   UNL     1      -8.840  16.371  66.126  0.00  0.00    +0.367 C 
ATOM     32  O   UNL     1      -7.930  17.337  65.772  0.00  0.00    -0.246 OA
ATOM     33  O   UNL     1      -8.329  15.339  66.662  0.00  0.00    -0.246 OA
ENDBRANCH  30  31
ENDBRANCH  28  30
ENDBRANCH  27  28
ENDBRANCH  25  27
ENDBRANCH  24  25
ENDBRANCH   2  23
TORSDOF 9
ENDMDL
MODEL 8
REMARK VINA RESULT:      -6.7      3.423      5.272
REMARK  Name = 
REMARK  9 active torsions:
REMARK  status: ('A' for Active; 'I' for Inactive)
REMARK    1  A    between atoms: C_2  and  C_4
REMARK    2  A    between atoms: N_7  and  S_9
REMARK    3  A    between atoms: C_14  and  C_15
REMARK    4  A    between atoms: C_22  and  C_23
REMARK    5  A    between atoms: C_24  and  C_25
REMARK    6  A    between atoms: C_25  and  C_27
REMARK    7  A    between atoms: C_27  and  C_28
REMARK    8  A    between atoms: C_28  and  C_30
REMARK    9  A    between atoms: C_30  and  C_31
REMARK                            x       y       z     vdW  Elec       q    Type
REMARK                         _______ _______ _______ _____ _____    ______ ____
ROOT
ATOM      1  C   UNL     1      -8.714  18.014  67.407  0.00  0.00    +0.063 A 
ATOM      2  C   UNL     1      -9.557  16.920  67.546  0.00  0.00    +0.031 A 
ATOM      3  C   UNL     1      -9.046  15.895  68.335  0.00  0.00    +0.085 A 
ATOM      4  N   UNL     1      -7.889  16.100  69.006  0.00  0.00    -0.212 NA
ATOM      5  C   UNL     1      -6.989  16.974  68.504  0.00  0.00    +0.239 A 
ATOM      6  N   UNL     1      -5.612  16.904  68.810  0.00  0.00    -0.160 N 
ATOM      7  C   UNL     1      -4.699  16.336  67.839  0.00  0.00    +0.142 C 
ATOM      8  N   UNL     1      -7.381  17.930  67.627  0.00  0.00    -0.217 NA
ENDROOT
BRANCH   3   9
ATOM      9  C   UNL     1      -9.767  14.639  68.502  0.00  0.00    +0.018 A 
ATOM     10  C   UNL     1      -9.215  13.429  68.159  0.00  0.00    +0.004 A 
ATOM     11  C   UNL     1     -10.005  12.310  68.278  0.00  0.00    +0.030 A 
ATOM     12  C   UNL     1     -11.347  12.419  68.587  0.00  0.00    +0.140 A 
ATOM     13  F   UNL     1     -12.222  11.463  68.175  0.00  0.00    -0.204 F 
ATOM     14  C   UNL     1     -11.750  13.558  69.236  0.00  0.00    +0.030 A 
ATOM     15  C   UNL     1     -10.967  14.680  69.190  0.00  0.00    +0.004 A 
ENDBRANCH   3   9
BRANCH   6  16
ATOM     16  S   UNL     1      -4.993  17.894  70.086  0.00  0.00    +0.061 S 
ATOM     17  O   UNL     1      -4.969  17.079  71.358  0.00  0.00    -0.154 OA
ATOM     18  O   UNL     1      -5.913  19.046  70.320  0.00  0.00    -0.154 OA
ATOM     19  C   UNL     1      -3.366  18.426  69.620  0.00  0.00    +0.200 C 
ENDBRANCH   6  16
BRANCH   1  21
ATOM     20  C   UNL     1      -8.881  19.330  66.228  0.00  0.00    +0.006 C 
ATOM     21  C   UNL     1      -9.229  19.131  66.580  0.00  0.00    +0.040 C 
ATOM     22  C   UNL     1     -10.194  20.017  67.339  0.00  0.00    +0.006 C 
ENDBRANCH   1  21
BRANCH   2  23
ATOM     23  C   UNL     1     -10.550  16.547  66.560  0.00  0.00    +0.001 C 
ATOM     24  C   UNL     1     -10.359  15.752  65.529  0.00  0.00    +0.006 C 
BRANCH  24  25
ATOM     25  C   UNL     1     -11.490  14.544  65.487  0.00  0.00    +0.177 C 
ATOM     26  O   UNL     1     -12.189  15.191  64.262  0.00  0.00    -0.218 OA
BRANCH  25  27
ATOM     27  C   UNL     1     -10.524  13.595  64.479  0.00  0.00    +0.071 C 
BRANCH  27  28
ATOM     28  C   UNL     1     -11.482  12.246  64.800  0.00  0.00    +0.166 C 
ATOM     29  O   UNL     1     -12.229  12.380  63.453  0.00  0.00    -0.222 OA
BRANCH  28  30
ATOM     30  C   UNL     1     -10.369  11.178  64.135  0.00  0.00    +0.147 C 
BRANCH  30  31
ATOM     31  C   UNL     1      -9.737  10.478  65.228  0.00  0.00    +0.367 C 
ATOM     32  O   UNL     1     -10.257   9.508  66.050  0.00  0.00    -0.246 OA
ATOM     33  O   UNL     1      -8.522  10.766  65.459  0.00  0.00    -0.246 OA
ENDBRANCH  30  31
ENDBRANCH  28  30
ENDBRANCH  27  28
ENDBRANCH  25  27
ENDBRANCH  24  25
ENDBRANCH   2  23
TORSDOF 9
ENDMDL
MODEL 9
REMARK VINA RESULT:      -6.7      1.455      2.484
REMARK  Name = 
REMARK  9 active torsions:
REMARK  status: ('A' for Active; 'I' for Inactive)
REMARK    1  A    between atoms: C_2  and  C_4
REMARK    2  A    between atoms: N_7  and  S_9
REMARK    3  A    between atoms: C_14  and  C_15
REMARK    4  A    between atoms: C_22  and  C_23
REMARK    5  A    between atoms: C_24  and  C_25
REMARK    6  A    between atoms: C_25  and  C_27
REMARK    7  A    between atoms: C_27  and  C_28
REMARK    8  A    between atoms: C_28  and  C_30
REMARK    9  A    between atoms: C_30  and  C_31
REMARK                            x       y       z     vdW  Elec       q    Type
REMARK                         _______ _______ _______ _____ _____    ______ ____
ROOT
ATOM      1  C   UNL     1     -10.748  15.368  66.447  0.00  0.00    +0.063 A 
ATOM      2  C   UNL     1     -11.449  15.001  67.587  0.00  0.00    +0.031 A 
ATOM      3  C   UNL     1     -11.326  15.890  68.650  0.00  0.00    +0.085 A 
ATOM      4  N   UNL     1     -10.693  17.069  68.447  0.00  0.00    -0.212 NA
ATOM      5  C   UNL     1      -9.741  17.143  67.492  0.00  0.00    +0.239 A 
ATOM      6  N   UNL     1      -8.711  18.110  67.522  0.00  0.00    -0.160 N 
ATOM      7  C   UNL     1      -7.387  17.719  67.961  0.00  0.00    +0.142 C 
ATOM      8  N   UNL     1      -9.711  16.238  66.484  0.00  0.00    -0.217 NA
ENDROOT
BRANCH   3   9
ATOM      9  C   UNL     1     -11.922  15.602  69.949  0.00  0.00    +0.018 A 
ATOM     10  C   UNL     1     -13.273  15.417  70.107  0.00  0.00    +0.004 A 
ATOM     11  C   UNL     1     -13.747  15.231  71.384  0.00  0.00    +0.030 A 
ATOM     12  C   UNL     1     -12.915  15.374  72.477  0.00  0.00    +0.140 A 
ATOM     13  F   UNL     1     -13.427  15.743  73.682  0.00  0.00    -0.204 F 
ATOM     14  C   UNL     1     -11.569  15.214  72.265  0.00  0.00    +0.030 A 
ATOM     15  C   UNL     1     -11.061  15.336  71.000  0.00  0.00    +0.004 A 
ENDBRANCH   3   9
BRANCH   6  16
ATOM     16  S   UNL     1      -8.914  19.569  66.615  0.00  0.00    +0.061 S 
ATOM     17  O   UNL     1      -7.911  19.575  65.485  0.00  0.00    -0.154 OA
ATOM     18  O   UNL     1      -8.607  20.745  67.481  0.00  0.00    -0.154 OA
ATOM     19  C   UNL     1     -10.581  19.605  66.010  0.00  0.00    +0.200 C 
ENDBRANCH   6  16
BRANCH   1  21
ATOM     20  C   UNL     1     -10.414  14.382  65.009  0.00  0.00    +0.006 C 
ATOM     21  C   UNL     1     -10.863  14.449  65.289  0.00  0.00    +0.040 C 
ATOM     22  C   UNL     1     -12.219  14.526  64.620  0.00  0.00    +0.006 C 
ENDBRANCH   1  21
BRANCH   2  23
ATOM     23  C   UNL     1     -11.766  13.628  67.922  0.00  0.00    +0.001 C 
ATOM     24  C   UNL     1     -11.008  12.578  67.690  0.00  0.00    +0.006 C 
BRANCH  24  25
ATOM     25  C   UNL     1     -10.783  11.686  69.067  0.00  0.00    +0.177 C 
ATOM     26  O   UNL     1     -12.142  12.164  69.642  0.00  0.00    -0.218 OA
BRANCH  25  27
ATOM     27  C   UNL     1     -11.513  10.329  68.376  0.00  0.00    +0.071 C 
BRANCH  27  28
ATOM     28  C   UNL     1     -10.051   9.492  68.433  0.00  0.00    +0.166 C 
ATOM     29  O   UNL     1     -10.679   8.329  69.236  0.00  0.00    -0.222 OA
BRANCH  28  30
ATOM     30  C   UNL     1     -10.334   8.706  66.976  0.00  0.00    +0.147 C 
BRANCH  30  31
ATOM     31  C   UNL     1      -9.702   9.484  65.937  0.00  0.00    +0.367 C 
ATOM     32  O   UNL     1     -10.284  10.214  64.929  0.00  0.00    -0.246 OA
ATOM     33  O   UNL     1      -8.434   9.536  65.958  0.00  0.00    -0.246 OA
ENDBRANCH  30  31
ENDBRANCH  28  30
ENDBRANCH  27  28
ENDBRANCH  25  27
ENDBRANCH  24  25
ENDBRANCH   2  23
TORSDOF 9
ENDMDL
