MODEL 1
REMARK VINA RESULT:      -7.2      0.000      0.000
REMARK  Name = 
REMARK  4 active torsions:
REMARK  status: ('A' for Active; 'I' for Inactive)
REMARK    1  A    between atoms: C_2  and  O_4
REMARK    2  A    between atoms: O_4  and  C_5
REMARK    3  A    between atoms: C_5  and  C_6
REMARK    4  A    between atoms: C_6  and  C_8
REMARK                            x       y       z     vdW  Elec       q    Type
REMARK                         _______ _______ _______ _____ _____    ______ ____
ROOT
ATOM      1  C   UNL     1     -11.242  12.228  66.571  0.00  0.00    +0.181 C 
ATOM      2  C   UNL     1     -10.650  13.560  66.376  0.00  0.00    +0.039 C 
ATOM      3  C   UNL     1     -11.429  14.317  67.592  0.00  0.00    +0.004 C 
ATOM      4  C   UNL     1     -10.186  15.440  67.819  0.00  0.00    +0.008 C 
ATOM      5  C   UNL     1     -11.007  16.568  66.850  0.00  0.00    +0.061 C 
ATOM      6  C   UNL     1     -10.567  15.818  65.492  0.00  0.00    +0.151 C 
ATOM      7  O   UNL     1     -10.757  16.598  64.558  0.00  0.00    -0.296 OA
ATOM      8  C   UNL     1      -9.762  17.622  66.870  0.00  0.00    +0.022 C 
ATOM      9  C   UNL     1      -9.385  17.748  68.315  0.00  0.00    -0.042 C 
ATOM     10  C   UNL     1      -8.332  18.544  68.504  0.00  0.00    +0.029 C 
ATOM     11  C   UNL     1      -8.100  19.501  67.410  0.00  0.00    +0.173 C 
ATOM     12  C   UNL     1      -9.342  20.021  66.770  0.00  0.00    +0.069 C 
ATOM     13  O   UNL     1      -6.948  19.907  67.150  0.00  0.00    -0.291 OA
ATOM     14  C   UNL     1     -10.319  17.368  69.399  0.00  0.00    +0.022 C 
ATOM     15  C   UNL     1      -8.655  17.183  66.036  0.00  0.00    +0.004 C 
ATOM     16  C   UNL     1     -10.296  18.937  66.371  0.00  0.00    +0.012 C 
ATOM     17  C   UNL     1     -10.858  15.976  69.176  0.00  0.00    +0.005 C 
ATOM     18  C   UNL     1     -10.807  13.238  68.644  0.00  0.00    +0.003 C 
ATOM     19  C   UNL     1      -9.206  13.525  66.667  0.00  0.00    +0.003 C 
ATOM     20  C   UNL     1     -11.115  14.435  65.289  0.00  0.00    +0.067 C 
ATOM     21  C   UNL     1     -11.695  12.149  68.034  0.00  0.00    +0.038 C 
ATOM     22  O   UNL     1     -12.254  11.883  65.694  0.00  0.00    -0.218 OA
ENDROOT
BRANCH   1  23
ATOM     23  C   UNL     1     -10.260  11.084  66.546  0.00  0.00    +0.222 C 
ATOM     24  O   UNL     1     -10.245  10.313  67.510  0.00  0.00    -0.290 OA
BRANCH  23  25
ATOM     25  C   UNL     1     -10.255  10.332  65.241  0.00  0.00    +0.275 C 
BRANCH  25  26
ATOM     26  O   UNL     1      -9.177  10.749  64.404  0.00  0.00    -0.440 OA
BRANCH  26  28
ATOM     27  C   UNL     1      -8.611  10.815  61.981  0.00  0.00    +0.121 C 
ATOM     28  C   UNL     1      -9.400  11.149  63.083  0.00  0.00    +0.318 C 
ATOM     29  O   UNL     1     -10.381  11.949  62.982  0.00  0.00    -0.250 OA
ENDBRANCH  26  28
ENDBRANCH  25  26
ENDBRANCH  23  25
ENDBRANCH   1  23
TORSDOF 4
ENDMDL
MODEL 2
REMARK VINA RESULT:      -7.2      1.991      2.921
REMARK  Name = 
REMARK  4 active torsions:
REMARK  status: ('A' for Active; 'I' for Inactive)
REMARK    1  A    between atoms: C_2  and  O_4
REMARK    2  A    between atoms: O_4  and  C_5
REMARK    3  A    between atoms: C_5  and  C_6
REMARK    4  A    between atoms: C_6  and  C_8
REMARK                            x       y       z     vdW  Elec       q    Type
REMARK                         _______ _______ _______ _____ _____    ______ ____
ROOT
ATOM      1  C   UNL     1     -11.082  13.702  67.945  0.00  0.00    +0.181 C 
ATOM      2  C   UNL     1     -10.546  15.022  67.582  0.00  0.00    +0.039 C 
ATOM      3  C   UNL     1      -9.215  14.976  68.523  0.00  0.00    +0.004 C 
ATOM      4  C   UNL     1      -8.337  15.995  67.500  0.00  0.00    +0.008 C 
ATOM      5  C   UNL     1      -8.736  17.334  68.465  0.00  0.00    +0.061 C 
ATOM      6  C   UNL     1     -10.226  17.412  67.854  0.00  0.00    +0.151 C 
ATOM      7  O   UNL     1     -10.688  18.517  68.140  0.00  0.00    -0.296 OA
ATOM      8  C   UNL     1      -8.071  18.396  67.421  0.00  0.00    +0.022 C 
ATOM      9  C   UNL     1      -6.709  17.844  67.124  0.00  0.00    -0.042 C 
ATOM     10  C   UNL     1      -6.042  18.576  66.230  0.00  0.00    +0.029 C 
ATOM     11  C   UNL     1      -6.510  19.967  66.125  0.00  0.00    +0.173 C 
ATOM     12  C   UNL     1      -6.962  20.566  67.413  0.00  0.00    +0.069 C 
ATOM     13  O   UNL     1      -6.409  20.596  65.051  0.00  0.00    -0.291 OA
ATOM     14  C   UNL     1      -6.055  16.863  68.019  0.00  0.00    +0.022 C 
ATOM     15  C   UNL     1      -8.879  18.572  66.225  0.00  0.00    +0.004 C 
ATOM     16  C   UNL     1      -7.938  19.703  68.152  0.00  0.00    +0.012 C 
ATOM     17  C   UNL     1      -6.977  15.703  68.303  0.00  0.00    +0.005 C 
ATOM     18  C   UNL     1      -8.744  13.611  67.765  0.00  0.00    +0.003 C 
ATOM     19  C   UNL     1     -10.143  15.039  66.166  0.00  0.00    +0.003 C 
ATOM     20  C   UNL     1     -11.127  16.249  68.149  0.00  0.00    +0.067 C 
ATOM     21  C   UNL     1      -9.898  12.856  68.431  0.00  0.00    +0.038 C 
ATOM     22  O   UNL     1     -12.127  13.702  68.850  0.00  0.00    -0.218 OA
ENDROOT
BRANCH   1  23
ATOM     23  C   UNL     1     -11.537  12.857  66.781  0.00  0.00    +0.222 C 
ATOM     24  O   UNL     1     -11.722  11.653  66.978  0.00  0.00    -0.290 OA
BRANCH  23  25
ATOM     25  C   UNL     1     -12.679  13.469  66.013  0.00  0.00    +0.275 C 
BRANCH  25  26
ATOM     26  O   UNL     1     -13.057  12.653  64.905  0.00  0.00    -0.440 OA
BRANCH  26  28
ATOM     27  C   UNL     1     -11.351  11.684  63.374  0.00  0.00    +0.121 C 
ATOM     28  C   UNL     1     -12.306  12.639  63.726  0.00  0.00    +0.318 C 
ATOM     29  O   UNL     1     -12.518  13.666  63.009  0.00  0.00    -0.250 OA
ENDBRANCH  26  28
ENDBRANCH  25  26
ENDBRANCH  23  25
ENDBRANCH   1  23
TORSDOF 4
ENDMDL
MODEL 3
REMARK VINA RESULT:      -6.7      2.106      7.403
REMARK  Name = 
REMARK  4 active torsions:
REMARK  status: ('A' for Active; 'I' for Inactive)
REMARK    1  A    between atoms: C_2  and  O_4
REMARK    2  A    between atoms: O_4  and  C_5
REMARK    3  A    between atoms: C_5  and  C_6
REMARK    4  A    between atoms: C_6  and  C_8
REMARK                            x       y       z     vdW  Elec       q    Type
REMARK                         _______ _______ _______ _____ _____    ______ ____
ROOT
ATOM      1  C   UNL     1      -8.879  19.146  68.387  0.00  0.00    +0.181 C 
ATOM      2  C   UNL     1      -9.068  17.705  68.160  0.00  0.00    +0.039 C 
ATOM      3  C   UNL     1     -10.313  17.818  67.113  0.00  0.00    +0.004 C 
ATOM      4  C   UNL     1      -9.918  16.370  66.336  0.00  0.00    +0.008 C 
ATOM      5  C   UNL     1     -11.049  15.533  67.289  0.00  0.00    +0.061 C 
ATOM      6  C   UNL     1     -10.066  15.532  68.567  0.00  0.00    +0.151 C 
ATOM      7  O   UNL     1     -10.492  14.693  69.362  0.00  0.00    -0.296 OA
ATOM      8  C   UNL     1     -10.583  14.078  66.717  0.00  0.00    +0.022 C 
ATOM      9  C   UNL     1     -10.567  14.235  65.226  0.00  0.00    -0.042 C 
ATOM     10  C   UNL     1     -10.149  13.135  64.598  0.00  0.00    +0.029 C 
ATOM     11  C   UNL     1     -10.295  11.902  65.389  0.00  0.00    +0.173 C 
ATOM     12  C   UNL     1     -11.501  11.866  66.264  0.00  0.00    +0.069 C 
ATOM     13  O   UNL     1      -9.515  10.941  65.222  0.00  0.00    -0.291 OA
ATOM     14  C   UNL     1     -11.312  15.321  64.551  0.00  0.00    +0.022 C 
ATOM     15  C   UNL     1      -9.296  13.662  67.253  0.00  0.00    +0.004 C 
ATOM     16  C   UNL     1     -11.649  13.094  67.111  0.00  0.00    +0.012 C 
ATOM     17  C   UNL     1     -10.979  16.659  65.165  0.00  0.00    +0.005 C 
ATOM     18  C   UNL     1      -9.387  18.735  66.133  0.00  0.00    +0.003 C 
ATOM     19  C   UNL     1      -7.898  17.138  67.469  0.00  0.00    +0.003 C 
ATOM     20  C   UNL     1      -9.749  16.872  69.163  0.00  0.00    +0.067 C 
ATOM     21  C   UNL     1      -9.445  19.871  67.160  0.00  0.00    +0.038 C 
ATOM     22  O   UNL     1      -9.394  19.644  69.569  0.00  0.00    -0.218 OA
ENDROOT
BRANCH   1  23
ATOM     23  C   UNL     1      -7.447  19.618  68.323  0.00  0.00    +0.222 C 
ATOM     24  O   UNL     1      -7.192  20.597  67.617  0.00  0.00    -0.290 OA
BRANCH  23  25
ATOM     25  C   UNL     1      -6.798  19.733  69.677  0.00  0.00    +0.275 C 
BRANCH  25  26
ATOM     26  O   UNL     1      -5.550  19.043  69.717  0.00  0.00    -0.440 OA
BRANCH  26  28
ATOM     27  C   UNL     1      -5.270  16.694  70.491  0.00  0.00    +0.121 C 
ATOM     28  C   UNL     1      -5.289  18.075  70.692  0.00  0.00    +0.318 C 
ATOM     29  O   UNL     1      -5.148  18.582  71.847  0.00  0.00    -0.250 OA
ENDBRANCH  26  28
ENDBRANCH  25  26
ENDBRANCH  23  25
ENDBRANCH   1  23
TORSDOF 4
ENDMDL
MODEL 4
REMARK VINA RESULT:      -6.7      2.393      4.499
REMARK  Name = 
REMARK  4 active torsions:
REMARK  status: ('A' for Active; 'I' for Inactive)
REMARK    1  A    between atoms: C_2  and  O_4
REMARK    2  A    between atoms: O_4  and  C_5
REMARK    3  A    between atoms: C_5  and  C_6
REMARK    4  A    between atoms: C_6  and  C_8
REMARK                            x       y       z     vdW  Elec       q    Type
REMARK                         _______ _______ _______ _____ _____    ______ ____
ROOT
ATOM      1  C   UNL     1     -10.399  11.558  68.075  0.00  0.00    +0.181 C 
ATOM      2  C   UNL     1      -9.957  12.960  68.091  0.00  0.00    +0.039 C 
ATOM      3  C   UNL     1     -10.163  13.263  66.501  0.00  0.00    +0.004 C 
ATOM      4  C   UNL     1     -10.447  14.910  66.753  0.00  0.00    +0.008 C 
ATOM      5  C   UNL     1      -8.821  15.260  66.411  0.00  0.00    +0.061 C 
ATOM      6  C   UNL     1      -8.340  14.754  67.864  0.00  0.00    +0.151 C 
ATOM      7  O   UNL     1      -7.200  15.183  68.048  0.00  0.00    -0.296 OA
ATOM      8  C   UNL     1      -8.980  16.830  66.823  0.00  0.00    +0.022 C 
ATOM      9  C   UNL     1     -10.200  17.300  66.090  0.00  0.00    -0.042 C 
ATOM     10  C   UNL     1     -10.507  18.569  66.363  0.00  0.00    +0.029 C 
ATOM     11  C   UNL     1      -9.374  19.365  66.863  0.00  0.00    +0.173 C 
ATOM     12  C   UNL     1      -8.057  19.014  66.260  0.00  0.00    +0.069 C 
ATOM     13  O   UNL     1      -9.561  20.324  67.640  0.00  0.00    -0.291 OA
ATOM     14  C   UNL     1     -10.729  16.574  64.913  0.00  0.00    +0.022 C 
ATOM     15  C   UNL     1      -9.083  17.013  68.262  0.00  0.00    +0.004 C 
ATOM     16  C   UNL     1      -7.767  17.544  66.296  0.00  0.00    +0.012 C 
ATOM     17  C   UNL     1     -10.909  15.108  65.227  0.00  0.00    +0.005 C 
ATOM     18  C   UNL     1     -11.734  12.849  66.640  0.00  0.00    +0.003 C 
ATOM     19  C   UNL     1     -10.895  13.784  68.871  0.00  0.00    +0.003 C 
ATOM     20  C   UNL     1      -8.526  13.294  68.156  0.00  0.00    +0.067 C 
ATOM     21  C   UNL     1     -11.318  11.391  66.859  0.00  0.00    +0.038 C 
ATOM     22  O   UNL     1      -9.395  10.607  68.104  0.00  0.00    -0.218 OA
ENDROOT
BRANCH   1  23
ATOM     23  C   UNL     1     -11.362  11.182  69.175  0.00  0.00    +0.222 C 
ATOM     24  O   UNL     1     -12.490  10.801  68.850  0.00  0.00    -0.290 OA
BRANCH  23  25
ATOM     25  C   UNL     1     -10.754  10.276  70.213  0.00  0.00    +0.275 C 
BRANCH  25  26
ATOM     26  O   UNL     1     -11.564   9.123  70.436  0.00  0.00    -0.440 OA
BRANCH  26  28
ATOM     27  C   UNL     1     -13.399   9.471  72.081  0.00  0.00    +0.121 C 
ATOM     28  C   UNL     1     -12.192   8.906  71.667  0.00  0.00    +0.318 C 
ATOM     29  O   UNL     1     -11.493   8.183  72.442  0.00  0.00    -0.250 OA
ENDBRANCH  26  28
ENDBRANCH  25  26
ENDBRANCH  23  25
ENDBRANCH   1  23
TORSDOF 4
ENDMDL
MODEL 5
REMARK VINA RESULT:      -6.6      2.775      4.492
REMARK  Name = 
REMARK  4 active torsions:
REMARK  status: ('A' for Active; 'I' for Inactive)
REMARK    1  A    between atoms: C_2  and  O_4
REMARK    2  A    between atoms: O_4  and  C_5
REMARK    3  A    between atoms: C_5  and  C_6
REMARK    4  A    between atoms: C_6  and  C_8
REMARK                            x       y       z     vdW  Elec       q    Type
REMARK                         _______ _______ _______ _____ _____    ______ ____
ROOT
ATOM      1  C   UNL     1      -9.707  15.049  66.706  0.00  0.00    +0.181 C 
ATOM      2  C   UNL     1      -8.596  15.592  67.501  0.00  0.00    +0.039 C 
ATOM      3  C   UNL     1      -8.523  17.057  66.788  0.00  0.00    +0.004 C 
ATOM      4  C   UNL     1      -7.914  17.809  68.174  0.00  0.00    +0.008 C 
ATOM      5  C   UNL     1      -6.330  17.656  67.579  0.00  0.00    +0.061 C 
ATOM      6  C   UNL     1      -6.268  16.092  67.965  0.00  0.00    +0.151 C 
ATOM      7  O   UNL     1      -5.085  15.749  67.938  0.00  0.00    -0.296 OA
ATOM      8  C   UNL     1      -5.663  18.198  68.966  0.00  0.00    +0.022 C 
ATOM      9  C   UNL     1      -6.412  19.456  69.289  0.00  0.00    -0.042 C 
ATOM     10  C   UNL     1      -6.020  20.005  70.440  0.00  0.00    +0.029 C 
ATOM     11  C   UNL     1      -4.668  19.607  70.864  0.00  0.00    +0.173 C 
ATOM     12  C   UNL     1      -3.701  19.413  69.747  0.00  0.00    +0.069 C 
ATOM     13  O   UNL     1      -4.366  19.564  72.075  0.00  0.00    -0.291 OA
ATOM     14  C   UNL     1      -7.177  20.192  68.258  0.00  0.00    +0.022 C 
ATOM     15  C   UNL     1      -5.734  17.212  70.032  0.00  0.00    +0.004 C 
ATOM     16  C   UNL     1      -4.228  18.527  68.660  0.00  0.00    +0.012 C 
ATOM     17  C   UNL     1      -8.117  19.265  67.526  0.00  0.00    +0.005 C 
ATOM     18  C   UNL     1     -10.083  17.314  67.190  0.00  0.00    +0.003 C 
ATOM     19  C   UNL     1      -9.003  15.752  68.907  0.00  0.00    +0.003 C 
ATOM     20  C   UNL     1      -7.209  15.187  67.225  0.00  0.00    +0.067 C 
ATOM     21  C   UNL     1     -10.508  16.246  66.178  0.00  0.00    +0.038 C 
ATOM     22  O   UNL     1      -9.356  14.172  65.696  0.00  0.00    -0.218 OA
ENDROOT
BRANCH   1  23
ATOM     23  C   UNL     1     -10.783  14.356  67.505  0.00  0.00    +0.222 C 
ATOM     24  O   UNL     1     -11.864  14.936  67.645  0.00  0.00    -0.290 OA
BRANCH  23  25
ATOM     25  C   UNL     1     -10.980  12.915  67.115  0.00  0.00    +0.275 C 
BRANCH  25  26
ATOM     26  O   UNL     1     -12.264  12.705  66.528  0.00  0.00    -0.440 OA
BRANCH  26  28
ATOM     27  C   UNL     1     -11.972  11.961  64.171  0.00  0.00    +0.121 C 
ATOM     28  C   UNL     1     -12.458  12.830  65.149  0.00  0.00    +0.318 C 
ATOM     29  O   UNL     1     -13.074  13.898  64.845  0.00  0.00    -0.250 OA
ENDBRANCH  26  28
ENDBRANCH  25  26
ENDBRANCH  23  25
ENDBRANCH   1  23
TORSDOF 4
ENDMDL
MODEL 6
REMARK VINA RESULT:      -6.6      2.290      7.235
REMARK  Name = 
REMARK  4 active torsions:
REMARK  status: ('A' for Active; 'I' for Inactive)
REMARK    1  A    between atoms: C_2  and  O_4
REMARK    2  A    between atoms: O_4  and  C_5
REMARK    3  A    between atoms: C_5  and  C_6
REMARK    4  A    between atoms: C_6  and  C_8
REMARK                            x       y       z     vdW  Elec       q    Type
REMARK                         _______ _______ _______ _____ _____    ______ ____
ROOT
ATOM      1  C   UNL     1     -11.867  14.197  65.117  0.00  0.00    +0.181 C 
ATOM      2  C   UNL     1     -11.156  13.331  66.070  0.00  0.00    +0.039 C 
ATOM      3  C   UNL     1     -11.335  11.930  65.255  0.00  0.00    +0.004 C 
ATOM      4  C   UNL     1      -9.916  11.267  65.891  0.00  0.00    +0.008 C 
ATOM      5  C   UNL     1     -10.811  10.460  67.088  0.00  0.00    +0.061 C 
ATOM      6  C   UNL     1     -10.993  11.809  67.952  0.00  0.00    +0.151 C 
ATOM      7  O   UNL     1     -11.353  11.481  69.083  0.00  0.00    -0.296 OA
ATOM      8  C   UNL     1      -9.473   9.943  67.864  0.00  0.00    +0.022 C 
ATOM      9  C   UNL     1      -8.611   9.344  66.793  0.00  0.00    -0.042 C 
ATOM     10  C   UNL     1      -7.437   8.916  67.258  0.00  0.00    +0.029 C 
ATOM     11  C   UNL     1      -7.431   8.636  68.703  0.00  0.00    +0.173 C 
ATOM     12  C   UNL     1      -8.707   8.076  69.230  0.00  0.00    +0.069 C 
ATOM     13  O   UNL     1      -6.384   8.759  69.372  0.00  0.00    -0.291 OA
ATOM     14  C   UNL     1      -9.173   8.918  65.492  0.00  0.00    +0.022 C 
ATOM     15  C   UNL     1      -8.807  11.015  68.587  0.00  0.00    +0.004 C 
ATOM     16  C   UNL     1      -9.911   8.869  68.821  0.00  0.00    +0.012 C 
ATOM     17  C   UNL     1      -9.986  10.028  64.871  0.00  0.00    +0.005 C 
ATOM     18  C   UNL     1     -10.587  12.599  63.970  0.00  0.00    +0.003 C 
ATOM     19  C   UNL     1      -9.729  13.689  66.121  0.00  0.00    +0.003 C 
ATOM     20  C   UNL     1     -11.806  12.900  67.318  0.00  0.00    +0.067 C 
ATOM     21  C   UNL     1     -11.803  13.506  63.750  0.00  0.00    +0.038 C 
ATOM     22  O   UNL     1     -13.159  14.545  65.463  0.00  0.00    -0.218 OA
ENDROOT
BRANCH   1  23
ATOM     23  C   UNL     1     -11.162  15.488  64.782  0.00  0.00    +0.222 C 
ATOM     24  O   UNL     1     -11.634  16.188  63.882  0.00  0.00    -0.290 OA
BRANCH  23  25
ATOM     25  C   UNL     1     -10.822  16.312  65.996  0.00  0.00    +0.275 C 
BRANCH  25  26
ATOM     26  O   UNL     1     -10.122  17.503  65.638  0.00  0.00    -0.440 OA
BRANCH  26  28
ATOM     27  C   UNL     1     -10.405  19.106  67.521  0.00  0.00    +0.121 C 
ATOM     28  C   UNL     1     -10.481  18.743  66.175  0.00  0.00    +0.318 C 
ATOM     29  O   UNL     1     -10.985  19.517  65.304  0.00  0.00    -0.250 OA
ENDBRANCH  26  28
ENDBRANCH  25  26
ENDBRANCH  23  25
ENDBRANCH   1  23
TORSDOF 4
ENDMDL
MODEL 7
REMARK VINA RESULT:      -6.6      2.035      7.501
REMARK  Name = 
REMARK  4 active torsions:
REMARK  status: ('A' for Active; 'I' for Inactive)
REMARK    1  A    between atoms: C_2  and  O_4
REMARK    2  A    between atoms: O_4  and  C_5
REMARK    3  A    between atoms: C_5  and  C_6
REMARK    4  A    between atoms: C_6  and  C_8
REMARK                            x       y       z     vdW  Elec       q    Type
REMARK                         _______ _______ _______ _____ _____    ______ ____
ROOT
ATOM      1  C   UNL     1     -10.188  16.968  67.076  0.00  0.00    +0.181 C 
ATOM      2  C   UNL     1      -9.967  15.526  67.259  0.00  0.00    +0.039 C 
ATOM      3  C   UNL     1     -11.109  15.004  66.218  0.00  0.00    +0.004 C 
ATOM      4  C   UNL     1     -10.281  13.571  65.877  0.00  0.00    +0.008 C 
ATOM      5  C   UNL     1     -11.219  12.737  67.022  0.00  0.00    +0.061 C 
ATOM      6  C   UNL     1     -10.377  13.351  68.252  0.00  0.00    +0.151 C 
ATOM      7  O   UNL     1     -10.626  12.672  69.249  0.00  0.00    -0.296 OA
ATOM      8  C   UNL     1     -10.337  11.373  66.880  0.00  0.00    +0.022 C 
ATOM      9  C   UNL     1     -10.244  11.124  65.404  0.00  0.00    -0.042 C 
ATOM     10  C   UNL     1      -9.499  10.058  65.108  0.00  0.00    +0.029 C 
ATOM     11  C   UNL     1      -9.373   9.091  66.211  0.00  0.00    +0.173 C 
ATOM     12  C   UNL     1     -10.591   8.955  67.058  0.00  0.00    +0.069 C 
ATOM     13  O   UNL     1      -8.354   8.377  66.320  0.00  0.00    -0.291 OA
ATOM     14  C   UNL     1     -11.196  11.738  64.450  0.00  0.00    +0.022 C 
ATOM     15  C   UNL     1      -9.033  11.491  67.513  0.00  0.00    +0.004 C 
ATOM     16  C   UNL     1     -11.130  10.272  67.529  0.00  0.00    +0.012 C 
ATOM     17  C   UNL     1     -11.283  13.229  64.668  0.00  0.00    +0.005 C 
ATOM     18  C   UNL     1     -10.386  15.847  65.024  0.00  0.00    +0.003 C 
ATOM     19  C   UNL     1      -8.636  15.145  66.756  0.00  0.00    +0.003 C 
ATOM     20  C   UNL     1     -10.478  14.835  68.452  0.00  0.00    +0.067 C 
ATOM     21  C   UNL     1     -10.827  17.152  65.694  0.00  0.00    +0.038 C 
ATOM     22  O   UNL     1     -10.911  17.600  68.071  0.00  0.00    -0.218 OA
ENDROOT
BRANCH   1  23
ATOM     23  C   UNL     1      -8.934  17.786  66.887  0.00  0.00    +0.222 C 
ATOM     24  O   UNL     1      -8.823  18.442  65.848  0.00  0.00    -0.290 OA
BRANCH  23  25
ATOM     25  C   UNL     1      -8.572  18.607  68.096  0.00  0.00    +0.275 C 
BRANCH  25  26
ATOM     26  O   UNL     1      -8.179  19.929  67.729  0.00  0.00    -0.440 OA
BRANCH  26  28
ATOM     27  C   UNL     1      -6.134  19.981  69.146  0.00  0.00    +0.121 C 
ATOM     28  C   UNL     1      -6.931  20.441  68.097  0.00  0.00    +0.318 C 
ATOM     29  O   UNL     1      -6.610  21.463  67.415  0.00  0.00    -0.250 OA
ENDBRANCH  26  28
ENDBRANCH  25  26
ENDBRANCH  23  25
ENDBRANCH   1  23
TORSDOF 4
ENDMDL
MODEL 8
REMARK VINA RESULT:      -6.5      3.106      5.440
REMARK  Name = 
REMARK  4 active torsions:
REMARK  status: ('A' for Active; 'I' for Inactive)
REMARK    1  A    between atoms: C_2  and  O_4
REMARK    2  A    between atoms: O_4  and  C_5
REMARK    3  A    between atoms: C_5  and  C_6
REMARK    4  A    between atoms: C_6  and  C_8
REMARK                            x       y       z     vdW  Elec       q    Type
REMARK                         _______ _______ _______ _____ _____    ______ ____
ROOT
ATOM      1  C   UNL     1      -9.940  17.213  66.852  0.00  0.00    +0.181 C 
ATOM      2  C   UNL     1      -8.507  17.208  67.181  0.00  0.00    +0.039 C 
ATOM      3  C   UNL     1      -8.311  18.823  67.294  0.00  0.00    +0.004 C 
ATOM      4  C   UNL     1      -7.038  18.689  68.398  0.00  0.00    +0.008 C 
ATOM      5  C   UNL     1      -5.909  18.836  67.137  0.00  0.00    +0.061 C 
ATOM      6  C   UNL     1      -6.137  17.310  66.670  0.00  0.00    +0.151 C 
ATOM      7  O   UNL     1      -5.198  17.001  65.936  0.00  0.00    -0.296 OA
ATOM      8  C   UNL     1      -4.643  18.523  68.118  0.00  0.00    +0.022 C 
ATOM      9  C   UNL     1      -4.834  19.429  69.297  0.00  0.00    -0.042 C 
ATOM     10  C   UNL     1      -3.900  19.258  70.233  0.00  0.00    +0.029 C 
ATOM     11  C   UNL     1      -2.654  18.655  69.732  0.00  0.00    +0.173 C 
ATOM     12  C   UNL     1      -2.279  19.066  68.350  0.00  0.00    +0.069 C 
ATOM     13  O   UNL     1      -1.938  17.955  70.479  0.00  0.00    -0.291 OA
ATOM     14  C   UNL     1      -5.700  20.627  69.225  0.00  0.00    +0.022 C 
ATOM     15  C   UNL     1      -4.571  17.120  68.492  0.00  0.00    +0.004 C 
ATOM     16  C   UNL     1      -3.402  18.923  67.369  0.00  0.00    +0.012 C 
ATOM     17  C   UNL     1      -7.063  20.270  68.685  0.00  0.00    +0.005 C 
ATOM     18  C   UNL     1      -9.464  18.868  68.446  0.00  0.00    +0.003 C 
ATOM     19  C   UNL     1      -8.287  16.595  68.501  0.00  0.00    +0.003 C 
ATOM     20  C   UNL     1      -7.499  16.976  66.134  0.00  0.00    +0.067 C 
ATOM     21  C   UNL     1     -10.518  18.528  67.388  0.00  0.00    +0.038 C 
ATOM     22  O   UNL     1     -10.256  17.011  65.521  0.00  0.00    -0.218 OA
ENDROOT
BRANCH   1  23
ATOM     23  C   UNL     1     -10.776  16.230  67.634  0.00  0.00    +0.222 C 
ATOM     24  O   UNL     1     -11.656  16.680  68.375  0.00  0.00    -0.290 OA
BRANCH  23  25
ATOM     25  C   UNL     1     -11.293  15.090  66.797  0.00  0.00    +0.275 C 
BRANCH  25  26
ATOM     26  O   UNL     1     -11.024  13.830  67.410  0.00  0.00    -0.440 OA
BRANCH  26  28
ATOM     27  C   UNL     1     -11.739  12.294  65.587  0.00  0.00    +0.121 C 
ATOM     28  C   UNL     1     -11.606  12.653  66.929  0.00  0.00    +0.318 C 
ATOM     29  O   UNL     1     -12.101  11.946  67.861  0.00  0.00    -0.250 OA
ENDBRANCH  26  28
ENDBRANCH  25  26
ENDBRANCH  23  25
ENDBRANCH   1  23
TORSDOF 4
ENDMDL
MODEL 9
REMARK VINA RESULT:      -6.4      2.344      7.149
REMARK  Name = 
REMARK  4 active torsions:
REMARK  status: ('A' for Active; 'I' for Inactive)
REMARK    1  A    between atoms: C_2  and  O_4
REMARK    2  A    between atoms: O_4  and  C_5
REMARK    3  A    between atoms: C_5  and  C_6
REMARK    4  A    between atoms: C_6  and  C_8
REMARK                            x       y       z     vdW  Elec       q    Type
REMARK                         _______ _______ _______ _____ _____    ______ ____
ROOT
ATOM      1  C   UNL     1      -6.801  18.879  67.793  0.00  0.00    +0.181 C 
ATOM      2  C   UNL     1      -7.459  17.628  67.386  0.00  0.00    +0.039 C 
ATOM      3  C   UNL     1      -8.318  17.389  68.752  0.00  0.00    +0.004 C 
ATOM      4  C   UNL     1      -9.543  16.544  67.949  0.00  0.00    +0.008 C 
ATOM      5  C   UNL     1      -8.823  15.066  68.374  0.00  0.00    +0.061 C 
ATOM      6  C   UNL     1      -7.690  15.217  67.237  0.00  0.00    +0.151 C 
ATOM      7  O   UNL     1      -7.172  14.111  67.078  0.00  0.00    -0.296 OA
ATOM      8  C   UNL     1      -9.861  14.199  67.461  0.00  0.00    +0.022 C 
ATOM      9  C   UNL     1     -11.222  14.705  67.836  0.00  0.00    -0.042 C 
ATOM     10  C   UNL     1     -12.196  14.130  67.131  0.00  0.00    +0.029 C 
ATOM     11  C   UNL     1     -11.830  12.824  66.557  0.00  0.00    +0.173 C 
ATOM     12  C   UNL     1     -10.923  12.006  67.410  0.00  0.00    +0.069 C 
ATOM     13  O   UNL     1     -12.352  12.425  65.495  0.00  0.00    -0.291 OA
ATOM     14  C   UNL     1     -11.459  15.435  69.102  0.00  0.00    +0.022 C 
ATOM     15  C   UNL     1      -9.585  14.328  66.040  0.00  0.00    +0.004 C 
ATOM     16  C   UNL     1      -9.721  12.763  67.887  0.00  0.00    +0.012 C 
ATOM     17  C   UNL     1     -10.478  16.572  69.255  0.00  0.00    +0.005 C 
ATOM     18  C   UNL     1      -9.024  18.845  68.546  0.00  0.00    +0.003 C 
ATOM     19  C   UNL     1      -8.381  17.875  66.265  0.00  0.00    +0.003 C 
ATOM     20  C   UNL     1      -6.724  16.354  67.408  0.00  0.00    +0.067 C 
ATOM     21  C   UNL     1      -7.688  19.523  68.865  0.00  0.00    +0.038 C 
ATOM     22  O   UNL     1      -5.487  18.764  68.205  0.00  0.00    -0.218 OA
ENDROOT
BRANCH   1  23
ATOM     23  C   UNL     1      -6.820  19.974  66.755  0.00  0.00    +0.222 C 
ATOM     24  O   UNL     1      -7.119  21.114  67.122  0.00  0.00    -0.290 OA
BRANCH  23  25
ATOM     25  C   UNL     1      -5.595  19.983  65.878  0.00  0.00    +0.275 C 
BRANCH  25  26
ATOM     26  O   UNL     1      -5.786  20.804  64.727  0.00  0.00    -0.440 OA
BRANCH  26  28
ATOM     27  C   UNL     1      -4.827  21.063  62.445  0.00  0.00    +0.121 C 
ATOM     28  C   UNL     1      -5.474  20.337  63.446  0.00  0.00    +0.318 C 
ATOM     29  O   UNL     1      -5.926  19.170  63.236  0.00  0.00    -0.250 OA
ENDBRANCH  26  28
ENDBRANCH  25  26
ENDBRANCH  23  25
ENDBRANCH   1  23
TORSDOF 4
ENDMDL
