MODEL 1
REMARK VINA RESULT:      -8.0      0.000      0.000
REMARK  Name = 
REMARK  4 active torsions:
REMARK  status: ('A' for Active; 'I' for Inactive)
REMARK    1  A    between atoms: C_2  and  C_3
REMARK    2  A    between atoms: C_5  and  C_6
REMARK    3  A    between atoms: C_6  and  C_7
REMARK    4  A    between atoms: C_26  and  C_28
REMARK                            x       y       z     vdW  Elec       q    Type
REMARK                         _______ _______ _______ _____ _____    ______ ____
ROOT
ATOM      1  C   UNL     1      -8.297  17.530  67.412  0.00  0.00    +0.081 A 
ATOM      2  C   UNL     1      -9.430  17.744  68.186  0.00  0.00    +0.144 A 
ATOM      3  F   UNL     1      -9.777  16.817  69.126  0.00  0.00    -0.204 F 
ATOM      4  C   UNL     1      -9.858  19.064  68.261  0.00  0.00    +0.029 A 
ATOM      5  C   UNL     1      -9.050  20.090  67.783  0.00  0.00    -0.002 A 
ATOM      6  C   UNL     1      -7.715  19.862  67.470  0.00  0.00    -0.016 A 
ATOM      7  C   UNL     1      -7.405  18.558  67.133  0.00  0.00    +0.003 A 
ENDROOT
BRANCH   1   9
ATOM      8  O   UNL     1      -6.723  15.858  66.866  0.00  0.00    -0.270 OA
ATOM      9  C   UNL     1      -7.937  16.177  67.048  0.00  0.00    +0.251 C 
ATOM     10  N   UNL     1      -8.937  15.174  66.839  0.00  0.00    -0.273 N 
ATOM     11  C   UNL     1      -9.804  15.389  65.685  0.00  0.00    +0.115 C 
ATOM     12  C   UNL     1     -10.958  14.425  65.648  0.00  0.00    +0.115 C 
ATOM     13  N   UNL     1     -10.759  13.292  66.550  0.00  0.00    -0.276 N 
ATOM     14  C   UNL     1     -11.435  13.322  67.811  0.00  0.00    +0.225 C 
ATOM     15  O   UNL     1     -12.125  14.325  68.162  0.00  0.00    -0.275 OA
ATOM     16  C   UNL     1      -9.395  12.768  66.581  0.00  0.00    +0.115 C 
ATOM     17  C   UNL     1      -8.562  13.825  67.254  0.00  0.00    +0.115 C 
BRANCH  14  18
ATOM     18  C   UNL     1     -11.057  12.386  68.910  0.00  0.00    +0.077 C 
ATOM     19  C   UNL     1     -11.893  11.080  68.862  0.00  0.00    +0.010 C 
ATOM     20  C   UNL     1     -12.063  12.139  69.977  0.00  0.00    +0.010 C 
ENDBRANCH  14  18
ENDBRANCH   1   9
BRANCH   6  21
ATOM     21  C   UNL     1      -6.628  20.792  67.904  0.00  0.00    +0.074 C 
BRANCH  21  22
ATOM     22  C   UNL     1      -5.906  20.298  69.089  0.00  0.00    +0.085 A 
ATOM     23  C   UNL     1      -4.536  20.158  69.026  0.00  0.00    +0.020 A 
ATOM     24  C   UNL     1      -3.843  19.912  70.204  0.00  0.00    +0.061 A 
ATOM     25  C   UNL     1      -2.532  19.458  70.150  0.00  0.00    +0.005 A 
ATOM     26  C   UNL     1      -1.998  19.233  68.893  0.00  0.00    +0.000 A 
ATOM     27  C   UNL     1      -2.525  19.862  67.783  0.00  0.00    +0.000 A 
ATOM     28  C   UNL     1      -4.410  20.293  71.414  0.00  0.00    +0.297 A 
ATOM     29  O   UNL     1      -3.808  20.063  72.500  0.00  0.00    -0.264 OA
ATOM     30  N   UNL     1      -5.694  20.727  71.388  0.00  0.00    -0.106 NA
ATOM     31  C   UNL     1      -3.793  20.418  67.891  0.00  0.00    +0.001 A 
ATOM     32  N   UNL     1      -6.427  20.437  70.332  0.00  0.00    -0.149 NA
ENDBRANCH  21  22
ENDBRANCH   6  21
TORSDOF 4
ENDMDL
MODEL 2
REMARK VINA RESULT:      -7.9      1.985      2.832
REMARK  Name = 
REMARK  4 active torsions:
REMARK  status: ('A' for Active; 'I' for Inactive)
REMARK    1  A    between atoms: C_2  and  C_3
REMARK    2  A    between atoms: C_5  and  C_6
REMARK    3  A    between atoms: C_6  and  C_7
REMARK    4  A    between atoms: C_26  and  C_28
REMARK                            x       y       z     vdW  Elec       q    Type
REMARK                         _______ _______ _______ _____ _____    ______ ____
ROOT
ATOM      1  C   UNL     1      -8.842  17.364  67.239  0.00  0.00    +0.081 A 
ATOM      2  C   UNL     1      -7.825  16.418  67.263  0.00  0.00    +0.144 A 
ATOM      3  F   UNL     1      -7.508  15.757  66.113  0.00  0.00    -0.204 F 
ATOM      4  C   UNL     1      -6.927  16.539  68.316  0.00  0.00    +0.029 A 
ATOM      5  C   UNL     1      -6.940  17.672  69.122  0.00  0.00    -0.002 A 
ATOM      6  C   UNL     1      -7.648  18.807  68.747  0.00  0.00    -0.016 A 
ATOM      7  C   UNL     1      -8.716  18.580  67.900  0.00  0.00    +0.003 A 
ENDROOT
BRANCH   1   9
ATOM      8  O   UNL     1     -10.467  18.136  65.711  0.00  0.00    -0.270 OA
ATOM      9  C   UNL     1      -9.971  17.164  66.357  0.00  0.00    +0.251 C 
ATOM     10  N   UNL     1     -10.590  15.879  66.225  0.00  0.00    -0.273 N 
ATOM     11  C   UNL     1     -11.272  15.389  67.419  0.00  0.00    +0.115 C 
ATOM     12  C   UNL     1     -11.708  13.956  67.280  0.00  0.00    +0.115 C 
ATOM     13  N   UNL     1     -11.674  13.501  65.892  0.00  0.00    -0.276 N 
ATOM     14  C   UNL     1     -10.555  12.707  65.482  0.00  0.00    +0.225 C 
ATOM     15  O   UNL     1      -9.596  12.466  66.274  0.00  0.00    -0.275 OA
ATOM     16  C   UNL     1     -12.139  14.484  64.915  0.00  0.00    +0.115 C 
ATOM     17  C   UNL     1     -11.095  15.566  64.891  0.00  0.00    +0.115 C 
BRANCH  14  18
ATOM     18  C   UNL     1     -10.273  12.463  64.038  0.00  0.00    +0.077 C 
ATOM     19  C   UNL     1     -11.243  11.413  63.435  0.00  0.00    +0.010 C 
ATOM     20  C   UNL     1      -9.739  11.127  63.660  0.00  0.00    +0.010 C 
ENDBRANCH  14  18
ENDBRANCH   1   9
BRANCH   6  21
ATOM     21  C   UNL     1      -7.060  20.178  68.844  0.00  0.00    +0.074 C 
BRANCH  21  22
ATOM     22  C   UNL     1      -5.891  20.226  69.739  0.00  0.00    +0.085 A 
ATOM     23  C   UNL     1      -4.667  20.591  69.221  0.00  0.00    +0.020 A 
ATOM     24  C   UNL     1      -3.628  20.851  70.106  0.00  0.00    +0.061 A 
ATOM     25  C   UNL     1      -2.323  20.911  69.635  0.00  0.00    +0.005 A 
ATOM     26  C   UNL     1      -2.129  20.659  68.288  0.00  0.00    +0.000 A 
ATOM     27  C   UNL     1      -3.163  20.821  67.388  0.00  0.00    +0.000 A 
ATOM     28  C   UNL     1      -3.927  21.224  71.409  0.00  0.00    +0.297 A 
ATOM     29  O   UNL     1      -2.999  21.449  72.236  0.00  0.00    -0.264 OA
ATOM     30  N   UNL     1      -5.223  21.141  71.797  0.00  0.00    -0.106 NA
ATOM     31  C   UNL     1      -4.458  20.880  67.888  0.00  0.00    +0.001 A 
ATOM     32  N   UNL     1      -6.041  20.402  71.075  0.00  0.00    -0.149 NA
ENDBRANCH  21  22
ENDBRANCH   6  21
TORSDOF 4
ENDMDL
MODEL 3
REMARK VINA RESULT:      -7.9      2.419      8.945
REMARK  Name = 
REMARK  4 active torsions:
REMARK  status: ('A' for Active; 'I' for Inactive)
REMARK    1  A    between atoms: C_2  and  C_3
REMARK    2  A    between atoms: C_5  and  C_6
REMARK    3  A    between atoms: C_6  and  C_7
REMARK    4  A    between atoms: C_26  and  C_28
REMARK                            x       y       z     vdW  Elec       q    Type
REMARK                         _______ _______ _______ _____ _____    ______ ____
ROOT
ATOM      1  C   UNL     1      -9.359  16.311  67.912  0.00  0.00    +0.081 A 
ATOM      2  C   UNL     1     -10.170  17.153  68.660  0.00  0.00    +0.144 A 
ATOM      3  F   UNL     1     -10.567  18.343  68.121  0.00  0.00    -0.204 F 
ATOM      4  C   UNL     1     -10.871  16.542  69.693  0.00  0.00    +0.029 A 
ATOM      5  C   UNL     1     -10.915  15.155  69.783  0.00  0.00    -0.002 A 
ATOM      6  C   UNL     1     -10.499  14.356  68.725  0.00  0.00    -0.016 A 
ATOM      7  C   UNL     1      -9.578  14.939  67.875  0.00  0.00    +0.003 A 
ENDROOT
BRANCH   1   9
ATOM      8  O   UNL     1      -8.688  17.100  65.791  0.00  0.00    -0.270 OA
ATOM      9  C   UNL     1      -8.390  16.886  67.005  0.00  0.00    +0.251 C 
ATOM     10  N   UNL     1      -7.057  17.185  67.437  0.00  0.00    -0.273 N 
ATOM     11  C   UNL     1      -6.238  16.027  67.781  0.00  0.00    +0.115 C 
ATOM     12  C   UNL     1      -4.937  16.419  68.425  0.00  0.00    +0.115 C 
ATOM     13  N   UNL     1      -4.634  17.836  68.240  0.00  0.00    -0.276 N 
ATOM     14  C   UNL     1      -4.900  18.719  69.335  0.00  0.00    +0.225 C 
ATOM     15  O   UNL     1      -5.443  18.299  70.401  0.00  0.00    -0.275 OA
ATOM     16  C   UNL     1      -4.959  18.363  66.916  0.00  0.00    +0.115 C 
ATOM     17  C   UNL     1      -6.461  18.374  66.833  0.00  0.00    +0.115 C 
BRANCH  14  18
ATOM     18  C   UNL     1      -4.922  20.199  69.143  0.00  0.00    +0.077 C 
ATOM     19  C   UNL     1      -3.529  20.830  69.400  0.00  0.00    +0.010 C 
ATOM     20  C   UNL     1      -4.732  21.050  70.348  0.00  0.00    +0.010 C 
ENDBRANCH  14  18
ENDBRANCH   1   9
BRANCH   6  21
ATOM     21  C   UNL     1     -11.294  13.179  68.258  0.00  0.00    +0.074 C 
BRANCH  21  22
ATOM     22  C   UNL     1     -11.430  13.139  66.792  0.00  0.00    +0.085 A 
ATOM     23  C   UNL     1     -11.010  12.015  66.113  0.00  0.00    +0.020 A 
ATOM     24  C   UNL     1     -11.346  11.893  64.770  0.00  0.00    +0.061 A 
ATOM     25  C   UNL     1     -10.693  10.956  63.980  0.00  0.00    +0.005 A 
ATOM     26  C   UNL     1      -9.693  10.215  64.584  0.00  0.00    +0.000 A 
ATOM     27  C   UNL     1      -9.669  10.053  65.955  0.00  0.00    +0.000 A 
ATOM     28  C   UNL     1     -12.451  12.580  64.284  0.00  0.00    +0.297 A 
ATOM     29  O   UNL     1     -12.766  12.499  63.064  0.00  0.00    -0.264 OA
ATOM     30  N   UNL     1     -13.038  13.478  65.114  0.00  0.00    -0.106 NA
ATOM     31  C   UNL     1     -10.426  10.926  66.727  0.00  0.00    +0.001 A 
ATOM     32  N   UNL     1     -12.352  13.902  66.155  0.00  0.00    -0.149 NA
ENDBRANCH  21  22
ENDBRANCH   6  21
TORSDOF 4
ENDMDL
MODEL 4
REMARK VINA RESULT:      -7.9      7.095      9.333
REMARK  Name = 
REMARK  4 active torsions:
REMARK  status: ('A' for Active; 'I' for Inactive)
REMARK    1  A    between atoms: C_2  and  C_3
REMARK    2  A    between atoms: C_5  and  C_6
REMARK    3  A    between atoms: C_6  and  C_7
REMARK    4  A    between atoms: C_26  and  C_28
REMARK                            x       y       z     vdW  Elec       q    Type
REMARK                         _______ _______ _______ _____ _____    ______ ____
ROOT
ATOM      1  C   UNL     1     -12.448  11.447  70.628  0.00  0.00    +0.081 A 
ATOM      2  C   UNL     1     -12.760  12.572  71.379  0.00  0.00    +0.144 A 
ATOM      3  F   UNL     1     -12.564  12.544  72.729  0.00  0.00    -0.204 F 
ATOM      4  C   UNL     1     -12.819  13.764  70.667  0.00  0.00    +0.029 A 
ATOM      5  C   UNL     1     -12.359  13.820  69.356  0.00  0.00    -0.002 A 
ATOM      6  C   UNL     1     -11.600  12.787  68.820  0.00  0.00    -0.016 A 
ATOM      7  C   UNL     1     -11.795  11.550  69.405  0.00  0.00    +0.003 A 
ENDROOT
BRANCH   1   9
ATOM      8  O   UNL     1     -13.614   9.900  71.977  0.00  0.00    -0.270 OA
ATOM      9  C   UNL     1     -12.631  10.135  71.211  0.00  0.00    +0.251 C 
ATOM     10  N   UNL     1     -11.686   9.083  70.980  0.00  0.00    -0.273 N 
ATOM     11  C   UNL     1     -10.363   9.296  71.557  0.00  0.00    +0.115 C 
ATOM     12  C   UNL     1      -9.368   8.265  71.099  0.00  0.00    +0.115 C 
ATOM     13  N   UNL     1     -10.014   7.109  70.484  0.00  0.00    -0.276 N 
ATOM     14  C   UNL     1     -10.033   7.042  69.054  0.00  0.00    +0.225 C 
ATOM     15  O   UNL     1      -9.567   7.985  68.347  0.00  0.00    -0.275 OA
ATOM     16  C   UNL     1     -11.240   6.668  71.149  0.00  0.00    +0.115 C 
ATOM     17  C   UNL     1     -12.259   7.743  70.890  0.00  0.00    +0.115 C 
BRANCH  14  18
ATOM     18  C   UNL     1     -10.926   6.083  68.340  0.00  0.00    +0.077 C 
ATOM     19  C   UNL     1     -10.120   4.933  67.681  0.00  0.00    +0.010 C 
ATOM     20  C   UNL     1     -10.831   6.033  66.856  0.00  0.00    +0.010 C 
ENDBRANCH  14  18
ENDBRANCH   1   9
BRANCH   6  21
ATOM     21  C   UNL     1     -10.358  13.042  68.028  0.00  0.00    +0.074 C 
BRANCH  21  22
ATOM     22  C   UNL     1     -10.639  13.258  66.598  0.00  0.00    +0.085 A 
ATOM     23  C   UNL     1     -10.590  12.181  65.738  0.00  0.00    +0.020 A 
ATOM     24  C   UNL     1     -11.072  12.348  64.446  0.00  0.00    +0.061 A 
ATOM     25  C   UNL     1     -10.761  11.411  63.469  0.00  0.00    +0.005 A 
ATOM     26  C   UNL     1      -9.934  10.366  63.844  0.00  0.00    +0.000 A 
ATOM     27  C   UNL     1      -9.822   9.999  65.169  0.00  0.00    +0.000 A 
ATOM     28  C   UNL     1     -12.003  13.348  64.195  0.00  0.00    +0.297 A 
ATOM     29  O   UNL     1     -12.442  13.530  63.025  0.00  0.00    -0.264 OA
ATOM     30  N   UNL     1     -12.256  14.225  65.197  0.00  0.00    -0.106 NA
ATOM     31  C   UNL     1     -10.251  10.903  66.134  0.00  0.00    +0.001 A 
ATOM     32  N   UNL     1     -11.388  14.309  66.184  0.00  0.00    -0.149 NA
ENDBRANCH  21  22
ENDBRANCH   6  21
TORSDOF 4
ENDMDL
MODEL 5
REMARK VINA RESULT:      -7.8      2.668      9.162
REMARK  Name = 
REMARK  4 active torsions:
REMARK  status: ('A' for Active; 'I' for Inactive)
REMARK    1  A    between atoms: C_2  and  C_3
REMARK    2  A    between atoms: C_5  and  C_6
REMARK    3  A    between atoms: C_6  and  C_7
REMARK    4  A    between atoms: C_26  and  C_28
REMARK                            x       y       z     vdW  Elec       q    Type
REMARK                         _______ _______ _______ _____ _____    ______ ____
ROOT
ATOM      1  C   UNL     1     -10.318  16.495  68.152  0.00  0.00    +0.081 A 
ATOM      2  C   UNL     1     -10.574  16.164  69.476  0.00  0.00    +0.144 A 
ATOM      3  F   UNL     1     -11.257  17.047  70.260  0.00  0.00    -0.204 F 
ATOM      4  C   UNL     1     -10.519  14.807  69.770  0.00  0.00    +0.029 A 
ATOM      5  C   UNL     1     -10.447  13.870  68.745  0.00  0.00    -0.002 A 
ATOM      6  C   UNL     1     -10.694  14.234  67.427  0.00  0.00    -0.016 A 
ATOM      7  C   UNL     1     -10.463  15.564  67.131  0.00  0.00    +0.003 A 
ENDROOT
BRANCH   1   9
ATOM      8  O   UNL     1     -11.045  18.641  67.491  0.00  0.00    -0.270 OA
ATOM      9  C   UNL     1     -10.081  17.879  67.804  0.00  0.00    +0.251 C 
ATOM     10  N   UNL     1      -8.753  18.415  67.757  0.00  0.00    -0.273 N 
ATOM     11  C   UNL     1      -7.898  17.871  66.706  0.00  0.00    +0.115 C 
ATOM     12  C   UNL     1      -6.468  18.313  66.847  0.00  0.00    +0.115 C 
ATOM     13  N   UNL     1      -6.327  19.442  67.764  0.00  0.00    -0.276 N 
ATOM     14  C   UNL     1      -5.880  19.163  69.095  0.00  0.00    +0.225 C 
ATOM     15  O   UNL     1      -5.679  17.974  69.484  0.00  0.00    -0.275 OA
ATOM     16  C   UNL     1      -7.377  20.453  67.654  0.00  0.00    +0.115 C 
ATOM     17  C   UNL     1      -8.630  19.807  68.180  0.00  0.00    +0.115 C 
BRANCH  14  18
ATOM     18  C   UNL     1      -6.003  20.182  70.178  0.00  0.00    +0.077 C 
ATOM     19  C   UNL     1      -4.691  20.989  70.356  0.00  0.00    +0.010 C 
ATOM     20  C   UNL     1      -5.195  19.974  71.410  0.00  0.00    +0.010 C 
ENDBRANCH  14  18
ENDBRANCH   1   9
BRANCH   6  21
ATOM     21  C   UNL     1     -11.565  13.417  66.528  0.00  0.00    +0.074 C 
BRANCH  21  22
ATOM     22  C   UNL     1     -10.786  12.582  65.597  0.00  0.00    +0.085 A 
ATOM     23  C   UNL     1     -10.594  11.250  65.895  0.00  0.00    +0.020 A 
ATOM     24  C   UNL     1     -10.058  10.425  64.914  0.00  0.00    +0.061 A 
ATOM     25  C   UNL     1      -9.562   9.175  65.261  0.00  0.00    +0.005 A 
ATOM     26  C   UNL     1      -9.594   8.839  66.603  0.00  0.00    +0.000 A 
ATOM     27  C   UNL     1     -10.478   9.459  67.462  0.00  0.00    +0.000 A 
ATOM     28  C   UNL     1     -10.191  10.787  63.580  0.00  0.00    +0.297 A 
ATOM     29  O   UNL     1      -9.697  10.063  62.671  0.00  0.00    -0.264 OA
ATOM     30  N   UNL     1     -10.685  12.022  63.318  0.00  0.00    -0.106 NA
ATOM     31  C   UNL     1     -11.060  10.651  67.048  0.00  0.00    +0.001 A 
ATOM     32  N   UNL     1     -10.673  12.914  64.288  0.00  0.00    -0.149 NA
ENDBRANCH  21  22
ENDBRANCH   6  21
TORSDOF 4
ENDMDL
MODEL 6
REMARK VINA RESULT:      -7.7      2.587      8.944
REMARK  Name = 
REMARK  4 active torsions:
REMARK  status: ('A' for Active; 'I' for Inactive)
REMARK    1  A    between atoms: C_2  and  C_3
REMARK    2  A    between atoms: C_5  and  C_6
REMARK    3  A    between atoms: C_6  and  C_7
REMARK    4  A    between atoms: C_26  and  C_28
REMARK                            x       y       z     vdW  Elec       q    Type
REMARK                         _______ _______ _______ _____ _____    ______ ____
ROOT
ATOM      1  C   UNL     1     -10.472  16.473  68.156  0.00  0.00    +0.081 A 
ATOM      2  C   UNL     1     -10.626  16.180  69.504  0.00  0.00    +0.144 A 
ATOM      3  F   UNL     1     -11.162  17.125  70.331  0.00  0.00    -0.204 F 
ATOM      4  C   UNL     1     -10.647  14.827  69.820  0.00  0.00    +0.029 A 
ATOM      5  C   UNL     1     -10.745  13.874  68.812  0.00  0.00    -0.002 A 
ATOM      6  C   UNL     1     -11.087  14.238  67.516  0.00  0.00    -0.016 A 
ATOM      7  C   UNL     1     -10.785  15.542  67.172  0.00  0.00    +0.003 A 
ENDROOT
BRANCH   1   9
ATOM      8  O   UNL     1     -11.081  18.610  67.359  0.00  0.00    -0.270 OA
ATOM      9  C   UNL     1     -10.164  17.830  67.758  0.00  0.00    +0.251 C 
ATOM     10  N   UNL     1      -8.817  18.314  67.759  0.00  0.00    -0.273 N 
ATOM     11  C   UNL     1      -7.929  17.691  66.783  0.00  0.00    +0.115 C 
ATOM     12  C   UNL     1      -6.492  18.088  66.982  0.00  0.00    +0.115 C 
ATOM     13  N   UNL     1      -6.357  19.253  67.852  0.00  0.00    -0.276 N 
ATOM     14  C   UNL     1      -5.991  19.022  69.217  0.00  0.00    +0.225 C 
ATOM     15  O   UNL     1      -5.857  17.846  69.671  0.00  0.00    -0.275 OA
ATOM     16  C   UNL     1      -7.360  20.295  67.639  0.00  0.00    +0.115 C 
ATOM     17  C   UNL     1      -8.662  19.720  68.124  0.00  0.00    +0.115 C 
BRANCH  14  18
ATOM     18  C   UNL     1      -6.132  20.095  70.244  0.00  0.00    +0.077 C 
ATOM     19  C   UNL     1      -4.821  20.908  70.407  0.00  0.00    +0.010 C 
ATOM     20  C   UNL     1      -5.350  19.949  71.501  0.00  0.00    +0.010 C 
ENDBRANCH  14  18
ENDBRANCH   1   9
BRANCH   6  21
ATOM     21  C   UNL     1     -12.099  13.480  66.719  0.00  0.00    +0.074 C 
BRANCH  21  22
ATOM     22  C   UNL     1     -11.735  12.062  66.551  0.00  0.00    +0.085 A 
ATOM     23  C   UNL     1     -10.911  11.704  65.506  0.00  0.00    +0.020 A 
ATOM     24  C   UNL     1     -10.394  10.415  65.487  0.00  0.00    +0.061 A 
ATOM     25  C   UNL     1      -9.830   9.917  64.320  0.00  0.00    +0.005 A 
ATOM     26  C   UNL     1      -9.859  10.741  63.208  0.00  0.00    +0.000 A 
ATOM     27  C   UNL     1      -9.980  12.109  63.351  0.00  0.00    +0.000 A 
ATOM     28  C   UNL     1     -10.285   9.712  66.680  0.00  0.00    +0.297 A 
ATOM     29  O   UNL     1      -9.835   8.532  66.685  0.00  0.00    -0.264 OA
ATOM     30  N   UNL     1     -10.859  10.261  67.778  0.00  0.00    -0.106 NA
ATOM     31  C   UNL     1     -10.432  12.598  64.570  0.00  0.00    +0.001 A 
ATOM     32  N   UNL     1     -11.760  11.206  67.602  0.00  0.00    -0.149 NA
ENDBRANCH  21  22
ENDBRANCH   6  21
TORSDOF 4
ENDMDL
MODEL 7
REMARK VINA RESULT:      -7.7      2.685      8.793
REMARK  Name = 
REMARK  4 active torsions:
REMARK  status: ('A' for Active; 'I' for Inactive)
REMARK    1  A    between atoms: C_2  and  C_3
REMARK    2  A    between atoms: C_5  and  C_6
REMARK    3  A    between atoms: C_6  and  C_7
REMARK    4  A    between atoms: C_26  and  C_28
REMARK                            x       y       z     vdW  Elec       q    Type
REMARK                         _______ _______ _______ _____ _____    ______ ____
ROOT
ATOM      1  C   UNL     1      -8.259  17.273  68.007  0.00  0.00    +0.081 A 
ATOM      2  C   UNL     1      -8.643  18.068  66.935  0.00  0.00    +0.144 A 
ATOM      3  F   UNL     1      -7.783  18.228  65.887  0.00  0.00    -0.204 F 
ATOM      4  C   UNL     1     -10.012  18.267  66.802  0.00  0.00    +0.029 A 
ATOM      5  C   UNL     1     -10.905  17.516  67.559  0.00  0.00    -0.002 A 
ATOM      6  C   UNL     1     -10.482  16.390  68.253  0.00  0.00    -0.016 A 
ATOM      7  C   UNL     1      -9.144  16.380  68.600  0.00  0.00    +0.003 A 
ENDROOT
BRANCH   1   9
ATOM      8  O   UNL     1      -6.308  16.131  68.686  0.00  0.00    -0.270 OA
ATOM      9  C   UNL     1      -6.865  17.232  68.392  0.00  0.00    +0.251 C 
ATOM     10  N   UNL     1      -6.090  18.431  68.498  0.00  0.00    -0.273 N 
ATOM     11  C   UNL     1      -6.490  19.341  69.567  0.00  0.00    +0.115 C 
ATOM     12  C   UNL     1      -5.782  20.665  69.487  0.00  0.00    +0.115 C 
ATOM     13  N   UNL     1      -4.623  20.617  68.599  0.00  0.00    -0.276 N 
ATOM     14  C   UNL     1      -4.775  21.152  67.280  0.00  0.00    +0.225 C 
ATOM     15  O   UNL     1      -5.894  21.587  66.873  0.00  0.00    -0.275 OA
ATOM     16  C   UNL     1      -3.831  19.392  68.692  0.00  0.00    +0.115 C 
ATOM     17  C   UNL     1      -4.688  18.302  68.109  0.00  0.00    +0.115 C 
BRANCH  14  18
ATOM     18  C   UNL     1      -3.769  20.871  66.214  0.00  0.00    +0.077 C 
ATOM     19  C   UNL     1      -2.830  22.083  65.981  0.00  0.00    +0.010 C 
ATOM     20  C   UNL     1      -3.886  21.634  64.943  0.00  0.00    +0.010 C 
ENDBRANCH  14  18
ENDBRANCH   1   9
BRANCH   6  21
ATOM     21  C   UNL     1     -11.246  15.105  68.224  0.00  0.00    +0.074 C 
BRANCH  21  22
ATOM     22  C   UNL     1     -12.066  14.912  69.433  0.00  0.00    +0.085 A 
ATOM     23  C   UNL     1     -12.101  13.667  70.024  0.00  0.00    +0.020 A 
ATOM     24  C   UNL     1     -12.687  13.549  71.278  0.00  0.00    +0.061 A 
ATOM     25  C   UNL     1     -13.023  12.293  71.765  0.00  0.00    +0.005 A 
ATOM     26  C   UNL     1     -12.786  11.214  70.932  0.00  0.00    +0.000 A 
ATOM     27  C   UNL     1     -11.853  11.300  69.918  0.00  0.00    +0.000 A 
ATOM     28  C   UNL     1     -12.763  14.668  72.097  0.00  0.00    +0.297 A 
ATOM     29  O   UNL     1     -13.308  14.590  73.234  0.00  0.00    -0.264 OA
ATOM     30  N   UNL     1     -12.418  15.861  71.552  0.00  0.00    -0.106 NA
ATOM     31  C   UNL     1     -11.436  12.565  69.524  0.00  0.00    +0.001 A 
ATOM     32  N   UNL     1     -12.379  15.956  70.239  0.00  0.00    -0.149 NA
ENDBRANCH  21  22
ENDBRANCH   6  21
TORSDOF 4
ENDMDL
MODEL 8
REMARK VINA RESULT:      -7.7      2.990      7.230
REMARK  Name = 
REMARK  4 active torsions:
REMARK  status: ('A' for Active; 'I' for Inactive)
REMARK    1  A    between atoms: C_2  and  C_3
REMARK    2  A    between atoms: C_5  and  C_6
REMARK    3  A    between atoms: C_6  and  C_7
REMARK    4  A    between atoms: C_26  and  C_28
REMARK                            x       y       z     vdW  Elec       q    Type
REMARK                         _______ _______ _______ _____ _____    ______ ____
ROOT
ATOM      1  C   UNL     1      -8.146  18.998  68.373  0.00  0.00    +0.081 A 
ATOM      2  C   UNL     1      -8.454  20.044  67.513  0.00  0.00    +0.144 A 
ATOM      3  F   UNL     1      -7.445  20.661  66.831  0.00  0.00    -0.204 F 
ATOM      4  C   UNL     1      -9.772  20.085  67.075  0.00  0.00    +0.029 A 
ATOM      5  C   UNL     1     -10.622  19.010  67.310  0.00  0.00    -0.002 A 
ATOM      6  C   UNL     1     -10.123  17.786  67.739  0.00  0.00    -0.016 A 
ATOM      7  C   UNL     1      -8.922  17.846  68.420  0.00  0.00    +0.003 A 
ENDROOT
BRANCH   1   9
ATOM      8  O   UNL     1      -6.595  20.006  69.840  0.00  0.00    -0.270 OA
ATOM      9  C   UNL     1      -6.892  19.024  69.095  0.00  0.00    +0.251 C 
ATOM     10  N   UNL     1      -5.934  17.968  68.953  0.00  0.00    -0.273 N 
ATOM     11  C   UNL     1      -5.320  17.856  67.634  0.00  0.00    +0.115 C 
ATOM     12  C   UNL     1      -4.494  16.608  67.492  0.00  0.00    +0.115 C 
ATOM     13  N   UNL     1      -4.206  15.987  68.783  0.00  0.00    -0.276 N 
ATOM     14  C   UNL     1      -4.996  14.856  69.166  0.00  0.00    +0.225 C 
ATOM     15  O   UNL     1      -5.955  14.451  68.443  0.00  0.00    -0.275 OA
ATOM     16  C   UNL     1      -3.895  16.928  69.858  0.00  0.00    +0.115 C 
ATOM     17  C   UNL     1      -5.181  17.647  70.162  0.00  0.00    +0.115 C 
BRANCH  14  18
ATOM     18  C   UNL     1      -4.995  14.356  70.572  0.00  0.00    +0.077 C 
ATOM     19  C   UNL     1      -4.019  13.164  70.754  0.00  0.00    +0.010 C 
ATOM     20  C   UNL     1      -5.556  13.001  70.818  0.00  0.00    +0.010 C 
ENDBRANCH  14  18
ENDBRANCH   1   9
BRANCH   6  21
ATOM     21  C   UNL     1     -10.566  16.492  67.135  0.00  0.00    +0.074 C 
BRANCH  21  22
ATOM     22  C   UNL     1     -11.359  15.677  68.071  0.00  0.00    +0.085 A 
ATOM     23  C   UNL     1     -11.114  14.322  68.150  0.00  0.00    +0.020 A 
ATOM     24  C   UNL     1     -11.701  13.606  69.186  0.00  0.00    +0.061 A 
ATOM     25  C   UNL     1     -11.741  12.219  69.126  0.00  0.00    +0.005 A 
ATOM     26  C   UNL     1     -11.221  11.625  67.990  0.00  0.00    +0.000 A 
ATOM     27  C   UNL     1     -10.299  12.292  67.208  0.00  0.00    +0.000 A 
ATOM     28  C   UNL     1     -12.074  14.274  70.344  0.00  0.00    +0.297 A 
ATOM     29  O   UNL     1     -12.625  13.648  71.292  0.00  0.00    -0.264 OA
ATOM     30  N   UNL     1     -12.006  15.628  70.329  0.00  0.00    -0.106 NA
ATOM     31  C   UNL     1     -10.186  13.668  67.366  0.00  0.00    +0.001 A 
ATOM     32  N   UNL     1     -11.943  16.234  69.160  0.00  0.00    -0.149 NA
ENDBRANCH  21  22
ENDBRANCH   6  21
TORSDOF 4
ENDMDL
MODEL 9
REMARK VINA RESULT:      -7.5      2.843      3.910
REMARK  Name = 
REMARK  4 active torsions:
REMARK  status: ('A' for Active; 'I' for Inactive)
REMARK    1  A    between atoms: C_2  and  C_3
REMARK    2  A    between atoms: C_5  and  C_6
REMARK    3  A    between atoms: C_6  and  C_7
REMARK    4  A    between atoms: C_26  and  C_28
REMARK                            x       y       z     vdW  Elec       q    Type
REMARK                         _______ _______ _______ _____ _____    ______ ____
ROOT
ATOM      1  C   UNL     1     -10.034  16.685  66.471  0.00  0.00    +0.081 A 
ATOM      2  C   UNL     1      -9.137  15.992  67.273  0.00  0.00    +0.144 A 
ATOM      3  F   UNL     1      -8.428  14.958  66.735  0.00  0.00    -0.204 F 
ATOM      4  C   UNL     1      -8.704  16.672  68.405  0.00  0.00    +0.029 A 
ATOM      5  C   UNL     1      -8.983  18.026  68.558  0.00  0.00    -0.002 A 
ATOM      6  C   UNL     1      -9.455  18.783  67.493  0.00  0.00    -0.016 A 
ATOM      7  C   UNL     1     -10.127  18.071  66.518  0.00  0.00    +0.003 A 
ENDROOT
BRANCH   1   9
ATOM      8  O   UNL     1     -11.169  16.582  64.404  0.00  0.00    -0.270 OA
ATOM      9  C   UNL     1     -10.748  15.973  65.433  0.00  0.00    +0.251 C 
ATOM     10  N   UNL     1     -11.042  14.577  65.560  0.00  0.00    -0.273 N 
ATOM     11  C   UNL     1     -11.981  14.231  66.622  0.00  0.00    +0.115 C 
ATOM     12  C   UNL     1     -12.078  12.745  66.838  0.00  0.00    +0.115 C 
ATOM     13  N   UNL     1     -11.501  11.988  65.730  0.00  0.00    -0.276 N 
ATOM     14  C   UNL     1     -10.184  11.453  65.906  0.00  0.00    +0.225 C 
ATOM     15  O   UNL     1      -9.517  11.687  66.958  0.00  0.00    -0.275 OA
ATOM     16  C   UNL     1     -11.784  12.534  64.403  0.00  0.00    +0.115 C 
ATOM     17  C   UNL     1     -11.008  13.819  64.312  0.00  0.00    +0.115 C 
BRANCH  14  18
ATOM     18  C   UNL     1      -9.397  10.946  64.744  0.00  0.00    +0.077 C 
ATOM     19  C   UNL     1      -9.344   9.396  64.723  0.00  0.00    +0.010 C 
ATOM     20  C   UNL     1      -8.105  10.270  65.034  0.00  0.00    +0.010 C 
ENDBRANCH  14  18
ENDBRANCH   1   9
BRANCH   6  21
ATOM     21  C   UNL     1      -8.901  20.134  67.172  0.00  0.00    +0.074 C 
BRANCH  21  22
ATOM     22  C   UNL     1      -7.601  20.059  66.484  0.00  0.00    +0.085 A 
ATOM     23  C   UNL     1      -6.444  20.139  67.230  0.00  0.00    +0.020 A 
ATOM     24  C   UNL     1      -5.237  19.843  66.609  0.00  0.00    +0.061 A 
ATOM     25  C   UNL     1      -4.043  20.209  67.217  0.00  0.00    +0.005 A 
ATOM     26  C   UNL     1      -4.134  20.902  68.411  0.00  0.00    +0.000 A 
ATOM     27  C   UNL     1      -5.270  20.813  69.190  0.00  0.00    +0.000 A 
ATOM     28  C   UNL     1      -5.237  19.030  65.484  0.00  0.00    +0.297 A 
ATOM     29  O   UNL     1      -4.154  18.761  64.892  0.00  0.00    -0.264 OA
ATOM     30  N   UNL     1      -6.441  18.713  64.947  0.00  0.00    -0.106 NA
ATOM     31  C   UNL     1      -6.430  20.329  68.597  0.00  0.00    +0.001 A 
ATOM     32  N   UNL     1      -7.482  19.448  65.279  0.00  0.00    -0.149 NA
ENDBRANCH  21  22
ENDBRANCH   6  21
TORSDOF 4
ENDMDL
