MODEL 1
REMARK VINA RESULT:      -8.5      0.000      0.000
REMARK  Name = 
REMARK  12 active torsions:
REMARK  status: ('A' for Active; 'I' for Inactive)
REMARK    1  A    between atoms: C_2  and  C_4
REMARK    2  A    between atoms: C_5  and  C_6
REMARK    3  A    between atoms: N_8  and  C_9
REMARK    4  A    between atoms: C_15  and  C_16
REMARK    5  A    between atoms: C_22  and  C_23
REMARK    6  A    between atoms: N_30  and  C_31
REMARK    7  A    between atoms: C_31  and  C_32
REMARK    8  A    between atoms: C_32  and  C_33
REMARK    9  A    between atoms: C_33  and  C_35
REMARK   10  A    between atoms: C_35  and  C_36
REMARK   11  A    between atoms: C_36  and  C_38
REMARK   12  A    between atoms: C_38  and  C_39
REMARK                            x       y       z     vdW  Elec       q    Type
REMARK                         _______ _______ _______ _____ _____    ______ ____
ROOT
ATOM      1  C   UNL     1     -12.119  14.457  69.889  0.00  0.00    +0.041 A 
ATOM      2  N   UNL     1     -11.811  14.914  68.652  0.00  0.00    -0.330 N 
ATOM      3  C   UNL     1     -11.576  13.844  67.874  0.00  0.00    +0.060 A 
ATOM      4  C   UNL     1     -11.480  12.698  68.654  0.00  0.00    +0.021 A 
ATOM      5  C   UNL     1     -11.935  13.083  69.905  0.00  0.00    +0.068 A 
ENDROOT
BRANCH   3   6
ATOM      6  C   UNL     1     -11.641  13.875  66.408  0.00  0.00    +0.016 A 
ATOM      7  C   UNL     1     -10.508  13.888  65.614  0.00  0.00    +0.004 A 
ATOM      8  C   UNL     1     -10.467  13.224  64.394  0.00  0.00    +0.030 A 
ATOM      9  C   UNL     1     -11.520  12.400  64.022  0.00  0.00    +0.140 A 
ATOM     10  F   UNL     1     -11.343  11.239  63.356  0.00  0.00    -0.204 F 
ATOM     11  C   UNL     1     -12.744  12.685  64.612  0.00  0.00    +0.030 A 
ATOM     12  C   UNL     1     -12.800  13.422  65.788  0.00  0.00    +0.004 A 
ENDBRANCH   3   6
BRANCH   4  13
ATOM     13  C   UNL     1     -10.590  11.602  68.346  0.00  0.00    +0.002 A 
ATOM     14  C   UNL     1      -9.229  11.610  68.619  0.00  0.00    +0.000 A 
ATOM     15  C   UNL     1      -8.493  10.463  68.439  0.00  0.00    +0.000 A 
ATOM     16  C   UNL     1      -8.881   9.529  67.487  0.00  0.00    +0.000 A 
ATOM     17  C   UNL     1     -10.088   9.762  66.852  0.00  0.00    +0.000 A 
ATOM     18  C   UNL     1     -10.995  10.603  67.467  0.00  0.00    +0.000 A 
ENDBRANCH   4  13
BRANCH   1  20
ATOM     19  C   UNL     1     -13.054  15.229  70.978  0.00  0.00    +0.006 C 
ATOM     20  C   UNL     1     -12.717  15.180  71.031  0.00  0.00    +0.038 C 
ATOM     21  C   UNL     1     -11.676  15.480  72.095  0.00  0.00    +0.006 C 
ENDBRANCH   1  20
BRANCH   5  22
ATOM     22  C   UNL     1     -12.440  12.096  70.865  0.00  0.00    +0.270 C 
ATOM     23  N   UNL     1     -12.597  10.766  70.364  0.00  0.00    -0.175 NA
ATOM     24  O   UNL     1     -13.249  12.422  71.780  0.00  0.00    -0.268 OA
BRANCH  23  25
ATOM     25  C   UNL     1     -12.719   9.687  71.298  0.00  0.00    +0.074 A 
ATOM     26  C   UNL     1     -11.630   8.920  71.639  0.00  0.00    +0.017 A 
ATOM     27  C   UNL     1     -11.816   7.583  71.954  0.00  0.00    +0.001 A 
ATOM     28  C   UNL     1     -13.030   6.938  71.752  0.00  0.00    +0.000 A 
ATOM     29  C   UNL     1     -14.141   7.747  71.633  0.00  0.00    +0.001 A 
ATOM     30  C   UNL     1     -13.977   9.116  71.453  0.00  0.00    +0.017 A 
ENDBRANCH  23  25
ENDBRANCH   5  22
BRANCH   2  31
ATOM     31  C   UNL     1     -11.598  16.322  68.347  0.00  0.00    +0.108 C 
BRANCH  31  32
ATOM     32  C   UNL     1     -10.129  16.667  68.444  0.00  0.00    +0.057 C 
BRANCH  32  33
ATOM     33  C   UNL     1      -9.875  17.664  67.122  0.00  0.00    +0.156 C 
ATOM     34  O   UNL     1     -10.936  18.662  67.633  0.00  0.00    -0.223 OA
BRANCH  33  35
ATOM     35  C   UNL     1      -8.636  18.478  67.905  0.00  0.00    +0.066 C 
BRANCH  35  36
ATOM     36  C   UNL     1      -7.474  18.189  66.730  0.00  0.00    +0.166 C 
ATOM     37  O   UNL     1      -8.507  17.492  65.821  0.00  0.00    -0.222 OA
BRANCH  36  38
ATOM     38  C   UNL     1      -7.721  19.686  66.021  0.00  0.00    +0.147 C 
BRANCH  38  39
ATOM     39  C   UNL     1      -6.656  20.546  66.530  0.00  0.00    +0.367 C 
ATOM     40  O   UNL     1      -5.426  19.899  66.688  0.00  0.00    -0.246 OA
ATOM     41  O   UNL     1      -6.808  21.558  67.268  0.00  0.00    -0.246 OA
ENDBRANCH  38  39
ENDBRANCH  36  38
ENDBRANCH  35  36
ENDBRANCH  33  35
ENDBRANCH  32  33
ENDBRANCH  31  32
ENDBRANCH   2  31
TORSDOF 12
ENDMDL
MODEL 2
REMARK VINA RESULT:      -8.4      0.978      1.712
REMARK  Name = 
REMARK  12 active torsions:
REMARK  status: ('A' for Active; 'I' for Inactive)
REMARK    1  A    between atoms: C_2  and  C_4
REMARK    2  A    between atoms: C_5  and  C_6
REMARK    3  A    between atoms: N_8  and  C_9
REMARK    4  A    between atoms: C_15  and  C_16
REMARK    5  A    between atoms: C_22  and  C_23
REMARK    6  A    between atoms: N_30  and  C_31
REMARK    7  A    between atoms: C_31  and  C_32
REMARK    8  A    between atoms: C_32  and  C_33
REMARK    9  A    between atoms: C_33  and  C_35
REMARK   10  A    between atoms: C_35  and  C_36
REMARK   11  A    between atoms: C_36  and  C_38
REMARK   12  A    between atoms: C_38  and  C_39
REMARK                            x       y       z     vdW  Elec       q    Type
REMARK                         _______ _______ _______ _____ _____    ______ ____
ROOT
ATOM      1  C   UNL     1     -11.951  14.331  69.646  0.00  0.00    +0.041 A 
ATOM      2  N   UNL     1     -11.631  14.736  68.394  0.00  0.00    -0.330 N 
ATOM      3  C   UNL     1     -11.424  13.632  67.654  0.00  0.00    +0.060 A 
ATOM      4  C   UNL     1     -11.358  12.513  68.474  0.00  0.00    +0.021 A 
ATOM      5  C   UNL     1     -11.803  12.954  69.710  0.00  0.00    +0.068 A 
ENDROOT
BRANCH   3   6
ATOM      6  C   UNL     1     -11.488  13.613  66.188  0.00  0.00    +0.016 A 
ATOM      7  C   UNL     1     -10.355  13.581  65.395  0.00  0.00    +0.004 A 
ATOM      8  C   UNL     1     -10.323  12.874  64.199  0.00  0.00    +0.030 A 
ATOM      9  C   UNL     1     -11.390  12.055  63.855  0.00  0.00    +0.140 A 
ATOM     10  F   UNL     1     -11.229  10.868  63.230  0.00  0.00    -0.204 F 
ATOM     11  C   UNL     1     -12.609  12.379  64.434  0.00  0.00    +0.030 A 
ATOM     12  C   UNL     1     -12.653  13.157  65.584  0.00  0.00    +0.004 A 
ENDBRANCH   3   6
BRANCH   4  13
ATOM     13  C   UNL     1     -10.497  11.384  68.206  0.00  0.00    +0.002 A 
ATOM     14  C   UNL     1      -9.132  11.374  68.460  0.00  0.00    +0.000 A 
ATOM     15  C   UNL     1      -8.424  10.203  68.324  0.00  0.00    +0.000 A 
ATOM     16  C   UNL     1      -8.847   9.235  67.422  0.00  0.00    +0.000 A 
ATOM     17  C   UNL     1     -10.057   9.465  66.794  0.00  0.00    +0.000 A 
ATOM     18  C   UNL     1     -10.936  10.355  67.381  0.00  0.00    +0.000 A 
ENDBRANCH   4  13
BRANCH   1  20
ATOM     19  C   UNL     1     -12.867  15.159  70.709  0.00  0.00    +0.006 C 
ATOM     20  C   UNL     1     -12.530  15.109  70.761  0.00  0.00    +0.038 C 
ATOM     21  C   UNL     1     -11.474  15.445  71.800  0.00  0.00    +0.006 C 
ENDBRANCH   1  20
BRANCH   5  22
ATOM     22  C   UNL     1     -12.333  12.015  70.704  0.00  0.00    +0.270 C 
ATOM     23  N   UNL     1     -12.523  10.672  70.251  0.00  0.00    -0.175 NA
ATOM     24  O   UNL     1     -13.134  12.394  71.606  0.00  0.00    -0.268 OA
BRANCH  23  25
ATOM     25  C   UNL     1     -12.673   9.631  71.224  0.00  0.00    +0.074 A 
ATOM     26  C   UNL     1     -11.583   8.931  71.683  0.00  0.00    +0.017 A 
ATOM     27  C   UNL     1     -11.737   7.602  72.046  0.00  0.00    +0.001 A 
ATOM     28  C   UNL     1     -12.902   6.894  71.782  0.00  0.00    +0.000 A 
ATOM     29  C   UNL     1     -14.034   7.644  71.538  0.00  0.00    +0.001 A 
ATOM     30  C   UNL     1     -13.915   9.010  71.307  0.00  0.00    +0.017 A 
ENDBRANCH  23  25
ENDBRANCH   5  22
BRANCH   2  31
ATOM     31  C   UNL     1     -11.381  16.126  68.039  0.00  0.00    +0.108 C 
BRANCH  31  32
ATOM     32  C   UNL     1      -9.937  16.316  67.632  0.00  0.00    +0.057 C 
BRANCH  32  33
ATOM     33  C   UNL     1      -9.198  16.828  69.045  0.00  0.00    +0.156 C 
ATOM     34  O   UNL     1      -8.284  15.585  69.053  0.00  0.00    -0.223 OA
BRANCH  33  35
ATOM     35  C   UNL     1      -8.073  17.733  68.193  0.00  0.00    +0.066 C 
BRANCH  35  36
ATOM     36  C   UNL     1      -8.737  19.227  68.568  0.00  0.00    +0.166 C 
ATOM     37  O   UNL     1      -7.341  19.823  68.846  0.00  0.00    -0.222 OA
BRANCH  36  38
ATOM     38  C   UNL     1      -8.726  19.710  66.964  0.00  0.00    +0.147 C 
BRANCH  38  39
ATOM     39  C   UNL     1     -10.118  19.658  66.526  0.00  0.00    +0.367 C 
ATOM     40  O   UNL     1     -11.046  19.631  67.572  0.00  0.00    -0.246 OA
ATOM     41  O   UNL     1     -10.539  19.156  65.447  0.00  0.00    -0.246 OA
ENDBRANCH  38  39
ENDBRANCH  36  38
ENDBRANCH  35  36
ENDBRANCH  33  35
ENDBRANCH  32  33
ENDBRANCH  31  32
ENDBRANCH   2  31
TORSDOF 12
ENDMDL
MODEL 3
REMARK VINA RESULT:      -8.2      2.557      8.156
REMARK  Name = 
REMARK  12 active torsions:
REMARK  status: ('A' for Active; 'I' for Inactive)
REMARK    1  A    between atoms: C_2  and  C_4
REMARK    2  A    between atoms: C_5  and  C_6
REMARK    3  A    between atoms: N_8  and  C_9
REMARK    4  A    between atoms: C_15  and  C_16
REMARK    5  A    between atoms: C_22  and  C_23
REMARK    6  A    between atoms: N_30  and  C_31
REMARK    7  A    between atoms: C_31  and  C_32
REMARK    8  A    between atoms: C_32  and  C_33
REMARK    9  A    between atoms: C_33  and  C_35
REMARK   10  A    between atoms: C_35  and  C_36
REMARK   11  A    between atoms: C_36  and  C_38
REMARK   12  A    between atoms: C_38  and  C_39
REMARK                            x       y       z     vdW  Elec       q    Type
REMARK                         _______ _______ _______ _____ _____    ______ ____
ROOT
ATOM      1  C   UNL     1     -12.083  13.492  70.322  0.00  0.00    +0.041 A 
ATOM      2  N   UNL     1     -11.855  12.157  70.323  0.00  0.00    -0.330 N 
ATOM      3  C   UNL     1     -11.245  11.852  69.164  0.00  0.00    +0.060 A 
ATOM      4  C   UNL     1     -11.299  12.936  68.296  0.00  0.00    +0.021 A 
ATOM      5  C   UNL     1     -11.729  13.994  69.079  0.00  0.00    +0.068 A 
ENDROOT
BRANCH   3   6
ATOM      6  C   UNL     1     -10.454  10.633  68.959  0.00  0.00    +0.016 A 
ATOM      7  C   UNL     1     -10.904   9.575  68.189  0.00  0.00    +0.004 A 
ATOM      8  C   UNL     1     -10.036   8.823  67.408  0.00  0.00    +0.030 A 
ATOM      9  C   UNL     1      -8.714   9.222  67.267  0.00  0.00    +0.140 A 
ATOM     10  F   UNL     1      -8.031   9.098  66.108  0.00  0.00    -0.204 F 
ATOM     11  C   UNL     1      -8.212  10.012  68.291  0.00  0.00    +0.030 A 
ATOM     12  C   UNL     1      -9.076  10.703  69.131  0.00  0.00    +0.004 A 
ENDBRANCH   3   6
BRANCH   4  13
ATOM     13  C   UNL     1     -11.430  12.797  66.864  0.00  0.00    +0.002 A 
ATOM     14  C   UNL     1     -10.398  12.390  66.028  0.00  0.00    +0.000 A 
ATOM     15  C   UNL     1     -10.659  12.132  64.703  0.00  0.00    +0.000 A 
ATOM     16  C   UNL     1     -11.696  12.793  64.056  0.00  0.00    +0.000 A 
ATOM     17  C   UNL     1     -12.499  13.598  64.843  0.00  0.00    +0.000 A 
ATOM     18  C   UNL     1     -12.512  13.370  66.206  0.00  0.00    +0.000 A 
ENDBRANCH   4  13
BRANCH   1  20
ATOM     19  C   UNL     1     -12.191  14.466  71.624  0.00  0.00    +0.006 C 
ATOM     20  C   UNL     1     -12.470  14.375  71.442  0.00  0.00    +0.038 C 
ATOM     21  C   UNL     1     -13.969  14.622  71.452  0.00  0.00    +0.006 C 
ENDBRANCH   1  20
BRANCH   5  22
ATOM     22  C   UNL     1     -11.468  15.383  68.686  0.00  0.00    +0.270 C 
ATOM     23  N   UNL     1     -10.097  15.786  68.702  0.00  0.00    -0.175 NA
ATOM     24  O   UNL     1     -12.299  16.304  68.933  0.00  0.00    -0.268 OA
BRANCH  23  25
ATOM     25  C   UNL     1      -9.718  16.971  67.992  0.00  0.00    +0.074 A 
ATOM     26  C   UNL     1      -9.561  18.168  68.650  0.00  0.00    +0.017 A 
ATOM     27  C   UNL     1      -9.854  19.349  67.984  0.00  0.00    +0.001 A 
ATOM     28  C   UNL     1     -10.485  19.362  66.747  0.00  0.00    +0.000 A 
ATOM     29  C   UNL     1     -10.429  18.192  66.017  0.00  0.00    +0.001 A 
ATOM     30  C   UNL     1     -10.004  17.020  66.633  0.00  0.00    +0.017 A 
ENDBRANCH  23  25
ENDBRANCH   5  22
BRANCH   2  31
ATOM     31  C   UNL     1     -12.381  11.254  71.337  0.00  0.00    +0.108 C 
BRANCH  31  32
ATOM     32  C   UNL     1     -13.235  10.182  70.698  0.00  0.00    +0.057 C 
BRANCH  32  33
ATOM     33  C   UNL     1     -13.427   9.056  71.923  0.00  0.00    +0.156 C 
ATOM     34  O   UNL     1     -14.658   8.451  71.216  0.00  0.00    -0.223 OA
BRANCH  33  35
ATOM     35  C   UNL     1     -12.383   7.980  71.173  0.00  0.00    +0.066 C 
BRANCH  35  36
ATOM     36  C   UNL     1     -11.334   7.826  72.473  0.00  0.00    +0.166 C 
ATOM     37  O   UNL     1     -11.487   6.291  72.467  0.00  0.00    -0.222 OA
BRANCH  36  38
ATOM     38  C   UNL     1      -9.992   7.790  71.473  0.00  0.00    +0.147 C 
BRANCH  38  39
ATOM     39  C   UNL     1      -8.859   8.162  72.317  0.00  0.00    +0.367 C 
ATOM     40  O   UNL     1      -9.113   8.065  73.689  0.00  0.00    -0.246 OA
ATOM     41  O   UNL     1      -7.945   8.977  72.015  0.00  0.00    -0.246 OA
ENDBRANCH  38  39
ENDBRANCH  36  38
ENDBRANCH  35  36
ENDBRANCH  33  35
ENDBRANCH  32  33
ENDBRANCH  31  32
ENDBRANCH   2  31
TORSDOF 12
ENDMDL
MODEL 4
REMARK VINA RESULT:      -8.1      3.079      6.117
REMARK  Name = 
REMARK  12 active torsions:
REMARK  status: ('A' for Active; 'I' for Inactive)
REMARK    1  A    between atoms: C_2  and  C_4
REMARK    2  A    between atoms: C_5  and  C_6
REMARK    3  A    between atoms: N_8  and  C_9
REMARK    4  A    between atoms: C_15  and  C_16
REMARK    5  A    between atoms: C_22  and  C_23
REMARK    6  A    between atoms: N_30  and  C_31
REMARK    7  A    between atoms: C_31  and  C_32
REMARK    8  A    between atoms: C_32  and  C_33
REMARK    9  A    between atoms: C_33  and  C_35
REMARK   10  A    between atoms: C_35  and  C_36
REMARK   11  A    between atoms: C_36  and  C_38
REMARK   12  A    between atoms: C_38  and  C_39
REMARK                            x       y       z     vdW  Elec       q    Type
REMARK                         _______ _______ _______ _____ _____    ______ ____
ROOT
ATOM      1  C   UNL     1     -11.300  12.233  68.435  0.00  0.00    +0.041 A 
ATOM      2  N   UNL     1     -10.832  13.453  68.080  0.00  0.00    -0.330 N 
ATOM      3  C   UNL     1     -10.837  14.224  69.181  0.00  0.00    +0.060 A 
ATOM      4  C   UNL     1     -11.542  13.595  70.200  0.00  0.00    +0.021 A 
ATOM      5  C   UNL     1     -11.730  12.298  69.752  0.00  0.00    +0.068 A 
ENDROOT
BRANCH   3   6
ATOM      6  C   UNL     1     -10.023  15.436  69.328  0.00  0.00    +0.016 A 
ATOM      7  C   UNL     1      -8.641  15.416  69.262  0.00  0.00    +0.004 A 
ATOM      8  C   UNL     1      -7.924  16.459  68.690  0.00  0.00    +0.030 A 
ATOM      9  C   UNL     1      -8.598  17.478  68.031  0.00  0.00    +0.140 A 
ATOM     10  F   UNL     1      -8.126  18.063  66.909  0.00  0.00    -0.204 F 
ATOM     11  C   UNL     1      -9.917  17.676  68.418  0.00  0.00    +0.030 A 
ATOM     12  C   UNL     1     -10.615  16.666  69.067  0.00  0.00    +0.004 A 
ENDBRANCH   3   6
BRANCH   4  13
ATOM     13  C   UNL     1     -12.340  14.311  71.169  0.00  0.00    +0.002 A 
ATOM     14  C   UNL     1     -13.666  14.670  70.966  0.00  0.00    +0.000 A 
ATOM     15  C   UNL     1     -14.392  15.205  72.003  0.00  0.00    +0.000 A 
ATOM     16  C   UNL     1     -13.750  15.923  73.005  0.00  0.00    +0.000 A 
ATOM     17  C   UNL     1     -12.368  15.946  72.956  0.00  0.00    +0.000 A 
ATOM     18  C   UNL     1     -11.726  14.958  72.235  0.00  0.00    +0.000 A 
ENDBRANCH   4  13
BRANCH   1  20
ATOM     19  C   UNL     1     -11.565  10.854  67.609  0.00  0.00    +0.006 C 
ATOM     20  C   UNL     1     -11.247  10.958  67.691  0.00  0.00    +0.038 C 
ATOM     21  C   UNL     1      -9.813  10.494  67.502  0.00  0.00    +0.006 C 
ENDBRANCH   1  20
BRANCH   5  22
ATOM     22  C   UNL     1     -11.995  11.203  70.690  0.00  0.00    +0.270 C 
ATOM     23  N   UNL     1     -11.222  10.016  70.494  0.00  0.00    -0.175 NA
ATOM     24  O   UNL     1     -13.148  11.017  71.175  0.00  0.00    -0.268 OA
BRANCH  23  25
ATOM     25  C   UNL     1     -11.142   9.061  71.559  0.00  0.00    +0.074 A 
ATOM     26  C   UNL     1      -9.935   8.745  72.135  0.00  0.00    +0.017 A 
ATOM     27  C   UNL     1      -9.734   7.463  72.624  0.00  0.00    +0.001 A 
ATOM     28  C   UNL     1     -10.630   6.431  72.380  0.00  0.00    +0.000 A 
ATOM     29  C   UNL     1     -11.907   6.801  72.013  0.00  0.00    +0.001 A 
ATOM     30  C   UNL     1     -12.161   8.119  71.650  0.00  0.00    +0.017 A 
ENDBRANCH  23  25
ENDBRANCH   5  22
BRANCH   2  31
ATOM     31  C   UNL     1     -10.579  13.844  66.700  0.00  0.00    +0.108 C 
BRANCH  31  32
ATOM     32  C   UNL     1     -11.786  14.545  66.119  0.00  0.00    +0.057 C 
BRANCH  32  33
ATOM     33  C   UNL     1     -12.365  13.452  64.990  0.00  0.00    +0.156 C 
ATOM     34  O   UNL     1     -12.643  14.589  63.985  0.00  0.00    -0.223 OA
BRANCH  33  35
ATOM     35  C   UNL     1     -10.828  13.191  64.373  0.00  0.00    +0.066 C 
BRANCH  35  36
ATOM     36  C   UNL     1     -11.011  11.538  64.155  0.00  0.00    +0.166 C 
ATOM     37  O   UNL     1     -12.112  11.757  63.097  0.00  0.00    -0.222 OA
BRANCH  36  38
ATOM     38  C   UNL     1      -9.790  11.486  63.010  0.00  0.00    +0.147 C 
BRANCH  38  39
ATOM     39  C   UNL     1      -9.274  10.120  63.043  0.00  0.00    +0.367 C 
ATOM     40  O   UNL     1      -9.462   9.409  61.853  0.00  0.00    -0.246 OA
ATOM     41  O   UNL     1      -9.160   9.394  64.068  0.00  0.00    -0.246 OA
ENDBRANCH  38  39
ENDBRANCH  36  38
ENDBRANCH  35  36
ENDBRANCH  33  35
ENDBRANCH  32  33
ENDBRANCH  31  32
ENDBRANCH   2  31
TORSDOF 12
ENDMDL
MODEL 5
REMARK VINA RESULT:      -8.1      2.480      8.324
REMARK  Name = 
REMARK  12 active torsions:
REMARK  status: ('A' for Active; 'I' for Inactive)
REMARK    1  A    between atoms: C_2  and  C_4
REMARK    2  A    between atoms: C_5  and  C_6
REMARK    3  A    between atoms: N_8  and  C_9
REMARK    4  A    between atoms: C_15  and  C_16
REMARK    5  A    between atoms: C_22  and  C_23
REMARK    6  A    between atoms: N_30  and  C_31
REMARK    7  A    between atoms: C_31  and  C_32
REMARK    8  A    between atoms: C_32  and  C_33
REMARK    9  A    between atoms: C_33  and  C_35
REMARK   10  A    between atoms: C_35  and  C_36
REMARK   11  A    between atoms: C_36  and  C_38
REMARK   12  A    between atoms: C_38  and  C_39
REMARK                            x       y       z     vdW  Elec       q    Type
REMARK                         _______ _______ _______ _____ _____    ______ ____
ROOT
ATOM      1  C   UNL     1     -12.041  13.326  69.921  0.00  0.00    +0.041 A 
ATOM      2  N   UNL     1     -11.828  11.998  69.762  0.00  0.00    -0.330 N 
ATOM      3  C   UNL     1     -11.200  11.828  68.586  0.00  0.00    +0.060 A 
ATOM      4  C   UNL     1     -11.226  13.010  67.856  0.00  0.00    +0.021 A 
ATOM      5  C   UNL     1     -11.659  13.971  68.755  0.00  0.00    +0.068 A 
ENDROOT
BRANCH   3   6
ATOM      6  C   UNL     1     -10.419  10.633  68.247  0.00  0.00    +0.016 A 
ATOM      7  C   UNL     1     -10.893   9.651  67.396  0.00  0.00    +0.004 A 
ATOM      8  C   UNL     1     -10.050   8.974  66.524  0.00  0.00    +0.030 A 
ATOM      9  C   UNL     1      -8.731   9.383  66.383  0.00  0.00    +0.140 A 
ATOM     10  F   UNL     1      -8.081   9.367  65.199  0.00  0.00    -0.204 F 
ATOM     11  C   UNL     1      -8.198  10.076  67.462  0.00  0.00    +0.030 A 
ATOM     12  C   UNL     1      -9.036  10.686  68.386  0.00  0.00    +0.004 A 
ENDBRANCH   3   6
BRANCH   4  13
ATOM     13  C   UNL     1     -11.331  13.049  66.416  0.00  0.00    +0.002 A 
ATOM     14  C   UNL     1     -12.527  12.917  65.723  0.00  0.00    +0.000 A 
ATOM     15  C   UNL     1     -12.552  13.128  64.364  0.00  0.00    +0.000 A 
ATOM     16  C   UNL     1     -11.417  12.886  63.601  0.00  0.00    +0.000 A 
ATOM     17  C   UNL     1     -10.266  12.559  64.295  0.00  0.00    +0.000 A 
ATOM     18  C   UNL     1     -10.192  12.904  65.631  0.00  0.00    +0.000 A 
ENDBRANCH   4  13
BRANCH   1  20
ATOM     19  C   UNL     1     -12.161  14.151  71.321  0.00  0.00    +0.006 C 
ATOM     20  C   UNL     1     -12.439  14.070  71.134  0.00  0.00    +0.038 C 
ATOM     21  C   UNL     1     -13.945  14.264  71.188  0.00  0.00    +0.006 C 
ENDBRANCH   1  20
BRANCH   5  22
ATOM     22  C   UNL     1     -11.375  15.393  68.539  0.00  0.00    +0.270 C 
ATOM     23  N   UNL     1      -9.992  15.750  68.482  0.00  0.00    -0.175 NA
ATOM     24  O   UNL     1     -12.141  16.293  68.991  0.00  0.00    -0.268 OA
BRANCH  23  25
ATOM     25  C   UNL     1      -9.628  17.014  67.915  0.00  0.00    +0.074 A 
ATOM     26  C   UNL     1      -9.433  18.117  68.712  0.00  0.00    +0.017 A 
ATOM     27  C   UNL     1      -9.740  19.374  68.214  0.00  0.00    +0.001 A 
ATOM     28  C   UNL     1     -10.417  19.548  67.014  0.00  0.00    +0.000 A 
ATOM     29  C   UNL     1     -10.401  18.480  66.140  0.00  0.00    +0.001 A 
ATOM     30  C   UNL     1      -9.965  17.237  66.585  0.00  0.00    +0.017 A 
ENDBRANCH  23  25
ENDBRANCH   5  22
BRANCH   2  31
ATOM     31  C   UNL     1     -12.382  10.985  70.649  0.00  0.00    +0.108 C 
BRANCH  31  32
ATOM     32  C   UNL     1     -11.314   9.994  71.053  0.00  0.00    +0.057 C 
BRANCH  32  33
ATOM     33  C   UNL     1     -12.103   8.991  72.138  0.00  0.00    +0.156 C 
ATOM     34  O   UNL     1     -13.476   9.518  71.674  0.00  0.00    -0.223 OA
BRANCH  33  35
ATOM     35  C   UNL     1     -12.137   7.731  71.032  0.00  0.00    +0.066 C 
BRANCH  35  36
ATOM     36  C   UNL     1     -10.545   7.258  71.262  0.00  0.00    +0.166 C 
ATOM     37  O   UNL     1     -10.872   6.690  72.659  0.00  0.00    -0.222 OA
BRANCH  36  38
ATOM     38  C   UNL     1     -10.800   5.788  70.501  0.00  0.00    +0.147 C 
BRANCH  38  39
ATOM     39  C   UNL     1     -10.394   5.986  69.113  0.00  0.00    +0.367 C 
ATOM     40  O   UNL     1      -9.198   6.696  68.963  0.00  0.00    -0.246 OA
ATOM     41  O   UNL     1     -11.164   6.052  68.116  0.00  0.00    -0.246 OA
ENDBRANCH  38  39
ENDBRANCH  36  38
ENDBRANCH  35  36
ENDBRANCH  33  35
ENDBRANCH  32  33
ENDBRANCH  31  32
ENDBRANCH   2  31
TORSDOF 12
ENDMDL
MODEL 6
REMARK VINA RESULT:      -7.8      3.520      7.057
REMARK  Name = 
REMARK  12 active torsions:
REMARK  status: ('A' for Active; 'I' for Inactive)
REMARK    1  A    between atoms: C_2  and  C_4
REMARK    2  A    between atoms: C_5  and  C_6
REMARK    3  A    between atoms: N_8  and  C_9
REMARK    4  A    between atoms: C_15  and  C_16
REMARK    5  A    between atoms: C_22  and  C_23
REMARK    6  A    between atoms: N_30  and  C_31
REMARK    7  A    between atoms: C_31  and  C_32
REMARK    8  A    between atoms: C_32  and  C_33
REMARK    9  A    between atoms: C_33  and  C_35
REMARK   10  A    between atoms: C_35  and  C_36
REMARK   11  A    between atoms: C_36  and  C_38
REMARK   12  A    between atoms: C_38  and  C_39
REMARK                            x       y       z     vdW  Elec       q    Type
REMARK                         _______ _______ _______ _____ _____    ______ ____
ROOT
ATOM      1  C   UNL     1     -10.164  12.237  67.811  0.00  0.00    +0.041 A 
ATOM      2  N   UNL     1      -8.922  11.718  67.663  0.00  0.00    -0.330 N 
ATOM      3  C   UNL     1      -8.041  12.667  68.024  0.00  0.00    +0.060 A 
ATOM      4  C   UNL     1      -8.688  13.888  68.169  0.00  0.00    +0.021 A 
ATOM      5  C   UNL     1     -10.038  13.578  68.140  0.00  0.00    +0.068 A 
ENDROOT
BRANCH   3   6
ATOM      6  C   UNL     1      -6.657  12.382  68.421  0.00  0.00    +0.016 A 
ATOM      7  C   UNL     1      -5.578  12.654  67.600  0.00  0.00    +0.004 A 
ATOM      8  C   UNL     1      -4.362  13.086  68.114  0.00  0.00    +0.030 A 
ATOM      9  C   UNL     1      -4.257  13.402  69.462  0.00  0.00    +0.140 A 
ATOM     10  F   UNL     1      -3.506  14.428  69.917  0.00  0.00    -0.204 F 
ATOM     11  C   UNL     1      -5.183  12.791  70.297  0.00  0.00    +0.030 A 
ATOM     12  C   UNL     1      -6.366  12.281  69.776  0.00  0.00    +0.004 A 
ENDBRANCH   3   6
BRANCH   4  13
ATOM     13  C   UNL     1      -8.073  15.153  67.837  0.00  0.00    +0.002 A 
ATOM     14  C   UNL     1      -7.570  16.040  68.779  0.00  0.00    +0.000 A 
ATOM     15  C   UNL     1      -6.860  17.142  68.365  0.00  0.00    +0.000 A 
ATOM     16  C   UNL     1      -7.117  17.709  67.123  0.00  0.00    +0.000 A 
ATOM     17  C   UNL     1      -8.009  17.033  66.310  0.00  0.00    +0.000 A 
ATOM     18  C   UNL     1      -8.238  15.695  66.568  0.00  0.00    +0.000 A 
ENDBRANCH   4  13
BRANCH   1  20
ATOM     19  C   UNL     1     -11.643  11.617  67.525  0.00  0.00    +0.006 C 
ATOM     20  C   UNL     1     -11.471  11.549  67.816  0.00  0.00    +0.038 C 
ATOM     21  C   UNL     1     -11.660  10.743  69.089  0.00  0.00    +0.006 C 
ENDBRANCH   1  20
BRANCH   5  22
ATOM     22  C   UNL     1     -11.035  14.482  68.724  0.00  0.00    +0.270 C 
ATOM     23  N   UNL     1     -11.582  14.075  69.981  0.00  0.00    -0.175 NA
ATOM     24  O   UNL     1     -11.815  15.159  67.996  0.00  0.00    -0.268 OA
BRANCH  23  25
ATOM     25  C   UNL     1     -12.260  15.047  70.786  0.00  0.00    +0.074 A 
ATOM     26  C   UNL     1     -11.555  15.935  71.565  0.00  0.00    +0.017 A 
ATOM     27  C   UNL     1     -12.108  16.372  72.759  0.00  0.00    +0.001 A 
ATOM     28  C   UNL     1     -13.256  15.802  73.295  0.00  0.00    +0.000 A 
ATOM     29  C   UNL     1     -14.056  15.096  72.420  0.00  0.00    +0.001 A 
ATOM     30  C   UNL     1     -13.568  14.765  71.160  0.00  0.00    +0.017 A 
ENDBRANCH  23  25
ENDBRANCH   5  22
BRANCH   2  31
ATOM     31  C   UNL     1      -8.661  10.431  67.032  0.00  0.00    +0.108 C 
BRANCH  31  32
ATOM     32  C   UNL     1      -8.092  10.628  65.645  0.00  0.00    +0.057 C 
BRANCH  32  33
ATOM     33  C   UNL     1      -8.771   9.375  64.765  0.00  0.00    +0.156 C 
ATOM     34  O   UNL     1      -9.211   8.662  66.060  0.00  0.00    -0.223 OA
BRANCH  33  35
ATOM     35  C   UNL     1     -10.233  10.186  64.636  0.00  0.00    +0.066 C 
BRANCH  35  36
ATOM     36  C   UNL     1      -9.642  11.459  63.718  0.00  0.00    +0.166 C 
ATOM     37  O   UNL     1      -9.619  10.585  62.446  0.00  0.00    -0.222 OA
BRANCH  36  38
ATOM     38  C   UNL     1     -11.182  12.038  63.405  0.00  0.00    +0.147 C 
BRANCH  38  39
ATOM     39  C   UNL     1     -11.408  13.107  64.374  0.00  0.00    +0.367 C 
ATOM     40  O   UNL     1     -12.757  13.389  64.611  0.00  0.00    -0.246 OA
ATOM     41  O   UNL     1     -10.628  14.069  64.613  0.00  0.00    -0.246 OA
ENDBRANCH  38  39
ENDBRANCH  36  38
ENDBRANCH  35  36
ENDBRANCH  33  35
ENDBRANCH  32  33
ENDBRANCH  31  32
ENDBRANCH   2  31
TORSDOF 12
ENDMDL
MODEL 7
REMARK VINA RESULT:      -7.8      3.357      5.284
REMARK  Name = 
REMARK  12 active torsions:
REMARK  status: ('A' for Active; 'I' for Inactive)
REMARK    1  A    between atoms: C_2  and  C_4
REMARK    2  A    between atoms: C_5  and  C_6
REMARK    3  A    between atoms: N_8  and  C_9
REMARK    4  A    between atoms: C_15  and  C_16
REMARK    5  A    between atoms: C_22  and  C_23
REMARK    6  A    between atoms: N_30  and  C_31
REMARK    7  A    between atoms: C_31  and  C_32
REMARK    8  A    between atoms: C_32  and  C_33
REMARK    9  A    between atoms: C_33  and  C_35
REMARK   10  A    between atoms: C_35  and  C_36
REMARK   11  A    between atoms: C_36  and  C_38
REMARK   12  A    between atoms: C_38  and  C_39
REMARK                            x       y       z     vdW  Elec       q    Type
REMARK                         _______ _______ _______ _____ _____    ______ ____
ROOT
ATOM      1  C   UNL     1      -7.275  13.944  67.440  0.00  0.00    +0.041 A 
ATOM      2  N   UNL     1      -7.673  15.224  67.245  0.00  0.00    -0.330 N 
ATOM      3  C   UNL     1      -8.992  15.202  66.987  0.00  0.00    +0.060 A 
ATOM      4  C   UNL     1      -9.413  13.896  66.764  0.00  0.00    +0.021 A 
ATOM      5  C   UNL     1      -8.346  13.108  67.162  0.00  0.00    +0.068 A 
ENDROOT
BRANCH   3   6
ATOM      6  C   UNL     1      -9.871  16.366  67.149  0.00  0.00    +0.016 A 
ATOM      7  C   UNL     1     -10.093  16.965  68.376  0.00  0.00    +0.004 A 
ATOM      8  C   UNL     1     -10.258  18.339  68.496  0.00  0.00    +0.030 A 
ATOM      9  C   UNL     1     -10.047  19.157  67.394  0.00  0.00    +0.140 A 
ATOM     10  F   UNL     1      -9.472  20.376  67.486  0.00  0.00    -0.204 F 
ATOM     11  C   UNL     1     -10.197  18.549  66.156  0.00  0.00    +0.030 A 
ATOM     12  C   UNL     1     -10.117  17.167  66.040  0.00  0.00    +0.004 A 
ENDBRANCH   3   6
BRANCH   4  13
ATOM     13  C   UNL     1     -10.453  13.551  65.822  0.00  0.00    +0.002 A 
ATOM     14  C   UNL     1     -11.768  13.286  66.183  0.00  0.00    +0.000 A 
ATOM     15  C   UNL     1     -12.722  13.125  65.206  0.00  0.00    +0.000 A 
ATOM     16  C   UNL     1     -12.361  12.640  63.954  0.00  0.00    +0.000 A 
ATOM     17  C   UNL     1     -11.008  12.465  63.728  0.00  0.00    +0.000 A 
ATOM     18  C   UNL     1     -10.120  13.154  64.532  0.00  0.00    +0.000 A 
ENDBRANCH   4  13
BRANCH   1  20
ATOM     19  C   UNL     1      -5.804  13.322  67.760  0.00  0.00    +0.006 C 
ATOM     20  C   UNL     1      -6.012  13.434  68.012  0.00  0.00    +0.038 C 
ATOM     21  C   UNL     1      -6.003  13.567  69.525  0.00  0.00    +0.006 C 
ENDBRANCH   1  20
BRANCH   5  22
ATOM     22  C   UNL     1      -8.540  11.703  67.535  0.00  0.00    +0.270 C 
ATOM     23  N   UNL     1      -8.703  11.447  68.932  0.00  0.00    -0.175 NA
ATOM     24  O   UNL     1      -7.996  10.767  66.880  0.00  0.00    -0.268 OA
BRANCH  23  25
ATOM     25  C   UNL     1      -9.259  10.192  69.343  0.00  0.00    +0.074 A 
ATOM     26  C   UNL     1     -10.620  10.008  69.403  0.00  0.00    +0.017 A 
ATOM     27  C   UNL     1     -11.145   9.151  70.358  0.00  0.00    +0.001 A 
ATOM     28  C   UNL     1     -10.369   8.621  71.381  0.00  0.00    +0.000 A 
ATOM     29  C   UNL     1      -9.004   8.627  71.182  0.00  0.00    +0.001 A 
ATOM     30  C   UNL     1      -8.466   9.374  70.140  0.00  0.00    +0.017 A 
ENDBRANCH  23  25
ENDBRANCH   5  22
BRANCH   2  31
ATOM     31  C   UNL     1      -6.748  16.345  67.148  0.00  0.00    +0.108 C 
BRANCH  31  32
ATOM     32  C   UNL     1      -6.605  17.028  68.490  0.00  0.00    +0.057 C 
BRANCH  32  33
ATOM     33  C   UNL     1      -5.610  18.334  68.157  0.00  0.00    +0.156 C 
ATOM     34  O   UNL     1      -6.589  18.844  67.079  0.00  0.00    -0.223 OA
BRANCH  33  35
ATOM     35  C   UNL     1      -6.337  19.261  69.350  0.00  0.00    +0.066 C 
BRANCH  35  36
ATOM     36  C   UNL     1      -5.053  19.189  70.427  0.00  0.00    +0.166 C 
ATOM     37  O   UNL     1      -4.052  18.934  69.281  0.00  0.00    -0.222 OA
BRANCH  36  38
ATOM     38  C   UNL     1      -4.831  20.848  70.378  0.00  0.00    +0.147 C 
BRANCH  38  39
ATOM     39  C   UNL     1      -4.234  21.206  71.661  0.00  0.00    +0.367 C 
ATOM     40  O   UNL     1      -3.727  20.118  72.379  0.00  0.00    -0.246 OA
ATOM     41  O   UNL     1      -4.548  22.197  72.376  0.00  0.00    -0.246 OA
ENDBRANCH  38  39
ENDBRANCH  36  38
ENDBRANCH  35  36
ENDBRANCH  33  35
ENDBRANCH  32  33
ENDBRANCH  31  32
ENDBRANCH   2  31
TORSDOF 12
ENDMDL
MODEL 8
REMARK VINA RESULT:      -7.6      3.874      7.537
REMARK  Name = 
REMARK  12 active torsions:
REMARK  status: ('A' for Active; 'I' for Inactive)
REMARK    1  A    between atoms: C_2  and  C_4
REMARK    2  A    between atoms: C_5  and  C_6
REMARK    3  A    between atoms: N_8  and  C_9
REMARK    4  A    between atoms: C_15  and  C_16
REMARK    5  A    between atoms: C_22  and  C_23
REMARK    6  A    between atoms: N_30  and  C_31
REMARK    7  A    between atoms: C_31  and  C_32
REMARK    8  A    between atoms: C_32  and  C_33
REMARK    9  A    between atoms: C_33  and  C_35
REMARK   10  A    between atoms: C_35  and  C_36
REMARK   11  A    between atoms: C_36  and  C_38
REMARK   12  A    between atoms: C_38  and  C_39
REMARK                            x       y       z     vdW  Elec       q    Type
REMARK                         _______ _______ _______ _____ _____    ______ ____
ROOT
ATOM      1  C   UNL     1     -11.144  12.160  66.253  0.00  0.00    +0.041 A 
ATOM      2  N   UNL     1     -10.819  12.043  67.562  0.00  0.00    -0.330 N 
ATOM      3  C   UNL     1     -10.046  10.950  67.690  0.00  0.00    +0.060 A 
ATOM      4  C   UNL     1     -10.070  10.208  66.515  0.00  0.00    +0.021 A 
ATOM      5  C   UNL     1     -10.674  11.039  65.585  0.00  0.00    +0.068 A 
ENDROOT
BRANCH   3   6
ATOM      6  C   UNL     1      -9.147  10.720  68.827  0.00  0.00    +0.016 A 
ATOM      7  C   UNL     1      -9.486   9.900  69.888  0.00  0.00    +0.004 A 
ATOM      8  C   UNL     1      -8.539   9.113  70.531  0.00  0.00    +0.030 A 
ATOM      9  C   UNL     1      -7.254   9.020  70.014  0.00  0.00    +0.140 A 
ATOM     10  F   UNL     1      -6.538   7.874  70.032  0.00  0.00    -0.204 F 
ATOM     11  C   UNL     1      -6.845  10.085  69.223  0.00  0.00    +0.030 A 
ATOM     12  C   UNL     1      -7.785  10.928  68.644  0.00  0.00    +0.004 A 
ENDBRANCH   3   6
BRANCH   4  13
ATOM     13  C   UNL     1     -10.008   8.765  66.489  0.00  0.00    +0.002 A 
ATOM     14  C   UNL     1     -10.885   7.939  67.180  0.00  0.00    +0.000 A 
ATOM     15  C   UNL     1     -10.849   6.581  66.968  0.00  0.00    +0.000 A 
ATOM     16  C   UNL     1      -9.663   5.967  66.585  0.00  0.00    +0.000 A 
ATOM     17  C   UNL     1      -8.596   6.804  66.315  0.00  0.00    +0.000 A 
ATOM     18  C   UNL     1      -8.865   8.127  66.021  0.00  0.00    +0.000 A 
ENDBRANCH   4  13
BRANCH   1  20
ATOM     19  C   UNL     1     -12.078  13.278  65.522  0.00  0.00    +0.006 C 
ATOM     20  C   UNL     1     -11.734  13.308  65.535  0.00  0.00    +0.038 C 
ATOM     21  C   UNL     1     -10.659  14.279  65.078  0.00  0.00    +0.006 C 
ENDBRANCH   1  20
BRANCH   5  22
ATOM     22  C   UNL     1     -10.470  10.841  64.147  0.00  0.00    +0.270 C 
ATOM     23  N   UNL     1      -9.115  10.918  63.695  0.00  0.00    -0.175 NA
ATOM     24  O   UNL     1     -11.336  11.207  63.302  0.00  0.00    -0.268 OA
BRANCH  23  25
ATOM     25  C   UNL     1      -8.785  10.379  62.409  0.00  0.00    +0.074 A 
ATOM     26  C   UNL     1      -8.926   9.037  62.149  0.00  0.00    +0.017 A 
ATOM     27  C   UNL     1      -8.055   8.426  61.259  0.00  0.00    +0.001 A 
ATOM     28  C   UNL     1      -6.926   9.070  60.769  0.00  0.00    +0.000 A 
ATOM     29  C   UNL     1      -6.922  10.448  60.853  0.00  0.00    +0.001 A 
ATOM     30  C   UNL     1      -7.876  11.090  61.634  0.00  0.00    +0.017 A 
ENDBRANCH  23  25
ENDBRANCH   5  22
BRANCH   2  31
ATOM     31  C   UNL     1     -11.400  12.871  68.610  0.00  0.00    +0.108 C 
BRANCH  31  32
ATOM     32  C   UNL     1     -10.525  14.074  68.878  0.00  0.00    +0.057 C 
BRANCH  32  33
ATOM     33  C   UNL     1     -11.315  14.858  70.130  0.00  0.00    +0.156 C 
ATOM     34  O   UNL     1     -12.440  15.311  69.178  0.00  0.00    -0.223 OA
BRANCH  33  35
ATOM     35  C   UNL     1     -12.144  13.463  70.554  0.00  0.00    +0.066 C 
BRANCH  35  36
ATOM     36  C   UNL     1     -13.363  14.240  71.404  0.00  0.00    +0.166 C 
ATOM     37  O   UNL     1     -13.647  12.972  72.236  0.00  0.00    -0.222 OA
BRANCH  36  38
ATOM     38  C   UNL     1     -12.282  14.849  72.529  0.00  0.00    +0.147 C 
BRANCH  38  39
ATOM     39  C   UNL     1     -13.067  15.718  73.402  0.00  0.00    +0.367 C 
ATOM     40  O   UNL     1     -14.248  16.193  72.823  0.00  0.00    -0.246 OA
ATOM     41  O   UNL     1     -12.613  16.447  74.326  0.00  0.00    -0.246 OA
ENDBRANCH  38  39
ENDBRANCH  36  38
ENDBRANCH  35  36
ENDBRANCH  33  35
ENDBRANCH  32  33
ENDBRANCH  31  32
ENDBRANCH   2  31
TORSDOF 12
ENDMDL
MODEL 9
REMARK VINA RESULT:      -7.5      3.229      5.146
REMARK  Name = 
REMARK  12 active torsions:
REMARK  status: ('A' for Active; 'I' for Inactive)
REMARK    1  A    between atoms: C_2  and  C_4
REMARK    2  A    between atoms: C_5  and  C_6
REMARK    3  A    between atoms: N_8  and  C_9
REMARK    4  A    between atoms: C_15  and  C_16
REMARK    5  A    between atoms: C_22  and  C_23
REMARK    6  A    between atoms: N_30  and  C_31
REMARK    7  A    between atoms: C_31  and  C_32
REMARK    8  A    between atoms: C_32  and  C_33
REMARK    9  A    between atoms: C_33  and  C_35
REMARK   10  A    between atoms: C_35  and  C_36
REMARK   11  A    between atoms: C_36  and  C_38
REMARK   12  A    between atoms: C_38  and  C_39
REMARK                            x       y       z     vdW  Elec       q    Type
REMARK                         _______ _______ _______ _____ _____    ______ ____
ROOT
ATOM      1  C   UNL     1     -11.546  10.237  70.061  0.00  0.00    +0.041 A 
ATOM      2  N   UNL     1     -11.224  10.852  68.898  0.00  0.00    -0.330 N 
ATOM      3  C   UNL     1     -10.101  10.278  68.435  0.00  0.00    +0.060 A 
ATOM      4  C   UNL     1      -9.543   9.463  69.413  0.00  0.00    +0.021 A 
ATOM      5  C   UNL     1     -10.522   9.361  70.388  0.00  0.00    +0.068 A 
ENDROOT
BRANCH   3   6
ATOM      6  C   UNL     1      -9.674  10.341  67.032  0.00  0.00    +0.016 A 
ATOM      7  C   UNL     1      -8.639  11.153  66.606  0.00  0.00    +0.004 A 
ATOM      8  C   UNL     1      -7.773  10.757  65.594  0.00  0.00    +0.030 A 
ATOM      9  C   UNL     1      -7.841   9.464  65.095  0.00  0.00    +0.140 A 
ATOM     10  F   UNL     1      -6.747   8.759  64.734  0.00  0.00    -0.204 F 
ATOM     11  C   UNL     1      -9.064   8.823  65.248  0.00  0.00    +0.030 A 
ATOM     12  C   UNL     1      -9.971   9.266  66.202  0.00  0.00    +0.004 A 
ENDBRANCH   3   6
BRANCH   4  13
ATOM     13  C   UNL     1      -8.119   9.290  69.582  0.00  0.00    +0.002 A 
ATOM     14  C   UNL     1      -7.261  10.297  70.005  0.00  0.00    +0.000 A 
ATOM     15  C   UNL     1      -5.950   9.997  70.291  0.00  0.00    +0.000 A 
ATOM     16  C   UNL     1      -5.320   8.941  69.645  0.00  0.00    +0.000 A 
ATOM     17  C   UNL     1      -6.114   8.160  68.824  0.00  0.00    +0.000 A 
ATOM     18  C   UNL     1      -7.481   8.188  69.023  0.00  0.00    +0.000 A 
ENDBRANCH   4  13
BRANCH   1  20
ATOM     19  C   UNL     1     -13.003  10.016  70.754  0.00  0.00    +0.006 C 
ATOM     20  C   UNL     1     -12.807  10.289  70.829  0.00  0.00    +0.038 C 
ATOM     21  C   UNL     1     -12.854  11.518  71.720  0.00  0.00    +0.006 C 
ENDBRANCH   1  20
BRANCH   5  22
ATOM     22  C   UNL     1     -10.534   8.242  71.336  0.00  0.00    +0.270 C 
ATOM     23  N   UNL     1     -11.156   7.041  70.872  0.00  0.00    -0.175 NA
ATOM     24  O   UNL     1     -10.610   8.436  72.583  0.00  0.00    -0.268 OA
BRANCH  23  25
ATOM     25  C   UNL     1     -10.890   5.814  71.563  0.00  0.00    +0.074 A 
ATOM     26  C   UNL     1     -11.643   5.437  72.649  0.00  0.00    +0.017 A 
ATOM     27  C   UNL     1     -11.047   4.702  73.662  0.00  0.00    +0.001 A 
ATOM     28  C   UNL     1      -9.675   4.498  73.718  0.00  0.00    +0.000 A 
ATOM     29  C   UNL     1      -8.980   4.677  72.539  0.00  0.00    +0.001 A 
ATOM     30  C   UNL     1      -9.606   5.291  71.460  0.00  0.00    +0.017 A 
ENDBRANCH  23  25
ENDBRANCH   5  22
BRANCH   2  31
ATOM     31  C   UNL     1     -11.905  12.041  68.405  0.00  0.00    +0.108 C 
BRANCH  31  32
ATOM     32  C   UNL     1     -11.135  13.286  68.781  0.00  0.00    +0.057 C 
BRANCH  32  33
ATOM     33  C   UNL     1     -11.840  14.479  67.842  0.00  0.00    +0.156 C 
ATOM     34  O   UNL     1     -11.209  15.583  68.715  0.00  0.00    -0.223 OA
BRANCH  33  35
ATOM     35  C   UNL     1     -10.543  14.486  66.779  0.00  0.00    +0.066 C 
BRANCH  35  36
ATOM     36  C   UNL     1     -11.453  14.773  65.400  0.00  0.00    +0.166 C 
ATOM     37  O   UNL     1     -10.421  15.796  64.881  0.00  0.00    -0.222 OA
BRANCH  36  38
ATOM     38  C   UNL     1     -10.740  13.497  64.582  0.00  0.00    +0.147 C 
BRANCH  38  39
ATOM     39  C   UNL     1     -11.724  12.418  64.595  0.00  0.00    +0.367 C 
ATOM     40  O   UNL     1     -11.414  11.352  63.745  0.00  0.00    -0.246 OA
ATOM     41  O   UNL     1     -12.954  12.538  64.849  0.00  0.00    -0.246 OA
ENDBRANCH  38  39
ENDBRANCH  36  38
ENDBRANCH  35  36
ENDBRANCH  33  35
ENDBRANCH  32  33
ENDBRANCH  31  32
ENDBRANCH   2  31
TORSDOF 12
ENDMDL
