MODEL 1
REMARK VINA RESULT:      -6.9      0.000      0.000
REMARK  Name = 
REMARK  6 active torsions:
REMARK  status: ('A' for Active; 'I' for Inactive)
REMARK    1  A    between atoms: C_2  and  C_3
REMARK    2  A    between atoms: C_3  and  N_4
REMARK    3  A    between atoms: N_7  and  C_8
REMARK    4  A    between atoms: C_8  and  C_9
REMARK    5  A    between atoms: C_9  and  C_10
REMARK    6  A    between atoms: C_10  and  N_11
REMARK                            x       y       z     vdW  Elec       q    Type
REMARK                         _______ _______ _______ _____ _____    ______ ____
ROOT
ATOM      1  N   UNL     1     -11.353  12.644  68.418  0.00  0.00    -0.286 N 
ATOM      2  C   UNL     1     -10.864  12.144  67.180  0.00  0.00    +0.058 A 
ATOM      3  C   UNL     1      -9.906  11.142  67.101  0.00  0.00    +0.043 A 
ATOM      4  C   UNL     1      -9.998  10.300  66.000  0.00  0.00    +0.009 A 
ATOM      5  C   UNL     1     -10.461  10.795  64.788  0.00  0.00    +0.012 A 
ATOM      6  C   UNL     1     -11.287  11.909  64.800  0.00  0.00    +0.059 A 
ATOM      7 CL   UNL     1     -12.418  12.144  63.491  0.00  0.00    -0.082 Cl
ATOM      8  S   UNL     1      -9.493  10.345  68.658  0.00  0.00    -0.084 S 
ATOM      9  C   UNL     1     -10.888  10.646  69.750  0.00  0.00    +0.043 A 
ATOM     10  C   UNL     1     -11.462   9.611  70.474  0.00  0.00    +0.008 A 
ATOM     11  C   UNL     1     -12.472   9.949  71.359  0.00  0.00    +0.001 A 
ATOM     12  C   UNL     1     -12.966  11.248  71.360  0.00  0.00    +0.001 A 
ATOM     13  C   UNL     1     -12.336  12.262  70.646  0.00  0.00    +0.015 A 
ATOM     14  C   UNL     1     -11.344  12.643  65.976  0.00  0.00    +0.027 A 
ATOM     15  C   UNL     1     -11.577  11.838  69.562  0.00  0.00    +0.058 A 
ENDROOT
BRANCH   1  16
ATOM     16  C   UNL     1     -11.841  14.018  68.435  0.00  0.00    +0.097 C 
BRANCH  16  17
ATOM     17  C   UNL     1     -10.660  14.958  68.638  0.00  0.00    +0.039 C 
BRANCH  17  18
ATOM     18  C   UNL     1     -11.140  16.373  68.430  0.00  0.00    +0.074 C 
BRANCH  18  22
ATOM     19  N   UNL     1      -8.483  18.518  66.151  0.00  0.00    -0.268 NA
ATOM     20  C   UNL     1      -9.721  19.186  66.471  0.00  0.00    +0.090 C 
ATOM     21  C   UNL     1     -10.615  18.388  67.375  0.00  0.00    +0.090 C 
ATOM     22  N   UNL     1     -10.305  16.980  67.396  0.00  0.00    -0.270 NA
ATOM     23  C   UNL     1      -8.937  16.703  67.753  0.00  0.00    +0.090 C 
ATOM     24  C   UNL     1      -7.964  17.724  67.236  0.00  0.00    +0.090 C 
BRANCH  19  25
ATOM     25  C   UNL     1      -7.501  19.573  65.903  0.00  0.00    +0.108 C 
BRANCH  25  27
ATOM     26  O   UNL     1      -6.744  21.467  67.172  0.00  0.00    -0.219 OA
ATOM     27  C   UNL     1      -7.186  20.159  67.274  0.00  0.00    +0.199 C 
ENDBRANCH  25  27
ENDBRANCH  19  25
ENDBRANCH  18  22
ENDBRANCH  17  18
ENDBRANCH  16  17
ENDBRANCH   1  16
TORSDOF 6
ENDMDL
MODEL 2
REMARK VINA RESULT:      -6.8      3.500      6.234
REMARK  Name = 
REMARK  6 active torsions:
REMARK  status: ('A' for Active; 'I' for Inactive)
REMARK    1  A    between atoms: C_2  and  C_3
REMARK    2  A    between atoms: C_3  and  N_4
REMARK    3  A    between atoms: N_7  and  C_8
REMARK    4  A    between atoms: C_8  and  C_9
REMARK    5  A    between atoms: C_9  and  C_10
REMARK    6  A    between atoms: C_10  and  N_11
REMARK                            x       y       z     vdW  Elec       q    Type
REMARK                         _______ _______ _______ _____ _____    ______ ____
ROOT
ATOM      1  N   UNL     1     -10.632  12.678  66.646  0.00  0.00    -0.286 N 
ATOM      2  C   UNL     1     -10.538  11.780  65.548  0.00  0.00    +0.058 A 
ATOM      3  C   UNL     1     -11.203  11.993  64.347  0.00  0.00    +0.043 A 
ATOM      4  C   UNL     1     -10.568  11.515  63.208  0.00  0.00    +0.009 A 
ATOM      5  C   UNL     1      -9.795  10.363  63.280  0.00  0.00    +0.012 A 
ATOM      6  C   UNL     1      -9.246  10.009  64.503  0.00  0.00    +0.059 A 
ATOM      7 CL   UNL     1      -7.780   9.062  64.536  0.00  0.00    -0.082 Cl
ATOM      8  S   UNL     1     -12.001  13.594  64.180  0.00  0.00    -0.084 S 
ATOM      9  C   UNL     1     -11.177  14.680  65.350  0.00  0.00    +0.043 A 
ATOM     10  C   UNL     1     -10.727  15.934  64.964  0.00  0.00    +0.008 A 
ATOM     11  C   UNL     1     -10.186  16.738  65.953  0.00  0.00    +0.001 A 
ATOM     12  C   UNL     1      -9.971  16.205  67.218  0.00  0.00    +0.001 A 
ATOM     13  C   UNL     1     -10.472  14.957  67.572  0.00  0.00    +0.015 A 
ATOM     14  C   UNL     1      -9.754  10.638  65.631  0.00  0.00    +0.027 A 
ATOM     15  C   UNL     1     -10.695  14.087  66.511  0.00  0.00    +0.058 A 
ENDROOT
BRANCH   1  16
ATOM     16  C   UNL     1     -10.440  12.120  67.980  0.00  0.00    +0.097 C 
BRANCH  16  17
ATOM     17  C   UNL     1     -11.800  11.742  68.555  0.00  0.00    +0.039 C 
BRANCH  17  18
ATOM     18  C   UNL     1     -11.714  11.817  70.060  0.00  0.00    +0.074 C 
BRANCH  18  22
ATOM     19  N   UNL     1     -13.491  15.003  71.945  0.00  0.00    -0.268 NA
ATOM     20  C   UNL     1     -13.895  13.695  72.400  0.00  0.00    +0.090 C 
ATOM     21  C   UNL     1     -13.152  12.573  71.735  0.00  0.00    +0.090 C 
ATOM     22  N   UNL     1     -12.522  12.954  70.495  0.00  0.00    -0.270 NA
ATOM     23  C   UNL     1     -11.625  14.073  70.632  0.00  0.00    +0.090 C 
ATOM     24  C   UNL     1     -12.085  15.092  71.636  0.00  0.00    +0.090 C 
BRANCH  19  25
ATOM     25  C   UNL     1     -13.727  15.916  73.062  0.00  0.00    +0.108 C 
BRANCH  25  27
ATOM     26  O   UNL     1     -12.341  16.710  74.857  0.00  0.00    -0.219 OA
ATOM     27  C   UNL     1     -12.632  15.605  74.075  0.00  0.00    +0.199 C 
ENDBRANCH  25  27
ENDBRANCH  19  25
ENDBRANCH  18  22
ENDBRANCH  17  18
ENDBRANCH  16  17
ENDBRANCH   1  16
TORSDOF 6
ENDMDL
MODEL 3
REMARK VINA RESULT:      -6.6      5.184      9.072
REMARK  Name = 
REMARK  6 active torsions:
REMARK  status: ('A' for Active; 'I' for Inactive)
REMARK    1  A    between atoms: C_2  and  C_3
REMARK    2  A    between atoms: C_3  and  N_4
REMARK    3  A    between atoms: N_7  and  C_8
REMARK    4  A    between atoms: C_8  and  C_9
REMARK    5  A    between atoms: C_9  and  C_10
REMARK    6  A    between atoms: C_10  and  N_11
REMARK                            x       y       z     vdW  Elec       q    Type
REMARK                         _______ _______ _______ _____ _____    ______ ____
ROOT
ATOM      1  N   UNL     1     -11.498  12.677  68.233  0.00  0.00    -0.286 N 
ATOM      2  C   UNL     1     -11.575  13.644  69.273  0.00  0.00    +0.058 A 
ATOM      3  C   UNL     1     -10.924  14.870  69.207  0.00  0.00    +0.043 A 
ATOM      4  C   UNL     1     -11.555  15.927  69.850  0.00  0.00    +0.009 A 
ATOM      5  C   UNL     1     -12.296  15.693  71.001  0.00  0.00    +0.012 A 
ATOM      6  C   UNL     1     -12.826  14.427  71.201  0.00  0.00    +0.059 A 
ATOM      7 CL   UNL     1     -14.265  14.251  72.173  0.00  0.00    -0.082 Cl
ATOM      8  S   UNL     1     -10.171  15.259  67.623  0.00  0.00    -0.084 S 
ATOM      9  C   UNL     1     -11.016  14.236  66.411  0.00  0.00    +0.043 A 
ATOM     10  C   UNL     1     -11.503  14.783  65.232  0.00  0.00    +0.008 A 
ATOM     11  C   UNL     1     -12.058  13.905  64.316  0.00  0.00    +0.001 A 
ATOM     12  C   UNL     1     -12.249  12.578  64.680  0.00  0.00    +0.001 A 
ATOM     13  C   UNL     1     -11.712  12.064  65.855  0.00  0.00    +0.015 A 
ATOM     14  C   UNL     1     -12.327  13.399  70.413  0.00  0.00    +0.027 A 
ATOM     15  C   UNL     1     -11.473  13.001  66.854  0.00  0.00    +0.058 A 
ENDROOT
BRANCH   1  16
ATOM     16  C   UNL     1     -11.664  11.279  68.611  0.00  0.00    +0.097 C 
BRANCH  16  17
ATOM     17  C   UNL     1     -10.289  10.659  68.826  0.00  0.00    +0.039 C 
BRANCH  17  18
ATOM     18  C   UNL     1     -10.452   9.161  68.902  0.00  0.00    +0.074 C 
BRANCH  18  22
ATOM     19  N   UNL     1     -10.746   7.662  72.713  0.00  0.00    -0.268 NA
ATOM     20  C   UNL     1     -11.367   6.875  71.676  0.00  0.00    +0.090 C 
ATOM     21  C   UNL     1     -11.155   7.427  70.296  0.00  0.00    +0.090 C 
ATOM     22  N   UNL     1     -10.778   8.819  70.284  0.00  0.00    -0.270 NA
ATOM     23  C   UNL     1      -9.603   9.098  71.070  0.00  0.00    +0.090 C 
ATOM     24  C   UNL     1      -9.496   8.256  72.309  0.00  0.00    +0.090 C 
BRANCH  19  25
ATOM     25  C   UNL     1     -10.432   6.734  73.799  0.00  0.00    +0.108 C 
BRANCH  25  27
ATOM     26  O   UNL     1     -10.493   4.353  74.109  0.00  0.00    -0.219 OA
ATOM     27  C   UNL     1     -11.019   5.396  73.366  0.00  0.00    +0.199 C 
ENDBRANCH  25  27
ENDBRANCH  19  25
ENDBRANCH  18  22
ENDBRANCH  17  18
ENDBRANCH  16  17
ENDBRANCH   1  16
TORSDOF 6
ENDMDL
MODEL 4
REMARK VINA RESULT:      -6.5      1.670      1.841
REMARK  Name = 
REMARK  6 active torsions:
REMARK  status: ('A' for Active; 'I' for Inactive)
REMARK    1  A    between atoms: C_2  and  C_3
REMARK    2  A    between atoms: C_3  and  N_4
REMARK    3  A    between atoms: N_7  and  C_8
REMARK    4  A    between atoms: C_8  and  C_9
REMARK    5  A    between atoms: C_9  and  C_10
REMARK    6  A    between atoms: C_10  and  N_11
REMARK                            x       y       z     vdW  Elec       q    Type
REMARK                         _______ _______ _______ _____ _____    ______ ____
ROOT
ATOM      1  N   UNL     1     -11.434  12.538  68.507  0.00  0.00    -0.286 N 
ATOM      2  C   UNL     1     -10.936  12.087  67.254  0.00  0.00    +0.058 A 
ATOM      3  C   UNL     1      -9.938  11.127  67.145  0.00  0.00    +0.043 A 
ATOM      4  C   UNL     1     -10.004  10.307  66.026  0.00  0.00    +0.009 A 
ATOM      5  C   UNL     1     -10.498  10.810  64.830  0.00  0.00    +0.012 A 
ATOM      6  C   UNL     1     -11.369  11.888  64.873  0.00  0.00    +0.059 A 
ATOM      7 CL   UNL     1     -12.519  12.105  63.578  0.00  0.00    -0.082 Cl
ATOM      8  S   UNL     1      -9.479  10.314  68.681  0.00  0.00    -0.084 S 
ATOM      9  C   UNL     1     -10.876  10.532  69.790  0.00  0.00    +0.043 A 
ATOM     10  C   UNL     1     -11.401   9.458  70.494  0.00  0.00    +0.008 A 
ATOM     11  C   UNL     1     -12.416   9.735  71.395  0.00  0.00    +0.001 A 
ATOM     12  C   UNL     1     -12.963  11.012  71.428  0.00  0.00    +0.001 A 
ATOM     13  C   UNL     1     -12.382  12.066  70.734  0.00  0.00    +0.015 A 
ATOM     14  C   UNL     1     -11.446  12.592  66.066  0.00  0.00    +0.027 A 
ATOM     15  C   UNL     1     -11.615  11.698  69.634  0.00  0.00    +0.058 A 
ENDROOT
BRANCH   1  16
ATOM     16  C   UNL     1     -11.979  13.890  68.559  0.00  0.00    +0.097 C 
BRANCH  16  17
ATOM     17  C   UNL     1     -10.854  14.862  68.894  0.00  0.00    +0.039 C 
BRANCH  17  18
ATOM     18  C   UNL     1     -10.947  16.035  67.950  0.00  0.00    +0.074 C 
BRANCH  18  22
ATOM     19  N   UNL     1      -7.275  17.779  68.531  0.00  0.00    -0.268 NA
ATOM     20  C   UNL     1      -8.407  18.672  68.549  0.00  0.00    +0.090 C 
ATOM     21  C   UNL     1      -9.727  17.970  68.416  0.00  0.00    +0.090 C 
ATOM     22  N   UNL     1      -9.620  16.643  67.863  0.00  0.00    -0.270 NA
ATOM     23  C   UNL     1      -8.724  15.789  68.602  0.00  0.00    +0.090 C 
ATOM     24  C   UNL     1      -7.536  16.512  69.167  0.00  0.00    +0.090 C 
BRANCH  19  25
ATOM     25  C   UNL     1      -6.227  18.430  69.317  0.00  0.00    +0.108 C 
BRANCH  25  27
ATOM     26  O   UNL     1      -4.930  17.739  71.217  0.00  0.00    -0.219 OA
ATOM     27  C   UNL     1      -5.504  17.297  70.037  0.00  0.00    +0.199 C 
ENDBRANCH  25  27
ENDBRANCH  19  25
ENDBRANCH  18  22
ENDBRANCH  17  18
ENDBRANCH  16  17
ENDBRANCH   1  16
TORSDOF 6
ENDMDL
MODEL 5
REMARK VINA RESULT:      -6.4      2.610      4.446
REMARK  Name = 
REMARK  6 active torsions:
REMARK  status: ('A' for Active; 'I' for Inactive)
REMARK    1  A    between atoms: C_2  and  C_3
REMARK    2  A    between atoms: C_3  and  N_4
REMARK    3  A    between atoms: N_7  and  C_8
REMARK    4  A    between atoms: C_8  and  C_9
REMARK    5  A    between atoms: C_9  and  C_10
REMARK    6  A    between atoms: C_10  and  N_11
REMARK                            x       y       z     vdW  Elec       q    Type
REMARK                         _______ _______ _______ _____ _____    ______ ____
ROOT
ATOM      1  N   UNL     1     -11.147  11.507  69.630  0.00  0.00    -0.286 N 
ATOM      2  C   UNL     1     -12.106  12.257  70.364  0.00  0.00    +0.058 A 
ATOM      3  C   UNL     1     -13.091  11.660  71.141  0.00  0.00    +0.043 A 
ATOM      4  C   UNL     1     -13.487  12.368  72.268  0.00  0.00    +0.009 A 
ATOM      5  C   UNL     1     -13.488  13.756  72.248  0.00  0.00    +0.012 A 
ATOM      6  C   UNL     1     -12.641  14.406  71.361  0.00  0.00    +0.059 A 
ATOM      7 CL   UNL     1     -12.082  16.014  71.743  0.00  0.00    -0.082 Cl
ATOM      8  S   UNL     1     -12.934   9.882  71.352  0.00  0.00    -0.084 S 
ATOM      9  C   UNL     1     -11.211   9.497  71.022  0.00  0.00    +0.043 A 
ATOM     10  C   UNL     1     -10.480   8.700  71.892  0.00  0.00    +0.008 A 
ATOM     11  C   UNL     1      -9.187   8.380  71.513  0.00  0.00    +0.001 A 
ATOM     12  C   UNL     1      -8.639   8.991  70.392  0.00  0.00    +0.001 A 
ATOM     13  C   UNL     1      -9.418   9.752  69.528  0.00  0.00    +0.015 A 
ATOM     14  C   UNL     1     -12.087  13.645  70.342  0.00  0.00    +0.027 A 
ATOM     15  C   UNL     1     -10.562  10.303  70.095  0.00  0.00    +0.058 A 
ENDROOT
BRANCH   1  16
ATOM     16  C   UNL     1     -10.591  12.127  68.433  0.00  0.00    +0.097 C 
BRANCH  16  17
ATOM     17  C   UNL     1     -11.537  11.879  67.265  0.00  0.00    +0.039 C 
BRANCH  17  18
ATOM     18  C   UNL     1     -11.769  13.192  66.557  0.00  0.00    +0.074 C 
BRANCH  18  22
ATOM     19  N   UNL     1      -9.210  16.326  67.253  0.00  0.00    -0.268 NA
ATOM     20  C   UNL     1      -8.904  15.506  66.108  0.00  0.00    +0.090 C 
ATOM     21  C   UNL     1      -9.919  14.429  65.854  0.00  0.00    +0.090 C 
ATOM     22  N   UNL     1     -10.737  14.125  67.002  0.00  0.00    -0.270 NA
ATOM     23  C   UNL     1     -11.421  15.277  67.534  0.00  0.00    +0.090 C 
ATOM     24  C   UNL     1     -10.623  16.546  67.439  0.00  0.00    +0.090 C 
BRANCH  19  25
ATOM     25  C   UNL     1      -8.618  17.637  66.988  0.00  0.00    +0.108 C 
BRANCH  25  27
ATOM     26  O   UNL     1      -7.074  18.369  65.300  0.00  0.00    -0.219 OA
ATOM     27  C   UNL     1      -7.347  17.351  66.197  0.00  0.00    +0.199 C 
ENDBRANCH  25  27
ENDBRANCH  19  25
ENDBRANCH  18  22
ENDBRANCH  17  18
ENDBRANCH  16  17
ENDBRANCH   1  16
TORSDOF 6
ENDMDL
MODEL 6
REMARK VINA RESULT:      -6.3      4.146      7.600
REMARK  Name = 
REMARK  6 active torsions:
REMARK  status: ('A' for Active; 'I' for Inactive)
REMARK    1  A    between atoms: C_2  and  C_3
REMARK    2  A    between atoms: C_3  and  N_4
REMARK    3  A    between atoms: N_7  and  C_8
REMARK    4  A    between atoms: C_8  and  C_9
REMARK    5  A    between atoms: C_9  and  C_10
REMARK    6  A    between atoms: C_10  and  N_11
REMARK                            x       y       z     vdW  Elec       q    Type
REMARK                         _______ _______ _______ _____ _____    ______ ____
ROOT
ATOM      1  N   UNL     1      -8.553  16.468  68.455  0.00  0.00    -0.286 N 
ATOM      2  C   UNL     1      -7.192  16.066  68.532  0.00  0.00    +0.058 A 
ATOM      3  C   UNL     1      -6.281  16.303  67.510  0.00  0.00    +0.043 A 
ATOM      4  C   UNL     1      -4.965  16.508  67.905  0.00  0.00    +0.009 A 
ATOM      5  C   UNL     1      -4.469  15.848  69.022  0.00  0.00    +0.012 A 
ATOM      6  C   UNL     1      -5.362  15.433  69.998  0.00  0.00    +0.059 A 
ATOM      7 CL   UNL     1      -4.806  15.264  71.644  0.00  0.00    -0.082 Cl
ATOM      8  S   UNL     1      -6.869  17.361  66.182  0.00  0.00    -0.084 S 
ATOM      9  C   UNL     1      -8.233  18.306  66.873  0.00  0.00    +0.043 A 
ATOM     10  C   UNL     1      -8.301  19.682  66.709  0.00  0.00    +0.008 A 
ATOM     11  C   UNL     1      -9.433  20.316  67.195  0.00  0.00    +0.001 A 
ATOM     12  C   UNL     1     -10.344  19.590  67.951  0.00  0.00    +0.001 A 
ATOM     13  C   UNL     1     -10.256  18.206  68.058  0.00  0.00    +0.015 A 
ATOM     14  C   UNL     1      -6.708  15.416  69.659  0.00  0.00    +0.027 A 
ATOM     15  C   UNL     1      -8.987  17.677  67.856  0.00  0.00    +0.058 A 
ENDROOT
BRANCH   1  16
ATOM     16  C   UNL     1      -9.521  15.691  69.220  0.00  0.00    +0.097 C 
BRANCH  16  17
ATOM     17  C   UNL     1     -10.075  14.584  68.332  0.00  0.00    +0.039 C 
BRANCH  17  18
ATOM     18  C   UNL     1     -11.582  14.629  68.404  0.00  0.00    +0.074 C 
BRANCH  18  22
ATOM     19  N   UNL     1     -12.260  12.912  64.737  0.00  0.00    -0.268 NA
ATOM     20  C   UNL     1     -11.804  14.280  64.718  0.00  0.00    +0.090 C 
ATOM     21  C   UNL     1     -11.492  14.827  66.081  0.00  0.00    +0.090 C 
ATOM     22  N   UNL     1     -12.105  14.084  67.154  0.00  0.00    -0.270 NA
ATOM     23  C   UNL     1     -11.770  12.683  67.140  0.00  0.00    +0.090 C 
ATOM     24  C   UNL     1     -11.629  12.112  65.758  0.00  0.00    +0.090 C 
BRANCH  19  25
ATOM     25  C   UNL     1     -11.868  12.330  63.454  0.00  0.00    +0.108 C 
BRANCH  25  27
ATOM     26  O   UNL     1      -9.669  11.572  62.853  0.00  0.00    -0.219 OA
ATOM     27  C   UNL     1     -10.692  11.413  63.772  0.00  0.00    +0.199 C 
ENDBRANCH  25  27
ENDBRANCH  19  25
ENDBRANCH  18  22
ENDBRANCH  17  18
ENDBRANCH  16  17
ENDBRANCH   1  16
TORSDOF 6
ENDMDL
MODEL 7
REMARK VINA RESULT:      -6.3      4.951      8.813
REMARK  Name = 
REMARK  6 active torsions:
REMARK  status: ('A' for Active; 'I' for Inactive)
REMARK    1  A    between atoms: C_2  and  C_3
REMARK    2  A    between atoms: C_3  and  N_4
REMARK    3  A    between atoms: N_7  and  C_8
REMARK    4  A    between atoms: C_8  and  C_9
REMARK    5  A    between atoms: C_9  and  C_10
REMARK    6  A    between atoms: C_10  and  N_11
REMARK                            x       y       z     vdW  Elec       q    Type
REMARK                         _______ _______ _______ _____ _____    ______ ____
ROOT
ATOM      1  N   UNL     1     -11.547  12.810  68.453  0.00  0.00    -0.286 N 
ATOM      2  C   UNL     1     -11.526  13.786  69.486  0.00  0.00    +0.058 A 
ATOM      3  C   UNL     1     -10.761  14.943  69.409  0.00  0.00    +0.043 A 
ATOM      4  C   UNL     1     -11.284  16.060  70.048  0.00  0.00    +0.009 A 
ATOM      5  C   UNL     1     -12.038  15.905  71.204  0.00  0.00    +0.012 A 
ATOM      6  C   UNL     1     -12.686  14.698  71.415  0.00  0.00    +0.059 A 
ATOM      7 CL   UNL     1     -14.131  14.667  72.395  0.00  0.00    -0.082 Cl
ATOM      8  S   UNL     1      -9.982  15.249  67.818  0.00  0.00    -0.084 S 
ATOM      9  C   UNL     1     -10.928  14.304  66.618  0.00  0.00    +0.043 A 
ATOM     10  C   UNL     1     -11.366  14.887  65.438  0.00  0.00    +0.008 A 
ATOM     11  C   UNL     1     -12.008  14.060  64.530  0.00  0.00    +0.001 A 
ATOM     12  C   UNL     1     -12.324  12.760  64.904  0.00  0.00    +0.001 A 
ATOM     13  C   UNL     1     -11.832  12.205  66.080  0.00  0.00    +0.015 A 
ATOM     14  C   UNL     1     -12.292  13.622  70.632  0.00  0.00    +0.027 A 
ATOM     15  C   UNL     1     -11.499  13.121  67.071  0.00  0.00    +0.058 A 
ENDROOT
BRANCH   1  16
ATOM     16  C   UNL     1     -11.845  11.436  68.842  0.00  0.00    +0.097 C 
BRANCH  16  17
ATOM     17  C   UNL     1     -10.539  10.723  69.171  0.00  0.00    +0.039 C 
BRANCH  17  18
ATOM     18  C   UNL     1     -10.755   9.892  70.412  0.00  0.00    +0.074 C 
BRANCH  18  22
ATOM     19  N   UNL     1      -9.662   6.178  69.045  0.00  0.00    -0.268 NA
ATOM     20  C   UNL     1     -10.898   6.238  69.785  0.00  0.00    +0.090 C 
ATOM     21  C   UNL     1     -11.289   7.631  70.186  0.00  0.00    +0.090 C 
ATOM     22  N   UNL     1     -10.192   8.567  70.163  0.00  0.00    -0.270 NA
ATOM     23  C   UNL     1      -9.526   8.632  68.887  0.00  0.00    +0.090 C 
ATOM     24  C   UNL     1      -9.458   7.310  68.176  0.00  0.00    +0.090 C 
BRANCH  19  25
ATOM     25  C   UNL     1      -9.759   5.004  68.179  0.00  0.00    +0.108 C 
BRANCH  25  27
ATOM     26  O   UNL     1     -10.398   4.644  65.891  0.00  0.00    -0.219 OA
ATOM     27  C   UNL     1     -10.615   5.447  66.997  0.00  0.00    +0.199 C 
ENDBRANCH  25  27
ENDBRANCH  19  25
ENDBRANCH  18  22
ENDBRANCH  17  18
ENDBRANCH  16  17
ENDBRANCH   1  16
TORSDOF 6
ENDMDL
MODEL 8
REMARK VINA RESULT:      -6.2      3.717      6.001
REMARK  Name = 
REMARK  6 active torsions:
REMARK  status: ('A' for Active; 'I' for Inactive)
REMARK    1  A    between atoms: C_2  and  C_3
REMARK    2  A    between atoms: C_3  and  N_4
REMARK    3  A    between atoms: N_7  and  C_8
REMARK    4  A    between atoms: C_8  and  C_9
REMARK    5  A    between atoms: C_9  and  C_10
REMARK    6  A    between atoms: C_10  and  N_11
REMARK                            x       y       z     vdW  Elec       q    Type
REMARK                         _______ _______ _______ _____ _____    ______ ____
ROOT
ATOM      1  N   UNL     1      -9.962  13.490  66.124  0.00  0.00    -0.286 N 
ATOM      2  C   UNL     1      -8.886  14.120  66.807  0.00  0.00    +0.058 A 
ATOM      3  C   UNL     1      -8.011  13.424  67.633  0.00  0.00    +0.043 A 
ATOM      4  C   UNL     1      -6.710  13.908  67.683  0.00  0.00    +0.009 A 
ATOM      5  C   UNL     1      -6.474  15.270  67.558  0.00  0.00    +0.012 A 
ATOM      6  C   UNL     1      -7.408  16.046  66.888  0.00  0.00    +0.059 A 
ATOM      7 CL   UNL     1      -6.889  17.517  66.106  0.00  0.00    -0.082 Cl
ATOM      8  S   UNL     1      -8.177  11.635  67.598  0.00  0.00    -0.084 S 
ATOM      9  C   UNL     1      -8.992  11.245  66.045  0.00  0.00    +0.043 A 
ATOM     10  C   UNL     1      -8.495  10.257  65.208  0.00  0.00    +0.008 A 
ATOM     11  C   UNL     1      -9.238   9.961  64.077  0.00  0.00    +0.001 A 
ATOM     12  C   UNL     1     -10.328  10.760  63.754  0.00  0.00    +0.001 A 
ATOM     13  C   UNL     1     -10.814  11.715  64.641  0.00  0.00    +0.015 A 
ATOM     14  C   UNL     1      -8.656  15.481  66.664  0.00  0.00    +0.027 A 
ATOM     15  C   UNL     1      -9.888  12.191  65.562  0.00  0.00    +0.058 A 
ENDROOT
BRANCH   1  16
ATOM     16  C   UNL     1     -11.124  14.313  65.811  0.00  0.00    +0.097 C 
BRANCH  16  17
ATOM     17  C   UNL     1     -12.258  13.944  66.759  0.00  0.00    +0.039 C 
BRANCH  17  18
ATOM     18  C   UNL     1     -11.654  13.473  68.059  0.00  0.00    +0.074 C 
BRANCH  18  22
ATOM     19  N   UNL     1     -12.429  15.749  71.387  0.00  0.00    -0.268 NA
ATOM     20  C   UNL     1     -12.468  14.320  71.578  0.00  0.00    +0.090 C 
ATOM     21  C   UNL     1     -12.095  13.541  70.350  0.00  0.00    +0.090 C 
ATOM     22  N   UNL     1     -12.201  14.303  69.130  0.00  0.00    -0.270 NA
ATOM     23  C   UNL     1     -11.427  15.519  69.149  0.00  0.00    +0.090 C 
ATOM     24  C   UNL     1     -11.380  16.179  70.497  0.00  0.00    +0.090 C 
BRANCH  19  25
ATOM     25  C   UNL     1     -12.126  16.328  72.695  0.00  0.00    +0.108 C 
BRANCH  25  27
ATOM     26  O   UNL     1     -12.523  15.785  75.002  0.00  0.00    -0.219 OA
ATOM     27  C   UNL     1     -12.586  15.289  73.711  0.00  0.00    +0.199 C 
ENDBRANCH  25  27
ENDBRANCH  19  25
ENDBRANCH  18  22
ENDBRANCH  17  18
ENDBRANCH  16  17
ENDBRANCH   1  16
TORSDOF 6
ENDMDL
MODEL 9
REMARK VINA RESULT:      -6.2      3.792      5.416
REMARK  Name = 
REMARK  6 active torsions:
REMARK  status: ('A' for Active; 'I' for Inactive)
REMARK    1  A    between atoms: C_2  and  C_3
REMARK    2  A    between atoms: C_3  and  N_4
REMARK    3  A    between atoms: N_7  and  C_8
REMARK    4  A    between atoms: C_8  and  C_9
REMARK    5  A    between atoms: C_9  and  C_10
REMARK    6  A    between atoms: C_10  and  N_11
REMARK                            x       y       z     vdW  Elec       q    Type
REMARK                         _______ _______ _______ _____ _____    ______ ____
ROOT
ATOM      1  N   UNL     1     -10.367   8.739  69.201  0.00  0.00    -0.286 N 
ATOM      2  C   UNL     1      -9.963   7.386  69.032  0.00  0.00    +0.058 A 
ATOM      3  C   UNL     1      -9.642   6.560  70.102  0.00  0.00    +0.043 A 
ATOM      4  C   UNL     1      -9.925   5.211  69.933  0.00  0.00    +0.009 A 
ATOM      5  C   UNL     1      -9.831   4.637  68.672  0.00  0.00    +0.012 A 
ATOM      6  C   UNL     1      -9.973   5.454  67.560  0.00  0.00    +0.059 A 
ATOM      7 CL   UNL     1     -10.554   4.764  66.066  0.00  0.00    -0.082 Cl
ATOM      8  S   UNL     1      -9.996   7.233  71.730  0.00  0.00    -0.084 S 
ATOM      9  C   UNL     1     -11.235   8.509  71.477  0.00  0.00    +0.043 A 
ATOM     10  C   UNL     1     -12.378   8.557  72.261  0.00  0.00    +0.008 A 
ATOM     11  C   UNL     1     -13.234   9.628  72.057  0.00  0.00    +0.001 A 
ATOM     12  C   UNL     1     -13.000  10.489  70.992  0.00  0.00    +0.001 A 
ATOM     13  C   UNL     1     -11.823  10.426  70.256  0.00  0.00    +0.015 A 
ATOM     14  C   UNL     1      -9.884   6.824  67.766  0.00  0.00    +0.027 A 
ATOM     15  C   UNL     1     -11.183   9.192  70.268  0.00  0.00    +0.058 A 
ENDROOT
BRANCH   1  16
ATOM     16  C   UNL     1     -10.095   9.657  68.101  0.00  0.00    +0.097 C 
BRANCH  16  17
ATOM     17  C   UNL     1      -8.798  10.402  68.391  0.00  0.00    +0.039 C 
BRANCH  17  18
ATOM     18  C   UNL     1      -8.500  11.305  67.220  0.00  0.00    +0.074 C 
BRANCH  18  22
ATOM     19  N   UNL     1     -11.623  13.326  65.481  0.00  0.00    -0.268 NA
ATOM     20  C   UNL     1     -11.200  13.810  66.771  0.00  0.00    +0.090 C 
ATOM     21  C   UNL     1     -10.003  13.088  67.319  0.00  0.00    +0.090 C 
ATOM     22  N   UNL     1      -9.774  11.803  66.706  0.00  0.00    -0.270 NA
ATOM     23  C   UNL     1      -9.646  11.871  65.273  0.00  0.00    +0.090 C 
ATOM     24  C   UNL     1     -10.529  12.908  64.639  0.00  0.00    +0.090 C 
BRANCH  19  25
ATOM     25  C   UNL     1     -12.255  14.459  64.805  0.00  0.00    +0.108 C 
BRANCH  25  27
ATOM     26  O   UNL     1     -11.586  16.597  63.939  0.00  0.00    -0.219 OA
ATOM     27  C   UNL     1     -11.172  15.527  64.713  0.00  0.00    +0.199 C 
ENDBRANCH  25  27
ENDBRANCH  19  25
ENDBRANCH  18  22
ENDBRANCH  17  18
ENDBRANCH  16  17
ENDBRANCH   1  16
TORSDOF 6
ENDMDL
