MODEL 1
REMARK VINA RESULT:      -7.1      0.000      0.000
REMARK  Name = 
REMARK  4 active torsions:
REMARK  status: ('A' for Active; 'I' for Inactive)
REMARK    1  A    between atoms: C_2  and  C_4
REMARK    2  A    between atoms: C_6  and  N_7
REMARK    3  A    between atoms: N_8  and  C_9
REMARK    4  A    between atoms: C_14  and  C_15
REMARK                            x       y       z     vdW  Elec       q    Type
REMARK                         _______ _______ _______ _____ _____    ______ ____
ROOT
ATOM      1  N   UNL     1     -10.989  17.577  68.332  0.00  0.00    -0.148 NA
ATOM      2  N   UNL     1     -10.982  17.017  69.466  0.00  0.00    -0.148 NA
ENDROOT
BRANCH   1   8
ATOM      3  C   UNL     1      -7.792  19.319  68.377  0.00  0.00    +0.120 A 
ATOM      4  C   UNL     1      -8.035  20.422  67.572  0.00  0.00    +0.202 A 
ATOM      5  O   UNL     1      -6.956  21.171  67.094  0.00  0.00    -0.286 OA
ATOM      6  C   UNL     1      -9.253  20.498  66.920  0.00  0.00    +0.044 A 
ATOM      7  C   UNL     1     -10.178  19.475  67.069  0.00  0.00    +0.024 A 
ATOM      8  C   UNL     1      -9.905  18.401  67.883  0.00  0.00    +0.103 A 
ATOM      9  C   UNL     1      -8.603  18.197  68.272  0.00  0.00    +0.031 A 
BRANCH   3  11
ATOM     10  O   UNL     1      -6.482  20.043  70.177  0.00  0.00    -0.240 OA
ATOM     11  C   UNL     1      -6.577  19.268  69.196  0.00  0.00    +0.391 C 
ATOM     12  O   UNL     1      -5.506  18.553  68.677  0.00  0.00    -0.240 OA
ENDBRANCH   3  11
ENDBRANCH   1   8
BRANCH   2  13
ATOM     13  C   UNL     1     -11.688  15.786  69.615  0.00  0.00    +0.103 A 
ATOM     14  C   UNL     1     -12.542  15.538  70.676  0.00  0.00    +0.031 A 
ATOM     15  C   UNL     1     -12.746  14.238  71.065  0.00  0.00    +0.120 A 
ATOM     16  C   UNL     1     -12.255  13.204  70.285  0.00  0.00    +0.202 A 
ATOM     17  O   UNL     1     -12.103  11.944  70.825  0.00  0.00    -0.286 OA
ATOM     18  C   UNL     1     -11.933  13.525  68.976  0.00  0.00    +0.044 A 
ATOM     19  C   UNL     1     -11.690  14.839  68.599  0.00  0.00    +0.024 A 
BRANCH  15  20
ATOM     20  C   UNL     1     -13.317  14.010  72.394  0.00  0.00    +0.391 C 
ATOM     21  O   UNL     1     -14.496  13.296  72.490  0.00  0.00    -0.240 OA
ATOM     22  O   UNL     1     -12.815  14.562  73.407  0.00  0.00    -0.240 OA
ENDBRANCH  15  20
ENDBRANCH   2  13
TORSDOF 4
ENDMDL
MODEL 2
REMARK VINA RESULT:      -7.0      6.861      7.992
REMARK  Name = 
REMARK  4 active torsions:
REMARK  status: ('A' for Active; 'I' for Inactive)
REMARK    1  A    between atoms: C_2  and  C_4
REMARK    2  A    between atoms: C_6  and  N_7
REMARK    3  A    between atoms: N_8  and  C_9
REMARK    4  A    between atoms: C_14  and  C_15
REMARK                            x       y       z     vdW  Elec       q    Type
REMARK                         _______ _______ _______ _____ _____    ______ ____
ROOT
ATOM      1  N   UNL     1     -11.919  11.234  68.294  0.00  0.00    -0.148 NA
ATOM      2  N   UNL     1     -11.278  11.135  69.379  0.00  0.00    -0.148 NA
ENDROOT
BRANCH   1   8
ATOM      3  C   UNL     1     -11.522  12.148  64.792  0.00  0.00    +0.120 A 
ATOM      4  C   UNL     1     -10.376  11.457  64.425  0.00  0.00    +0.202 A 
ATOM      5  O   UNL     1      -9.724  11.796  63.236  0.00  0.00    -0.286 OA
ATOM      6  C   UNL     1      -9.678  10.781  65.411  0.00  0.00    +0.044 A 
ATOM      7  C   UNL     1     -10.124  10.829  66.724  0.00  0.00    +0.024 A 
ATOM      8  C   UNL     1     -11.269  11.517  67.048  0.00  0.00    +0.103 A 
ATOM      9  C   UNL     1     -11.768  12.412  66.133  0.00  0.00    +0.031 A 
BRANCH   3  11
ATOM     10  O   UNL     1     -12.508  14.002  63.756  0.00  0.00    -0.240 OA
ATOM     11  C   UNL     1     -12.368  12.756  63.760  0.00  0.00    +0.391 C 
ATOM     12  O   UNL     1     -13.166  11.892  63.023  0.00  0.00    -0.240 OA
ENDBRANCH   3  11
ENDBRANCH   1   8
BRANCH   2  13
ATOM     13  C   UNL     1     -11.799  10.279  70.395  0.00  0.00    +0.103 A 
ATOM     14  C   UNL     1     -11.332   8.992  70.598  0.00  0.00    +0.031 A 
ATOM     15  C   UNL     1     -12.177   8.068  71.161  0.00  0.00    +0.120 A 
ATOM     16  C   UNL     1     -13.393   8.479  71.682  0.00  0.00    +0.202 A 
ATOM     17  O   UNL     1     -14.400   7.560  71.891  0.00  0.00    -0.286 OA
ATOM     18  C   UNL     1     -13.515   9.832  71.954  0.00  0.00    +0.044 A 
ATOM     19  C   UNL     1     -12.681  10.763  71.351  0.00  0.00    +0.024 A 
BRANCH  15  20
ATOM     20  C   UNL     1     -11.829   6.653  71.014  0.00  0.00    +0.391 C 
ATOM     21  O   UNL     1     -11.571   5.917  72.155  0.00  0.00    -0.240 OA
ATOM     22  O   UNL     1     -11.642   6.157  69.874  0.00  0.00    -0.240 OA
ENDBRANCH  15  20
ENDBRANCH   2  13
TORSDOF 4
ENDMDL
MODEL 3
REMARK VINA RESULT:      -6.9      4.525      6.259
REMARK  Name = 
REMARK  4 active torsions:
REMARK  status: ('A' for Active; 'I' for Inactive)
REMARK    1  A    between atoms: C_2  and  C_4
REMARK    2  A    between atoms: C_6  and  N_7
REMARK    3  A    between atoms: N_8  and  C_9
REMARK    4  A    between atoms: C_14  and  C_15
REMARK                            x       y       z     vdW  Elec       q    Type
REMARK                         _______ _______ _______ _____ _____    ______ ____
ROOT
ATOM      1  N   UNL     1     -10.969  13.010  68.727  0.00  0.00    -0.148 NA
ATOM      2  N   UNL     1     -11.465  11.847  68.738  0.00  0.00    -0.148 NA
ENDROOT
BRANCH   1   8
ATOM      3  C   UNL     1     -11.343  14.165  65.295  0.00  0.00    +0.120 A 
ATOM      4  C   UNL     1     -10.849  15.460  65.354  0.00  0.00    +0.202 A 
ATOM      5  O   UNL     1     -11.110  16.340  64.299  0.00  0.00    -0.286 OA
ATOM      6  C   UNL     1     -10.505  15.971  66.593  0.00  0.00    +0.044 A 
ATOM      7  C   UNL     1     -10.680  15.195  67.729  0.00  0.00    +0.024 A 
ATOM      8  C   UNL     1     -11.165  13.912  67.631  0.00  0.00    +0.103 A 
ATOM      9  C   UNL     1     -11.772  13.538  66.457  0.00  0.00    +0.031 A 
BRANCH   3  11
ATOM     10  O   UNL     1     -12.669  13.763  63.407  0.00  0.00    -0.240 OA
ATOM     11  C   UNL     1     -11.584  13.535  63.993  0.00  0.00    +0.391 C 
ATOM     12  O   UNL     1     -10.710  12.522  63.622  0.00  0.00    -0.240 OA
ENDBRANCH   3  11
ENDBRANCH   1   8
BRANCH   2  13
ATOM     13  C   UNL     1     -11.789  11.263  69.999  0.00  0.00    +0.103 A 
ATOM     14  C   UNL     1     -11.239  10.068  70.432  0.00  0.00    +0.031 A 
ATOM     15  C   UNL     1     -11.948   9.305  71.325  0.00  0.00    +0.120 A 
ATOM     16  C   UNL     1     -13.091   9.823  71.914  0.00  0.00    +0.202 A 
ATOM     17  O   UNL     1     -14.013   8.976  72.492  0.00  0.00    -0.286 OA
ATOM     18  C   UNL     1     -13.233  11.200  71.867  0.00  0.00    +0.044 A 
ATOM     19  C   UNL     1     -12.541  11.961  70.934  0.00  0.00    +0.024 A 
BRANCH  15  20
ATOM     20  C   UNL     1     -11.562   7.900  71.473  0.00  0.00    +0.391 C 
ATOM     21  O   UNL     1     -11.737   7.053  70.395  0.00  0.00    -0.240 OA
ATOM     22  O   UNL     1     -11.203   7.451  72.591  0.00  0.00    -0.240 OA
ENDBRANCH  15  20
ENDBRANCH   2  13
TORSDOF 4
ENDMDL
MODEL 4
REMARK VINA RESULT:      -6.9      4.117      5.668
REMARK  Name = 
REMARK  4 active torsions:
REMARK  status: ('A' for Active; 'I' for Inactive)
REMARK    1  A    between atoms: C_2  and  C_4
REMARK    2  A    between atoms: C_6  and  N_7
REMARK    3  A    between atoms: N_8  and  C_9
REMARK    4  A    between atoms: C_14  and  C_15
REMARK                            x       y       z     vdW  Elec       q    Type
REMARK                         _______ _______ _______ _____ _____    ______ ____
ROOT
ATOM      1  N   UNL     1     -10.774  12.239  67.534  0.00  0.00    -0.148 NA
ATOM      2  N   UNL     1     -11.776  11.570  67.918  0.00  0.00    -0.148 NA
ENDROOT
BRANCH   1   8
ATOM      3  C   UNL     1     -10.489  15.457  65.854  0.00  0.00    +0.120 A 
ATOM      4  C   UNL     1     -11.537  15.420  64.946  0.00  0.00    +0.202 A 
ATOM      5  O   UNL     1     -11.570  16.349  63.901  0.00  0.00    -0.286 OA
ATOM      6  C   UNL     1     -12.259  14.245  64.829  0.00  0.00    +0.044 A 
ATOM      7  C   UNL     1     -11.907  13.144  65.597  0.00  0.00    +0.024 A 
ATOM      8  C   UNL     1     -10.868  13.221  66.493  0.00  0.00    +0.103 A 
ATOM      9  C   UNL     1      -9.991  14.272  66.379  0.00  0.00    +0.031 A 
BRANCH   3  11
ATOM     10  O   UNL     1      -8.581  16.813  65.805  0.00  0.00    -0.240 OA
ATOM     11  C   UNL     1      -9.793  16.721  66.113  0.00  0.00    +0.391 C 
ATOM     12  O   UNL     1     -10.450  17.639  66.921  0.00  0.00    -0.240 OA
ENDBRANCH   3  11
ENDBRANCH   1   8
BRANCH   2  13
ATOM     13  C   UNL     1     -11.809  11.122  69.272  0.00  0.00    +0.103 A 
ATOM     14  C   UNL     1     -11.182   9.961  69.690  0.00  0.00    +0.031 A 
ATOM     15  C   UNL     1     -11.674   9.309  70.793  0.00  0.00    +0.120 A 
ATOM     16  C   UNL     1     -12.651   9.915  71.568  0.00  0.00    +0.202 A 
ATOM     17  O   UNL     1     -13.422   9.155  72.423  0.00  0.00    -0.286 OA
ATOM     18  C   UNL     1     -12.792  11.284  71.414  0.00  0.00    +0.044 A 
ATOM     19  C   UNL     1     -12.325  11.930  70.277  0.00  0.00    +0.024 A 
BRANCH  15  20
ATOM     20  C   UNL     1     -11.273   7.915  70.993  0.00  0.00    +0.391 C 
ATOM     21  O   UNL     1     -12.075   6.919  70.472  0.00  0.00    -0.240 OA
ATOM     22  O   UNL     1     -10.294   7.632  71.730  0.00  0.00    -0.240 OA
ENDBRANCH  15  20
ENDBRANCH   2  13
TORSDOF 4
ENDMDL
MODEL 5
REMARK VINA RESULT:      -6.9      4.453      7.345
REMARK  Name = 
REMARK  4 active torsions:
REMARK  status: ('A' for Active; 'I' for Inactive)
REMARK    1  A    between atoms: C_2  and  C_4
REMARK    2  A    between atoms: C_6  and  N_7
REMARK    3  A    between atoms: N_8  and  C_9
REMARK    4  A    between atoms: C_14  and  C_15
REMARK                            x       y       z     vdW  Elec       q    Type
REMARK                         _______ _______ _______ _____ _____    ______ ____
ROOT
ATOM      1  N   UNL     1     -11.197  14.138  67.973  0.00  0.00    -0.148 NA
ATOM      2  N   UNL     1     -12.133  13.929  67.150  0.00  0.00    -0.148 NA
ENDROOT
BRANCH   1   8
ATOM      3  C   UNL     1     -13.003  14.717  71.082  0.00  0.00    +0.120 A 
ATOM      4  C   UNL     1     -12.393  15.859  71.579  0.00  0.00    +0.202 A 
ATOM      5  O   UNL     1     -12.603  16.219  72.914  0.00  0.00    -0.286 OA
ATOM      6  C   UNL     1     -11.288  16.353  70.910  0.00  0.00    +0.044 A 
ATOM      7  C   UNL     1     -10.811  15.691  69.788  0.00  0.00    +0.024 A 
ATOM      8  C   UNL     1     -11.447  14.566  69.318  0.00  0.00    +0.103 A 
ATOM      9  C   UNL     1     -12.337  13.931  70.149  0.00  0.00    +0.031 A 
BRANCH   3  11
ATOM     10  O   UNL     1     -15.306  14.899  71.461  0.00  0.00    -0.240 OA
ATOM     11  C   UNL     1     -14.258  14.243  71.673  0.00  0.00    +0.391 C 
ATOM     12  O   UNL     1     -14.155  13.253  72.640  0.00  0.00    -0.240 OA
ENDBRANCH   3  11
ENDBRANCH   1   8
BRANCH   2  13
ATOM     13  C   UNL     1     -11.926  12.958  66.125  0.00  0.00    +0.103 A 
ATOM     14  C   UNL     1     -11.224  11.784  66.339  0.00  0.00    +0.031 A 
ATOM     15  C   UNL     1     -10.601  11.188  65.271  0.00  0.00    +0.120 A 
ATOM     16  C   UNL     1     -10.841  11.656  63.988  0.00  0.00    +0.202 A 
ATOM     17  O   UNL     1      -9.965  11.351  62.968  0.00  0.00    -0.286 OA
ATOM     18  C   UNL     1     -11.977  12.431  63.823  0.00  0.00    +0.044 A 
ATOM     19  C   UNL     1     -12.578  13.063  64.904  0.00  0.00    +0.024 A 
BRANCH  15  20
ATOM     20  C   UNL     1      -9.562  10.198  65.558  0.00  0.00    +0.391 C 
ATOM     21  O   UNL     1      -8.242  10.605  65.541  0.00  0.00    -0.240 OA
ATOM     22  O   UNL     1      -9.857   8.982  65.689  0.00  0.00    -0.240 OA
ENDBRANCH  15  20
ENDBRANCH   2  13
TORSDOF 4
ENDMDL
MODEL 6
REMARK VINA RESULT:      -6.8      1.513      7.997
REMARK  Name = 
REMARK  4 active torsions:
REMARK  status: ('A' for Active; 'I' for Inactive)
REMARK    1  A    between atoms: C_2  and  C_4
REMARK    2  A    between atoms: C_6  and  N_7
REMARK    3  A    between atoms: N_8  and  C_9
REMARK    4  A    between atoms: C_14  and  C_15
REMARK                            x       y       z     vdW  Elec       q    Type
REMARK                         _______ _______ _______ _____ _____    ______ ____
ROOT
ATOM      1  N   UNL     1     -10.854  15.866  68.188  0.00  0.00    -0.148 NA
ATOM      2  N   UNL     1      -9.834  16.510  68.565  0.00  0.00    -0.148 NA
ENDROOT
BRANCH   1   8
ATOM      3  C   UNL     1     -12.585  14.984  71.267  0.00  0.00    +0.120 A 
ATOM      4  C   UNL     1     -12.583  13.597  71.230  0.00  0.00    +0.202 A 
ATOM      5  O   UNL     1     -13.429  12.889  72.090  0.00  0.00    -0.286 OA
ATOM      6  C   UNL     1     -12.099  12.975  70.093  0.00  0.00    +0.044 A 
ATOM      7  C   UNL     1     -11.654  13.743  69.026  0.00  0.00    +0.024 A 
ATOM      8  C   UNL     1     -11.663  15.115  69.102  0.00  0.00    +0.103 A 
ATOM      9  C   UNL     1     -12.411  15.704  70.093  0.00  0.00    +0.031 A 
BRANCH   3  11
ATOM     10  O   UNL     1     -12.142  15.675  73.460  0.00  0.00    -0.240 OA
ATOM     11  C   UNL     1     -12.953  15.680  72.504  0.00  0.00    +0.391 C 
ATOM     12  O   UNL     1     -14.280  16.071  72.625  0.00  0.00    -0.240 OA
ENDBRANCH   3  11
ENDBRANCH   1   8
BRANCH   2  13
ATOM     13  C   UNL     1      -9.463  17.678  67.833  0.00  0.00    +0.103 A 
ATOM     14  C   UNL     1      -8.452  17.677  66.888  0.00  0.00    +0.031 A 
ATOM     15  C   UNL     1      -7.788  18.851  66.635  0.00  0.00    +0.120 A 
ATOM     16  C   UNL     1      -8.260  20.036  67.179  0.00  0.00    +0.202 A 
ATOM     17  O   UNL     1      -7.428  21.132  67.268  0.00  0.00    -0.286 OA
ATOM     18  C   UNL     1      -9.574  20.027  67.616  0.00  0.00    +0.044 A 
ATOM     19  C   UNL     1     -10.225  18.836  67.907  0.00  0.00    +0.024 A 
BRANCH  15  20
ATOM     20  C   UNL     1      -6.497  18.767  65.949  0.00  0.00    +0.391 C 
ATOM     21  O   UNL     1      -6.475  18.879  64.572  0.00  0.00    -0.240 OA
ATOM     22  O   UNL     1      -5.455  18.469  66.586  0.00  0.00    -0.240 OA
ENDBRANCH  15  20
ENDBRANCH   2  13
TORSDOF 4
ENDMDL
MODEL 7
REMARK VINA RESULT:      -6.8      4.673      9.168
REMARK  Name = 
REMARK  4 active torsions:
REMARK  status: ('A' for Active; 'I' for Inactive)
REMARK    1  A    between atoms: C_2  and  C_4
REMARK    2  A    between atoms: C_6  and  N_7
REMARK    3  A    between atoms: N_8  and  C_9
REMARK    4  A    between atoms: C_14  and  C_15
REMARK                            x       y       z     vdW  Elec       q    Type
REMARK                         _______ _______ _______ _____ _____    ______ ____
ROOT
ATOM      1  N   UNL     1     -12.065  11.676  68.175  0.00  0.00    -0.148 NA
ATOM      2  N   UNL     1     -11.691  11.347  67.013  0.00  0.00    -0.148 NA
ENDROOT
BRANCH   1   8
ATOM      3  C   UNL     1     -11.178   8.754  70.158  0.00  0.00    +0.120 A 
ATOM      4  C   UNL     1     -11.791   9.014  71.375  0.00  0.00    +0.202 A 
ATOM      5  O   UNL     1     -11.425   8.268  72.499  0.00  0.00    -0.286 OA
ATOM      6  C   UNL     1     -12.401  10.244  71.548  0.00  0.00    +0.044 A 
ATOM      7  C   UNL     1     -12.366  11.180  70.523  0.00  0.00    +0.024 A 
ATOM      8  C   UNL     1     -11.756  10.882  69.328  0.00  0.00    +0.103 A 
ATOM      9  C   UNL     1     -10.913   9.799  69.282  0.00  0.00    +0.031 A 
BRANCH   3  11
ATOM     10  O   UNL     1     -11.456   6.467  69.739  0.00  0.00    -0.240 OA
ATOM     11  C   UNL     1     -10.648   7.416  69.880  0.00  0.00    +0.391 C 
ATOM     12  O   UNL     1      -9.282   7.240  70.056  0.00  0.00    -0.240 OA
ENDBRANCH   3  11
ENDBRANCH   1   8
BRANCH   2  13
ATOM     13  C   UNL     1     -11.453  12.384  66.061  0.00  0.00    +0.103 A 
ATOM     14  C   UNL     1     -10.728  13.524  66.364  0.00  0.00    +0.031 A 
ATOM     15  C   UNL     1     -10.983  14.672  65.657  0.00  0.00    +0.120 A 
ATOM     16  C   UNL     1     -11.810  14.624  64.546  0.00  0.00    +0.202 A 
ATOM     17  O   UNL     1     -12.384  15.780  64.063  0.00  0.00    -0.286 OA
ATOM     18  C   UNL     1     -12.014  13.372  63.990  0.00  0.00    +0.044 A 
ATOM     19  C   UNL     1     -11.790  12.215  64.725  0.00  0.00    +0.024 A 
BRANCH  15  20
ATOM     20  C   UNL     1     -10.514  15.937  66.227  0.00  0.00    +0.391 C 
ATOM     21  O   UNL     1      -9.589  16.676  65.514  0.00  0.00    -0.240 OA
ATOM     22  O   UNL     1     -10.846  16.275  67.391  0.00  0.00    -0.240 OA
ENDBRANCH  15  20
ENDBRANCH   2  13
TORSDOF 4
ENDMDL
MODEL 8
REMARK VINA RESULT:      -6.7      2.085      7.653
REMARK  Name = 
REMARK  4 active torsions:
REMARK  status: ('A' for Active; 'I' for Inactive)
REMARK    1  A    between atoms: C_2  and  C_4
REMARK    2  A    between atoms: C_6  and  N_7
REMARK    3  A    between atoms: N_8  and  C_9
REMARK    4  A    between atoms: C_14  and  C_15
REMARK                            x       y       z     vdW  Elec       q    Type
REMARK                         _______ _______ _______ _____ _____    ______ ____
ROOT
ATOM      1  N   UNL     1     -10.585  15.009  69.032  0.00  0.00    -0.148 NA
ATOM      2  N   UNL     1      -9.556  15.537  69.544  0.00  0.00    -0.148 NA
ENDROOT
BRANCH   1   8
ATOM      3  C   UNL     1     -12.906  14.666  71.816  0.00  0.00    +0.120 A 
ATOM      4  C   UNL     1     -13.142  13.300  71.848  0.00  0.00    +0.202 A 
ATOM      5  O   UNL     1     -14.224  12.810  72.587  0.00  0.00    -0.286 OA
ATOM      6  C   UNL     1     -12.602  12.520  70.841  0.00  0.00    +0.044 A 
ATOM      7  C   UNL     1     -11.866  13.118  69.828  0.00  0.00    +0.024 A 
ATOM      8  C   UNL     1     -11.646  14.475  69.833  0.00  0.00    +0.103 A 
ATOM      9  C   UNL     1     -12.426  15.255  70.653  0.00  0.00    +0.031 A 
BRANCH   3  11
ATOM     10  O   UNL     1     -14.336  16.248  72.782  0.00  0.00    -0.240 OA
ATOM     11  C   UNL     1     -13.337  15.508  72.936  0.00  0.00    +0.391 C 
ATOM     12  O   UNL     1     -12.453  15.625  74.001  0.00  0.00    -0.240 OA
ENDBRANCH   3  11
ENDBRANCH   1   8
BRANCH   2  13
ATOM     13  C   UNL     1      -8.886  16.561  68.810  0.00  0.00    +0.103 A 
ATOM     14  C   UNL     1      -9.536  17.691  68.342  0.00  0.00    +0.031 A 
ATOM     15  C   UNL     1      -9.030  18.328  67.236  0.00  0.00    +0.120 A 
ATOM     16  C   UNL     1      -7.796  17.951  66.732  0.00  0.00    +0.202 A 
ATOM     17  O   UNL     1      -7.447  18.284  65.441  0.00  0.00    -0.286 OA
ATOM     18  C   UNL     1      -6.979  17.233  67.590  0.00  0.00    +0.044 A 
ATOM     19  C   UNL     1      -7.504  16.559  68.685  0.00  0.00    +0.024 A 
BRANCH  15  20
ATOM     20  C   UNL     1      -9.912  19.257  66.527  0.00  0.00    +0.391 C 
ATOM     21  O   UNL     1     -10.650  18.779  65.460  0.00  0.00    -0.240 OA
ATOM     22  O   UNL     1      -9.899  20.484  66.799  0.00  0.00    -0.240 OA
ENDBRANCH  15  20
ENDBRANCH   2  13
TORSDOF 4
ENDMDL
MODEL 9
REMARK VINA RESULT:      -6.6      5.018      6.526
REMARK  Name = 
REMARK  4 active torsions:
REMARK  status: ('A' for Active; 'I' for Inactive)
REMARK    1  A    between atoms: C_2  and  C_4
REMARK    2  A    between atoms: C_6  and  N_7
REMARK    3  A    between atoms: N_8  and  C_9
REMARK    4  A    between atoms: C_14  and  C_15
REMARK                            x       y       z     vdW  Elec       q    Type
REMARK                         _______ _______ _______ _____ _____    ______ ____
ROOT
ATOM      1  N   UNL     1     -11.954  11.922  68.406  0.00  0.00    -0.148 NA
ATOM      2  N   UNL     1     -11.677  11.809  69.634  0.00  0.00    -0.148 NA
ENDROOT
BRANCH   1   8
ATOM      3  C   UNL     1     -11.524  14.105  65.523  0.00  0.00    +0.120 A 
ATOM      4  C   UNL     1     -10.265  14.646  65.737  0.00  0.00    +0.202 A 
ATOM      5  O   UNL     1      -9.870  15.769  65.003  0.00  0.00    -0.286 OA
ATOM      6  C   UNL     1      -9.623  14.354  66.927  0.00  0.00    +0.044 A 
ATOM      7  C   UNL     1     -10.254  13.558  67.872  0.00  0.00    +0.024 A 
ATOM      8  C   UNL     1     -11.499  13.032  67.622  0.00  0.00    +0.103 A 
ATOM      9  C   UNL     1     -12.233  13.566  66.590  0.00  0.00    +0.031 A 
BRANCH   3  11
ATOM     10  O   UNL     1     -12.717  15.368  63.955  0.00  0.00    -0.240 OA
ATOM     11  C   UNL     1     -12.178  14.269  64.221  0.00  0.00    +0.391 C 
ATOM     12  O   UNL     1     -12.385  13.113  63.480  0.00  0.00    -0.240 OA
ENDBRANCH   3  11
ENDBRANCH   1   8
BRANCH   2  13
ATOM     13  C   UNL     1     -11.580  10.496  70.186  0.00  0.00    +0.103 A 
ATOM     14  C   UNL     1     -12.690   9.703  70.425  0.00  0.00    +0.031 A 
ATOM     15  C   UNL     1     -12.615   8.749  71.409  0.00  0.00    +0.120 A 
ATOM     16  C   UNL     1     -11.394   8.471  72.004  0.00  0.00    +0.202 A 
ATOM     17  O   UNL     1     -11.351   7.826  73.221  0.00  0.00    -0.286 OA
ATOM     18  C   UNL     1     -10.269   8.886  71.311  0.00  0.00    +0.044 A 
ATOM     19  C   UNL     1     -10.347   9.879  70.344  0.00  0.00    +0.024 A 
BRANCH  15  20
ATOM     20  C   UNL     1     -13.873   8.198  71.916  0.00  0.00    +0.391 C 
ATOM     21  O   UNL     1     -14.605   8.950  72.816  0.00  0.00    -0.240 OA
ATOM     22  O   UNL     1     -14.211   7.019  71.640  0.00  0.00    -0.240 OA
ENDBRANCH  15  20
ENDBRANCH   2  13
TORSDOF 4
ENDMDL
