MODEL 1
REMARK VINA RESULT:      -6.8      0.000      0.000
REMARK  Name = 
REMARK  14 active torsions:
REMARK  status: ('A' for Active; 'I' for Inactive)
REMARK    1  A    between atoms: C_2  and  O_4
REMARK    2  A    between atoms: O_4  and  C_5
REMARK    3  A    between atoms: C_5  and  C_7
REMARK    4  A    between atoms: C_7  and  C_8
REMARK    5  A    between atoms: C_8  and  C_9
REMARK    6  A    between atoms: C_9  and  C_10
REMARK    7  A    between atoms: C_11  and  C_12
REMARK    8  A    between atoms: C_12  and  C_13
REMARK    9  A    between atoms: C_14  and  C_15
REMARK   10  A    between atoms: C_15  and  C_16
REMARK   11  A    between atoms: C_16  and  C_17
REMARK   12  A    between atoms: C_17  and  C_19
REMARK   13  A    between atoms: C_19  and  C_20
REMARK   14  A    between atoms: C_20  and  C_21
REMARK                            x       y       z     vdW  Elec       q    Type
REMARK                         _______ _______ _______ _____ _____    ______ ____
ROOT
ATOM      1  C   UNL     1     -10.890  12.780  65.847  0.00  0.00    +0.037 C 
ATOM      2  C   UNL     1     -12.148  12.106  64.922  0.00  0.00    +0.155 C 
ATOM      3  O   UNL     1     -13.282  12.952  65.491  0.00  0.00    -0.223 OA
ATOM      4  C   UNL     1     -11.916  13.081  63.655  0.00  0.00    +0.066 C 
ATOM      5  C   UNL     1     -11.240  14.441  64.210  0.00  0.00    +0.155 C 
ATOM      6  O   UNL     1     -12.528  15.215  63.941  0.00  0.00    -0.223 OA
ATOM      7  C   UNL     1     -11.665  14.249  65.841  0.00  0.00    +0.033 C 
ENDROOT
BRANCH   7   8
ATOM      8  C   UNL     1     -10.375  15.013  66.422  0.00  0.00    +0.005 C 
BRANCH   8   9
ATOM      9  C   UNL     1     -10.828  15.984  67.452  0.00  0.00    +0.033 C 
BRANCH   9  10
ATOM     10  C   UNL     1      -9.589  16.073  68.540  0.00  0.00    +0.152 C 
ATOM     11  O   UNL     1     -10.102  17.407  69.063  0.00  0.00    -0.223 OA
BRANCH  10  12
ATOM     12  C   UNL     1     -10.405  15.197  69.676  0.00  0.00    +0.038 C 
BRANCH  12  13
ATOM     13  C   UNL     1     -11.836  15.472  69.550  0.00  0.00    +0.029 C 
BRANCH  13  14
ATOM     14  C   UNL     1     -12.604  15.581  70.804  0.00  0.00    -0.022 A 
ATOM     15  C   UNL     1     -13.466  14.559  71.181  0.00  0.00    -0.004 A 
ATOM     16  C   UNL     1     -13.566  14.116  72.486  0.00  0.00    -0.000 A 
ATOM     17  C   UNL     1     -12.877  14.764  73.492  0.00  0.00    -0.000 A 
ATOM     18  C   UNL     1     -12.151  15.903  73.168  0.00  0.00    -0.000 A 
ATOM     19  C   UNL     1     -11.903  16.184  71.844  0.00  0.00    -0.004 A 
ENDBRANCH  13  14
ENDBRANCH  12  13
ENDBRANCH  10  12
ENDBRANCH   9  10
ENDBRANCH   8   9
ENDBRANCH   7   8
BRANCH   1  20
ATOM     20  C   UNL     1     -11.568  12.294  67.223  0.00  0.00    +0.028 C 
BRANCH  20  22
ATOM     21  C   UNL     1     -10.716  10.992  69.142  0.00  0.00    -0.031 C 
ATOM     22  C   UNL     1     -10.496  11.559  67.973  0.00  0.00    -0.031 C 
BRANCH  21  23
ATOM     23  C   UNL     1     -11.823  11.529  69.998  0.00  0.00    +0.026 C 
BRANCH  23  24
ATOM     24  C   UNL     1     -12.788  10.434  70.329  0.00  0.00    +0.016 C 
BRANCH  24  25
ATOM     25  C   UNL     1     -12.856  10.030  71.751  0.00  0.00    +0.110 C 
BRANCH  25  26
ATOM     26  C   UNL     1     -13.621   8.802  72.028  0.00  0.00    +0.317 C 
ATOM     27  O   UNL     1     -14.718   8.898  72.657  0.00  0.00    -0.250 OA
BRANCH  26  28
ATOM     28  O   UNL     1     -13.436   7.629  71.306  0.00  0.00    -0.452 OA
BRANCH  28  30
ATOM     29  C   UNL     1     -12.301   6.825  71.340  0.00  0.00    +0.047 C 
ATOM     30  C   UNL     1     -12.300   6.857  71.364  0.00  0.00    +0.169 C 
ATOM     31  C   UNL     1     -11.519   6.618  70.150  0.00  0.00    +0.047 C 
ENDBRANCH  28  30
ENDBRANCH  26  28
ENDBRANCH  25  26
ENDBRANCH  24  25
ENDBRANCH  23  24
ENDBRANCH  21  23
ENDBRANCH  20  22
ENDBRANCH   1  20
TORSDOF 14
ENDMDL
MODEL 2
REMARK VINA RESULT:      -6.7      2.389      7.055
REMARK  Name = 
REMARK  14 active torsions:
REMARK  status: ('A' for Active; 'I' for Inactive)
REMARK    1  A    between atoms: C_2  and  O_4
REMARK    2  A    between atoms: O_4  and  C_5
REMARK    3  A    between atoms: C_5  and  C_7
REMARK    4  A    between atoms: C_7  and  C_8
REMARK    5  A    between atoms: C_8  and  C_9
REMARK    6  A    between atoms: C_9  and  C_10
REMARK    7  A    between atoms: C_11  and  C_12
REMARK    8  A    between atoms: C_12  and  C_13
REMARK    9  A    between atoms: C_14  and  C_15
REMARK   10  A    between atoms: C_15  and  C_16
REMARK   11  A    between atoms: C_16  and  C_17
REMARK   12  A    between atoms: C_17  and  C_19
REMARK   13  A    between atoms: C_19  and  C_20
REMARK   14  A    between atoms: C_20  and  C_21
REMARK                            x       y       z     vdW  Elec       q    Type
REMARK                         _______ _______ _______ _____ _____    ______ ____
ROOT
ATOM      1  C   UNL     1     -10.891  14.472  66.604  0.00  0.00    +0.037 C 
ATOM      2  C   UNL     1     -10.724  15.004  64.997  0.00  0.00    +0.155 C 
ATOM      3  O   UNL     1     -10.222  13.690  64.409  0.00  0.00    -0.223 OA
ATOM      4  C   UNL     1     -12.263  14.714  64.604  0.00  0.00    +0.066 C 
ATOM      5  C   UNL     1     -12.798  13.540  65.578  0.00  0.00    +0.155 C 
ATOM      6  O   UNL     1     -12.831  12.558  64.410  0.00  0.00    -0.223 OA
ATOM      7  C   UNL     1     -11.284  12.950  66.066  0.00  0.00    +0.033 C 
ENDROOT
BRANCH   7   8
ATOM      8  C   UNL     1     -11.770  12.481  67.524  0.00  0.00    +0.005 C 
BRANCH   8   9
ATOM      9  C   UNL     1     -11.427  11.045  67.695  0.00  0.00    +0.033 C 
BRANCH   9  10
ATOM     10  C   UNL     1     -11.807  10.690  69.262  0.00  0.00    +0.152 C 
ATOM     11  O   UNL     1     -10.337  10.488  69.605  0.00  0.00    -0.223 OA
BRANCH  10  12
ATOM     12  C   UNL     1     -11.800  12.277  69.716  0.00  0.00    +0.038 C 
BRANCH  12  13
ATOM     13  C   UNL     1     -12.600  12.427  70.932  0.00  0.00    +0.029 C 
BRANCH  13  14
ATOM     14  C   UNL     1     -12.930  13.803  71.343  0.00  0.00    -0.022 A 
ATOM     15  C   UNL     1     -13.323  14.061  72.651  0.00  0.00    -0.004 A 
ATOM     16  C   UNL     1     -12.882  15.167  73.354  0.00  0.00    -0.000 A 
ATOM     17  C   UNL     1     -12.109  16.123  72.727  0.00  0.00    -0.000 A 
ATOM     18  C   UNL     1     -11.855  15.981  71.368  0.00  0.00    -0.000 A 
ATOM     19  C   UNL     1     -12.123  14.776  70.760  0.00  0.00    -0.004 A 
ENDBRANCH  13  14
ENDBRANCH  12  13
ENDBRANCH  10  12
ENDBRANCH   9  10
ENDBRANCH   8   9
ENDBRANCH   7   8
BRANCH   1  20
ATOM     20  C   UNL     1      -9.318  14.152  66.719  0.00  0.00    +0.028 C 
BRANCH  20  22
ATOM     21  C   UNL     1      -8.986  15.197  68.933  0.00  0.00    -0.031 C 
ATOM     22  C   UNL     1      -9.012  14.111  68.188  0.00  0.00    -0.031 C 
BRANCH  21  23
ATOM     23  C   UNL     1      -8.696  16.510  68.272  0.00  0.00    +0.026 C 
BRANCH  23  24
ATOM     24  C   UNL     1      -9.642  17.554  68.775  0.00  0.00    +0.016 C 
BRANCH  24  25
ATOM     25  C   UNL     1     -10.569  18.133  67.776  0.00  0.00    +0.110 C 
BRANCH  25  26
ATOM     26  C   UNL     1      -9.957  18.530  66.496  0.00  0.00    +0.317 C 
ATOM     27  O   UNL     1     -10.586  18.291  65.421  0.00  0.00    -0.250 OA
BRANCH  26  28
ATOM     28  O   UNL     1      -8.958  19.492  66.414  0.00  0.00    -0.452 OA
BRANCH  28  30
ATOM     29  C   UNL     1      -7.643  19.245  66.029  0.00  0.00    +0.047 C 
ATOM     30  C   UNL     1      -7.655  19.227  66.063  0.00  0.00    +0.169 C 
ATOM     31  C   UNL     1      -6.714  20.331  65.872  0.00  0.00    +0.047 C 
ENDBRANCH  28  30
ENDBRANCH  26  28
ENDBRANCH  25  26
ENDBRANCH  24  25
ENDBRANCH  23  24
ENDBRANCH  21  23
ENDBRANCH  20  22
ENDBRANCH   1  20
TORSDOF 14
ENDMDL
MODEL 3
REMARK VINA RESULT:      -6.6      1.297      1.853
REMARK  Name = 
REMARK  14 active torsions:
REMARK  status: ('A' for Active; 'I' for Inactive)
REMARK    1  A    between atoms: C_2  and  O_4
REMARK    2  A    between atoms: O_4  and  C_5
REMARK    3  A    between atoms: C_5  and  C_7
REMARK    4  A    between atoms: C_7  and  C_8
REMARK    5  A    between atoms: C_8  and  C_9
REMARK    6  A    between atoms: C_9  and  C_10
REMARK    7  A    between atoms: C_11  and  C_12
REMARK    8  A    between atoms: C_12  and  C_13
REMARK    9  A    between atoms: C_14  and  C_15
REMARK   10  A    between atoms: C_15  and  C_16
REMARK   11  A    between atoms: C_16  and  C_17
REMARK   12  A    between atoms: C_17  and  C_19
REMARK   13  A    between atoms: C_19  and  C_20
REMARK   14  A    between atoms: C_20  and  C_21
REMARK                            x       y       z     vdW  Elec       q    Type
REMARK                         _______ _______ _______ _____ _____    ______ ____
ROOT
ATOM      1  C   UNL     1     -11.000  13.334  66.074  0.00  0.00    +0.037 C 
ATOM      2  C   UNL     1     -12.340  12.784  65.181  0.00  0.00    +0.155 C 
ATOM      3  O   UNL     1     -13.350  13.799  65.704  0.00  0.00    -0.223 OA
ATOM      4  C   UNL     1     -11.987  13.656  63.868  0.00  0.00    +0.066 C 
ATOM      5  C   UNL     1     -11.137  14.942  64.355  0.00  0.00    +0.155 C 
ATOM      6  O   UNL     1     -12.314  15.863  64.045  0.00  0.00    -0.223 OA
ATOM      7  C   UNL     1     -11.576  14.889  65.993  0.00  0.00    +0.033 C 
ENDROOT
BRANCH   7   8
ATOM      8  C   UNL     1     -10.195  15.507  66.537  0.00  0.00    +0.005 C 
BRANCH   8   9
ATOM      9  C   UNL     1     -10.455  16.888  67.021  0.00  0.00    +0.033 C 
BRANCH   9  10
ATOM     10  C   UNL     1      -9.744  16.969  68.508  0.00  0.00    +0.152 C 
ATOM     11  O   UNL     1     -10.146  18.430  68.656  0.00  0.00    -0.223 OA
BRANCH  10  12
ATOM     12  C   UNL     1     -11.092  16.414  69.282  0.00  0.00    +0.038 C 
BRANCH  12  13
ATOM     13  C   UNL     1     -10.691  15.442  70.299  0.00  0.00    +0.029 C 
BRANCH  13  14
ATOM     14  C   UNL     1     -11.725  15.020  71.259  0.00  0.00    -0.022 A 
ATOM     15  C   UNL     1     -11.683  15.479  72.570  0.00  0.00    -0.004 A 
ATOM     16  C   UNL     1     -12.818  15.874  73.255  0.00  0.00    -0.000 A 
ATOM     17  C   UNL     1     -14.063  15.718  72.680  0.00  0.00    -0.000 A 
ATOM     18  C   UNL     1     -14.146  15.091  71.442  0.00  0.00    -0.000 A 
ATOM     19  C   UNL     1     -12.998  14.910  70.707  0.00  0.00    -0.004 A 
ENDBRANCH  13  14
ENDBRANCH  12  13
ENDBRANCH  10  12
ENDBRANCH   9  10
ENDBRANCH   8   9
ENDBRANCH   7   8
BRANCH   1  20
ATOM     20  C   UNL     1     -11.730  13.010  67.471  0.00  0.00    +0.028 C 
BRANCH  20  22
ATOM     21  C   UNL     1     -10.148  11.510  68.632  0.00  0.00    -0.031 C 
ATOM     22  C   UNL     1     -10.632  12.722  68.453  0.00  0.00    -0.031 C 
BRANCH  21  23
ATOM     23  C   UNL     1     -11.024  10.336  68.311  0.00  0.00    +0.026 C 
BRANCH  23  24
ATOM     24  C   UNL     1     -10.952   9.329  69.415  0.00  0.00    +0.016 C 
BRANCH  24  25
ATOM     25  C   UNL     1     -11.074   9.859  70.791  0.00  0.00    +0.110 C 
BRANCH  25  26
ATOM     26  C   UNL     1     -12.429  10.277  71.194  0.00  0.00    +0.317 C 
ATOM     27  O   UNL     1     -12.690  11.516  71.253  0.00  0.00    -0.250 OA
BRANCH  26  28
ATOM     28  O   UNL     1     -13.526   9.428  71.113  0.00  0.00    -0.452 OA
BRANCH  28  30
ATOM     29  C   UNL     1     -14.070   8.716  72.178  0.00  0.00    +0.047 C 
ATOM     30  C   UNL     1     -14.030   8.713  72.173  0.00  0.00    +0.169 C 
ATOM     31  C   UNL     1     -15.063   7.702  71.944  0.00  0.00    +0.047 C 
ENDBRANCH  28  30
ENDBRANCH  26  28
ENDBRANCH  25  26
ENDBRANCH  24  25
ENDBRANCH  23  24
ENDBRANCH  21  23
ENDBRANCH  20  22
ENDBRANCH   1  20
TORSDOF 14
ENDMDL
MODEL 4
REMARK VINA RESULT:      -6.5      2.411      7.410
REMARK  Name = 
REMARK  14 active torsions:
REMARK  status: ('A' for Active; 'I' for Inactive)
REMARK    1  A    between atoms: C_2  and  O_4
REMARK    2  A    between atoms: O_4  and  C_5
REMARK    3  A    between atoms: C_5  and  C_7
REMARK    4  A    between atoms: C_7  and  C_8
REMARK    5  A    between atoms: C_8  and  C_9
REMARK    6  A    between atoms: C_9  and  C_10
REMARK    7  A    between atoms: C_11  and  C_12
REMARK    8  A    between atoms: C_12  and  C_13
REMARK    9  A    between atoms: C_14  and  C_15
REMARK   10  A    between atoms: C_15  and  C_16
REMARK   11  A    between atoms: C_16  and  C_17
REMARK   12  A    between atoms: C_17  and  C_19
REMARK   13  A    between atoms: C_19  and  C_20
REMARK   14  A    between atoms: C_20  and  C_21
REMARK                            x       y       z     vdW  Elec       q    Type
REMARK                         _______ _______ _______ _____ _____    ______ ____
ROOT
ATOM      1  C   UNL     1     -11.039  14.689  66.770  0.00  0.00    +0.037 C 
ATOM      2  C   UNL     1     -10.763  15.262  65.192  0.00  0.00    +0.155 C 
ATOM      3  O   UNL     1     -10.115  13.998  64.638  0.00  0.00    -0.223 OA
ATOM      4  C   UNL     1     -12.234  14.870  64.653  0.00  0.00    +0.066 C 
ATOM      5  C   UNL     1     -12.770  13.643  65.559  0.00  0.00    +0.155 C 
ATOM      6  O   UNL     1     -12.623  12.682  64.382  0.00  0.00    -0.223 OA
ATOM      7  C   UNL     1     -11.269  13.154  66.180  0.00  0.00    +0.033 C 
ENDROOT
BRANCH   7   8
ATOM      8  C   UNL     1     -11.852  12.624  67.581  0.00  0.00    +0.005 C 
BRANCH   8   9
ATOM      9  C   UNL     1     -11.342  11.248  67.813  0.00  0.00    +0.033 C 
BRANCH   9  10
ATOM     10  C   UNL     1     -11.958  10.797  69.276  0.00  0.00    +0.152 C 
ATOM     11  O   UNL     1     -10.593  10.300  69.733  0.00  0.00    -0.223 OA
BRANCH  10  12
ATOM     12  C   UNL     1     -11.745  12.298  69.929  0.00  0.00    +0.038 C 
BRANCH  12  13
ATOM     13  C   UNL     1     -12.698  12.480  71.024  0.00  0.00    +0.029 C 
BRANCH  13  14
ATOM     14  C   UNL     1     -12.986  13.867  71.429  0.00  0.00    -0.022 A 
ATOM     15  C   UNL     1     -13.298  14.153  72.753  0.00  0.00    -0.004 A 
ATOM     16  C   UNL     1     -12.802  15.264  73.409  0.00  0.00    -0.000 A 
ATOM     17  C   UNL     1     -12.055  16.199  72.720  0.00  0.00    -0.000 A 
ATOM     18  C   UNL     1     -11.882  16.030  71.352  0.00  0.00    -0.000 A 
ATOM     19  C   UNL     1     -12.202  14.819  70.782  0.00  0.00    -0.004 A 
ENDBRANCH  13  14
ENDBRANCH  12  13
ENDBRANCH  10  12
ENDBRANCH   9  10
ENDBRANCH   8   9
ENDBRANCH   7   8
BRANCH   1  20
ATOM     20  C   UNL     1      -9.464  14.481  67.028  0.00  0.00    +0.028 C 
BRANCH  20  22
ATOM     21  C   UNL     1      -8.760  16.007  68.839  0.00  0.00    -0.031 C 
ATOM     22  C   UNL     1      -9.232  14.834  68.468  0.00  0.00    -0.031 C 
BRANCH  21  23
ATOM     23  C   UNL     1      -7.926  16.782  67.863  0.00  0.00    +0.026 C 
BRANCH  23  24
ATOM     24  C   UNL     1      -7.104  17.799  68.590  0.00  0.00    +0.016 C 
BRANCH  24  25
ATOM     25  C   UNL     1      -6.626  18.947  67.787  0.00  0.00    +0.110 C 
BRANCH  25  26
ATOM     26  C   UNL     1      -7.475  20.150  67.829  0.00  0.00    +0.317 C 
ATOM     27  O   UNL     1      -7.074  21.199  67.239  0.00  0.00    -0.250 OA
BRANCH  26  28
ATOM     28  O   UNL     1      -8.835  20.094  68.110  0.00  0.00    -0.452 OA
BRANCH  28  30
ATOM     29  C   UNL     1      -9.823  20.136  67.130  0.00  0.00    +0.047 C 
ATOM     30  C   UNL     1      -9.825  20.165  67.158  0.00  0.00    +0.169 C 
ATOM     31  C   UNL     1     -10.729  19.032  66.962  0.00  0.00    +0.047 C 
ENDBRANCH  28  30
ENDBRANCH  26  28
ENDBRANCH  25  26
ENDBRANCH  24  25
ENDBRANCH  23  24
ENDBRANCH  21  23
ENDBRANCH  20  22
ENDBRANCH   1  20
TORSDOF 14
ENDMDL
MODEL 5
REMARK VINA RESULT:      -6.4      2.630      6.071
REMARK  Name = 
REMARK  14 active torsions:
REMARK  status: ('A' for Active; 'I' for Inactive)
REMARK    1  A    between atoms: C_2  and  O_4
REMARK    2  A    between atoms: O_4  and  C_5
REMARK    3  A    between atoms: C_5  and  C_7
REMARK    4  A    between atoms: C_7  and  C_8
REMARK    5  A    between atoms: C_8  and  C_9
REMARK    6  A    between atoms: C_9  and  C_10
REMARK    7  A    between atoms: C_11  and  C_12
REMARK    8  A    between atoms: C_12  and  C_13
REMARK    9  A    between atoms: C_14  and  C_15
REMARK   10  A    between atoms: C_15  and  C_16
REMARK   11  A    between atoms: C_16  and  C_17
REMARK   12  A    between atoms: C_17  and  C_19
REMARK   13  A    between atoms: C_19  and  C_20
REMARK   14  A    between atoms: C_20  and  C_21
REMARK                            x       y       z     vdW  Elec       q    Type
REMARK                         _______ _______ _______ _____ _____    ______ ____
ROOT
ATOM      1  C   UNL     1      -8.430  17.223  67.696  0.00  0.00    +0.037 C 
ATOM      2  C   UNL     1      -8.220  18.264  66.367  0.00  0.00    +0.155 C 
ATOM      3  O   UNL     1      -9.540  17.956  65.669  0.00  0.00    -0.223 OA
ATOM      4  C   UNL     1      -8.804  19.564  67.127  0.00  0.00    +0.066 C 
ATOM      5  C   UNL     1      -9.818  19.040  68.272  0.00  0.00    +0.155 C 
ATOM      6  O   UNL     1     -11.013  19.573  67.486  0.00  0.00    -0.223 OA
ATOM      7  C   UNL     1     -10.070  17.483  67.648  0.00  0.00    +0.033 C 
ENDROOT
BRANCH   7   8
ATOM      8  C   UNL     1     -10.296  16.784  69.078  0.00  0.00    +0.005 C 
BRANCH   8   9
ATOM      9  C   UNL     1     -11.541  15.976  69.016  0.00  0.00    +0.033 C 
BRANCH   9  10
ATOM     10  C   UNL     1     -11.693  15.295  70.513  0.00  0.00    +0.152 C 
ATOM     11  O   UNL     1     -13.062  15.935  70.699  0.00  0.00    -0.223 OA
BRANCH  10  12
ATOM     12  C   UNL     1     -12.317  13.892  69.910  0.00  0.00    +0.038 C 
BRANCH  12  13
ATOM     13  C   UNL     1     -12.485  12.937  71.005  0.00  0.00    +0.029 C 
BRANCH  13  14
ATOM     14  C   UNL     1     -12.447  11.507  70.651  0.00  0.00    -0.022 A 
ATOM     15  C   UNL     1     -11.363  10.994  69.950  0.00  0.00    -0.004 A 
ATOM     16  C   UNL     1     -10.797   9.769  70.251  0.00  0.00    -0.000 A 
ATOM     17  C   UNL     1     -11.373   8.956  71.206  0.00  0.00    -0.000 A 
ATOM     18  C   UNL     1     -12.564   9.366  71.793  0.00  0.00    -0.000 A 
ATOM     19  C   UNL     1     -12.976  10.669  71.628  0.00  0.00    -0.004 A 
ENDBRANCH  13  14
ENDBRANCH  12  13
ENDBRANCH  10  12
ENDBRANCH   9  10
ENDBRANCH   8   9
ENDBRANCH   7   8
BRANCH   1  20
ATOM     20  C   UNL     1      -8.488  15.928  66.742  0.00  0.00    +0.028 C 
BRANCH  20  22
ATOM     21  C   UNL     1      -7.953  13.681  67.618  0.00  0.00    -0.031 C 
ATOM     22  C   UNL     1      -7.571  14.916  67.365  0.00  0.00    -0.031 C 
BRANCH  21  23
ATOM     23  C   UNL     1      -9.413  13.413  67.826  0.00  0.00    +0.026 C 
BRANCH  23  24
ATOM     24  C   UNL     1      -9.983  12.732  66.622  0.00  0.00    +0.016 C 
BRANCH  24  25
ATOM     25  C   UNL     1     -11.124  13.410  65.968  0.00  0.00    +0.110 C 
BRANCH  25  26
ATOM     26  C   UNL     1     -11.790  12.645  64.899  0.00  0.00    +0.317 C 
ATOM     27  O   UNL     1     -13.057  12.584  64.894  0.00  0.00    -0.250 OA
BRANCH  26  28
ATOM     28  O   UNL     1     -11.163  12.342  63.696  0.00  0.00    -0.452 OA
BRANCH  28  30
ATOM     29  C   UNL     1     -10.518  11.146  63.397  0.00  0.00    +0.047 C 
ATOM     30  C   UNL     1     -10.524  11.154  63.436  0.00  0.00    +0.169 C 
ATOM     31  C   UNL     1      -9.275  11.151  62.673  0.00  0.00    +0.047 C 
ENDBRANCH  28  30
ENDBRANCH  26  28
ENDBRANCH  25  26
ENDBRANCH  24  25
ENDBRANCH  23  24
ENDBRANCH  21  23
ENDBRANCH  20  22
ENDBRANCH   1  20
TORSDOF 14
ENDMDL
MODEL 6
REMARK VINA RESULT:      -6.4      2.012      5.793
REMARK  Name = 
REMARK  14 active torsions:
REMARK  status: ('A' for Active; 'I' for Inactive)
REMARK    1  A    between atoms: C_2  and  O_4
REMARK    2  A    between atoms: O_4  and  C_5
REMARK    3  A    between atoms: C_5  and  C_7
REMARK    4  A    between atoms: C_7  and  C_8
REMARK    5  A    between atoms: C_8  and  C_9
REMARK    6  A    between atoms: C_9  and  C_10
REMARK    7  A    between atoms: C_11  and  C_12
REMARK    8  A    between atoms: C_12  and  C_13
REMARK    9  A    between atoms: C_14  and  C_15
REMARK   10  A    between atoms: C_15  and  C_16
REMARK   11  A    between atoms: C_16  and  C_17
REMARK   12  A    between atoms: C_17  and  C_19
REMARK   13  A    between atoms: C_19  and  C_20
REMARK   14  A    between atoms: C_20  and  C_21
REMARK                            x       y       z     vdW  Elec       q    Type
REMARK                         _______ _______ _______ _____ _____    ______ ____
ROOT
ATOM      1  C   UNL     1     -11.848  14.148  66.323  0.00  0.00    +0.037 C 
ATOM      2  C   UNL     1     -11.375  14.677  64.777  0.00  0.00    +0.155 C 
ATOM      3  O   UNL     1     -10.051  13.924  64.711  0.00  0.00    -0.223 OA
ATOM      4  C   UNL     1     -12.190  13.526  63.991  0.00  0.00    +0.066 C 
ATOM      5  C   UNL     1     -12.329  12.263  64.991  0.00  0.00    +0.155 C 
ATOM      6  O   UNL     1     -11.348  11.457  64.143  0.00  0.00    -0.223 OA
ATOM      7  C   UNL     1     -11.088  12.694  66.065  0.00  0.00    +0.033 C 
ENDROOT
BRANCH   7   8
ATOM      8  C   UNL     1     -11.770  12.025  67.357  0.00  0.00    +0.005 C 
BRANCH   8   9
ATOM      9  C   UNL     1     -10.696  11.486  68.231  0.00  0.00    +0.033 C 
BRANCH   9  10
ATOM     10  C   UNL     1     -10.784   9.845  68.067  0.00  0.00    +0.152 C 
ATOM     11  O   UNL     1      -9.511   9.829  67.232  0.00  0.00    -0.223 OA
BRANCH  10  12
ATOM     12  C   UNL     1      -9.982   9.571  69.483  0.00  0.00    +0.038 C 
BRANCH  12  13
ATOM     13  C   UNL     1     -10.423   8.291  70.038  0.00  0.00    +0.029 C 
BRANCH  13  14
ATOM     14  C   UNL     1     -11.414   8.346  71.128  0.00  0.00    -0.022 A 
ATOM     15  C   UNL     1     -11.969   9.564  71.500  0.00  0.00    -0.004 A 
ATOM     16  C   UNL     1     -13.311   9.707  71.800  0.00  0.00    -0.000 A 
ATOM     17  C   UNL     1     -14.132   8.599  71.846  0.00  0.00    -0.000 A 
ATOM     18  C   UNL     1     -13.562   7.345  71.657  0.00  0.00    -0.000 A 
ATOM     19  C   UNL     1     -12.285   7.261  71.154  0.00  0.00    -0.004 A 
ENDBRANCH  13  14
ENDBRANCH  12  13
ENDBRANCH  10  12
ENDBRANCH   9  10
ENDBRANCH   8   9
ENDBRANCH   7   8
BRANCH   1  20
ATOM     20  C   UNL     1     -10.563  14.832  67.010  0.00  0.00    +0.028 C 
BRANCH  20  22
ATOM     21  C   UNL     1     -11.041  16.154  69.041  0.00  0.00    -0.031 C 
ATOM     22  C   UNL     1     -11.077  16.045  67.729  0.00  0.00    -0.031 C 
BRANCH  21  23
ATOM     23  C   UNL     1     -11.027  14.900  69.862  0.00  0.00    +0.026 C 
BRANCH  23  24
ATOM     24  C   UNL     1     -12.427  14.507  70.215  0.00  0.00    +0.016 C 
BRANCH  24  25
ATOM     25  C   UNL     1     -12.569  13.406  71.194  0.00  0.00    +0.110 C 
BRANCH  25  26
ATOM     26  C   UNL     1     -13.357  13.723  72.398  0.00  0.00    +0.317 C 
ATOM     27  O   UNL     1     -14.464  13.130  72.574  0.00  0.00    -0.250 OA
BRANCH  26  28
ATOM     28  O   UNL     1     -12.792  14.303  73.528  0.00  0.00    -0.452 OA
BRANCH  28  30
ATOM     29  C   UNL     1     -12.766  15.669  73.788  0.00  0.00    +0.047 C 
ATOM     30  C   UNL     1     -12.741  15.657  73.759  0.00  0.00    +0.169 C 
ATOM     31  C   UNL     1     -12.416  16.155  75.096  0.00  0.00    +0.047 C 
ENDBRANCH  28  30
ENDBRANCH  26  28
ENDBRANCH  25  26
ENDBRANCH  24  25
ENDBRANCH  23  24
ENDBRANCH  21  23
ENDBRANCH  20  22
ENDBRANCH   1  20
TORSDOF 14
ENDMDL
MODEL 7
REMARK VINA RESULT:      -6.2      2.722      6.566
REMARK  Name = 
REMARK  14 active torsions:
REMARK  status: ('A' for Active; 'I' for Inactive)
REMARK    1  A    between atoms: C_2  and  O_4
REMARK    2  A    between atoms: O_4  and  C_5
REMARK    3  A    between atoms: C_5  and  C_7
REMARK    4  A    between atoms: C_7  and  C_8
REMARK    5  A    between atoms: C_8  and  C_9
REMARK    6  A    between atoms: C_9  and  C_10
REMARK    7  A    between atoms: C_11  and  C_12
REMARK    8  A    between atoms: C_12  and  C_13
REMARK    9  A    between atoms: C_14  and  C_15
REMARK   10  A    between atoms: C_15  and  C_16
REMARK   11  A    between atoms: C_16  and  C_17
REMARK   12  A    between atoms: C_17  and  C_19
REMARK   13  A    between atoms: C_19  and  C_20
REMARK   14  A    between atoms: C_20  and  C_21
REMARK                            x       y       z     vdW  Elec       q    Type
REMARK                         _______ _______ _______ _____ _____    ______ ____
ROOT
ATOM      1  C   UNL     1     -10.884  13.239  66.660  0.00  0.00    +0.037 C 
ATOM      2  C   UNL     1     -11.249  14.744  65.953  0.00  0.00    +0.155 C 
ATOM      3  O   UNL     1     -10.475  14.542  64.656  0.00  0.00    -0.223 OA
ATOM      4  C   UNL     1     -12.650  14.252  65.317  0.00  0.00    +0.066 C 
ATOM      5  C   UNL     1     -12.542  12.655  65.089  0.00  0.00    +0.155 C 
ATOM      6  O   UNL     1     -12.492  12.853  63.576  0.00  0.00    -0.223 OA
ATOM      7  C   UNL     1     -10.851  12.535  65.156  0.00  0.00    +0.033 C 
ENDROOT
BRANCH   7   8
ATOM      8  C   UNL     1     -10.831  11.050  65.772  0.00  0.00    +0.005 C 
BRANCH   8   9
ATOM      9  C   UNL     1      -9.836  10.242  65.021  0.00  0.00    +0.033 C 
BRANCH   9  10
ATOM     10  C   UNL     1      -9.303   9.104  66.092  0.00  0.00    +0.152 C 
ATOM     11  O   UNL     1      -8.421  10.130  66.790  0.00  0.00    -0.223 OA
BRANCH  10  12
ATOM     12  C   UNL     1     -10.573   9.345  67.118  0.00  0.00    +0.038 C 
BRANCH  12  13
ATOM     13  C   UNL     1     -10.274   8.710  68.401  0.00  0.00    +0.029 C 
BRANCH  13  14
ATOM     14  C   UNL     1     -10.609   9.476  69.614  0.00  0.00    -0.022 A 
ATOM     15  C   UNL     1     -11.005  10.804  69.510  0.00  0.00    -0.004 A 
ATOM     16  C   UNL     1     -12.037  11.333  70.263  0.00  0.00    -0.000 A 
ATOM     17  C   UNL     1     -12.643  10.568  71.239  0.00  0.00    -0.000 A 
ATOM     18  C   UNL     1     -12.143   9.296  71.489  0.00  0.00    -0.000 A 
ATOM     19  C   UNL     1     -11.271   8.732  70.587  0.00  0.00    -0.004 A 
ENDBRANCH  13  14
ENDBRANCH  12  13
ENDBRANCH  10  12
ENDBRANCH   9  10
ENDBRANCH   8   9
ENDBRANCH   7   8
BRANCH   1  20
ATOM     20  C   UNL     1      -9.308  13.566  66.670  0.00  0.00    +0.028 C 
BRANCH  20  22
ATOM     21  C   UNL     1      -8.171  14.379  68.707  0.00  0.00    -0.031 C 
ATOM     22  C   UNL     1      -8.871  13.442  68.101  0.00  0.00    -0.031 C 
BRANCH  21  23
ATOM     23  C   UNL     1      -7.325  15.292  67.872  0.00  0.00    +0.026 C 
BRANCH  23  24
ATOM     24  C   UNL     1      -7.698  16.717  68.135  0.00  0.00    +0.016 C 
BRANCH  24  25
ATOM     25  C   UNL     1      -8.922  17.206  67.464  0.00  0.00    +0.110 C 
BRANCH  25  26
ATOM     26  C   UNL     1      -9.964  17.744  68.355  0.00  0.00    +0.317 C 
ATOM     27  O   UNL     1     -10.034  19.000  68.521  0.00  0.00    -0.250 OA
BRANCH  26  28
ATOM     28  O   UNL     1     -11.104  17.024  68.691  0.00  0.00    -0.452 OA
BRANCH  28  30
ATOM     29  C   UNL     1     -11.232  16.172  69.785  0.00  0.00    +0.047 C 
ATOM     30  C   UNL     1     -11.195  16.179  69.772  0.00  0.00    +0.169 C 
ATOM     31  C   UNL     1     -12.014  14.969  69.683  0.00  0.00    +0.047 C 
ENDBRANCH  28  30
ENDBRANCH  26  28
ENDBRANCH  25  26
ENDBRANCH  24  25
ENDBRANCH  23  24
ENDBRANCH  21  23
ENDBRANCH  20  22
ENDBRANCH   1  20
TORSDOF 14
ENDMDL
MODEL 8
REMARK VINA RESULT:      -6.2      1.981      7.648
REMARK  Name = 
REMARK  14 active torsions:
REMARK  status: ('A' for Active; 'I' for Inactive)
REMARK    1  A    between atoms: C_2  and  O_4
REMARK    2  A    between atoms: O_4  and  C_5
REMARK    3  A    between atoms: C_5  and  C_7
REMARK    4  A    between atoms: C_7  and  C_8
REMARK    5  A    between atoms: C_8  and  C_9
REMARK    6  A    between atoms: C_9  and  C_10
REMARK    7  A    between atoms: C_11  and  C_12
REMARK    8  A    between atoms: C_12  and  C_13
REMARK    9  A    between atoms: C_14  and  C_15
REMARK   10  A    between atoms: C_15  and  C_16
REMARK   11  A    between atoms: C_16  and  C_17
REMARK   12  A    between atoms: C_17  and  C_19
REMARK   13  A    between atoms: C_19  and  C_20
REMARK   14  A    between atoms: C_20  and  C_21
REMARK                            x       y       z     vdW  Elec       q    Type
REMARK                         _______ _______ _______ _____ _____    ______ ____
ROOT
ATOM      1  C   UNL     1     -11.288   9.336  71.503  0.00  0.00    +0.037 C 
ATOM      2  C   UNL     1     -12.140   8.164  72.395  0.00  0.00    +0.155 C 
ATOM      3  O   UNL     1     -12.798   7.461  71.213  0.00  0.00    -0.223 OA
ATOM      4  C   UNL     1     -10.903   7.126  72.459  0.00  0.00    +0.066 C 
ATOM      5  C   UNL     1      -9.965   7.412  71.174  0.00  0.00    +0.155 C 
ATOM      6  O   UNL     1     -10.397   6.092  70.540  0.00  0.00    -0.223 OA
ATOM      7  C   UNL     1     -11.108   8.260  70.250  0.00  0.00    +0.033 C 
ENDROOT
BRANCH   7   8
ATOM      8  C   UNL     1     -10.033   9.195  69.505  0.00  0.00    +0.005 C 
BRANCH   8   9
ATOM      9  C   UNL     1     -10.445   9.347  68.086  0.00  0.00    +0.033 C 
BRANCH   9  10
ATOM     10  C   UNL     1      -9.036   9.447  67.232  0.00  0.00    +0.152 C 
ATOM     11  O   UNL     1      -9.193   8.015  66.742  0.00  0.00    -0.223 OA
BRANCH  10  12
ATOM     12  C   UNL     1      -9.779  10.091  65.907  0.00  0.00    +0.038 C 
BRANCH  12  13
ATOM     13  C   UNL     1      -9.369  11.488  65.763  0.00  0.00    +0.029 C 
BRANCH  13  14
ATOM     14  C   UNL     1     -10.288  12.378  65.032  0.00  0.00    -0.022 A 
ATOM     15  C   UNL     1     -11.610  11.999  64.834  0.00  0.00    -0.004 A 
ATOM     16  C   UNL     1     -12.663  12.886  64.960  0.00  0.00    -0.000 A 
ATOM     17  C   UNL     1     -12.417  14.225  65.183  0.00  0.00    -0.000 A 
ATOM     18  C   UNL     1     -11.098  14.661  65.203  0.00  0.00    -0.000 A 
ATOM     19  C   UNL     1     -10.088  13.731  65.289  0.00  0.00    -0.004 A 
ENDBRANCH  13  14
ENDBRANCH  12  13
ENDBRANCH  10  12
ENDBRANCH   9  10
ENDBRANCH   8   9
ENDBRANCH   7   8
BRANCH   1  20
ATOM     20  C   UNL     1     -12.652   9.963  70.923  0.00  0.00    +0.028 C 
BRANCH  20  22
ATOM     21  C   UNL     1     -12.594  12.430  70.807  0.00  0.00    -0.031 C 
ATOM     22  C   UNL     1     -12.760  11.336  71.521  0.00  0.00    -0.031 C 
BRANCH  21  23
ATOM     23  C   UNL     1     -11.757  12.354  69.566  0.00  0.00    +0.026 C 
BRANCH  23  24
ATOM     24  C   UNL     1     -11.953  13.587  68.742  0.00  0.00    +0.016 C 
BRANCH  24  25
ATOM     25  C   UNL     1     -10.913  14.632  68.872  0.00  0.00    +0.110 C 
BRANCH  25  26
ATOM     26  C   UNL     1     -11.387  15.944  69.347  0.00  0.00    +0.317 C 
ATOM     27  O   UNL     1     -11.300  16.940  68.568  0.00  0.00    -0.250 OA
BRANCH  26  28
ATOM     28  O   UNL     1     -12.277  16.077  70.406  0.00  0.00    -0.452 OA
BRANCH  28  30
ATOM     29  C   UNL     1     -11.940  16.034  71.755  0.00  0.00    +0.047 C 
ATOM     30  C   UNL     1     -11.919  16.010  71.731  0.00  0.00    +0.169 C 
ATOM     31  C   UNL     1     -12.916  15.643  72.737  0.00  0.00    +0.047 C 
ENDBRANCH  28  30
ENDBRANCH  26  28
ENDBRANCH  25  26
ENDBRANCH  24  25
ENDBRANCH  23  24
ENDBRANCH  21  23
ENDBRANCH  20  22
ENDBRANCH   1  20
TORSDOF 14
ENDMDL
MODEL 9
REMARK VINA RESULT:      -6.2      3.224      5.902
REMARK  Name = 
REMARK  14 active torsions:
REMARK  status: ('A' for Active; 'I' for Inactive)
REMARK    1  A    between atoms: C_2  and  O_4
REMARK    2  A    between atoms: O_4  and  C_5
REMARK    3  A    between atoms: C_5  and  C_7
REMARK    4  A    between atoms: C_7  and  C_8
REMARK    5  A    between atoms: C_8  and  C_9
REMARK    6  A    between atoms: C_9  and  C_10
REMARK    7  A    between atoms: C_11  and  C_12
REMARK    8  A    between atoms: C_12  and  C_13
REMARK    9  A    between atoms: C_14  and  C_15
REMARK   10  A    between atoms: C_15  and  C_16
REMARK   11  A    between atoms: C_16  and  C_17
REMARK   12  A    between atoms: C_17  and  C_19
REMARK   13  A    between atoms: C_19  and  C_20
REMARK   14  A    between atoms: C_20  and  C_21
REMARK                            x       y       z     vdW  Elec       q    Type
REMARK                         _______ _______ _______ _____ _____    ______ ____
ROOT
ATOM      1  C   UNL     1      -8.706  10.902  65.544  0.00  0.00    +0.037 C 
ATOM      2  C   UNL     1      -8.060   9.328  65.576  0.00  0.00    +0.155 C 
ATOM      3  O   UNL     1      -9.352   8.582  65.267  0.00  0.00    -0.223 OA
ATOM      4  C   UNL     1      -7.582   9.353  64.033  0.00  0.00    +0.066 C 
ATOM      5  C   UNL     1      -8.537  10.394  63.248  0.00  0.00    +0.155 C 
ATOM      6  O   UNL     1      -9.214   9.245  62.505  0.00  0.00    -0.223 OA
ATOM      7  C   UNL     1      -9.798  10.437  64.383  0.00  0.00    +0.033 C 
ENDROOT
BRANCH   7   8
ATOM      8  C   UNL     1     -10.226  11.955  64.073  0.00  0.00    +0.005 C 
BRANCH   8   9
ATOM      9  C   UNL     1     -11.697  11.998  63.871  0.00  0.00    +0.033 C 
BRANCH   9  10
ATOM     10  C   UNL     1     -12.100  13.597  63.945  0.00  0.00    +0.152 C 
ATOM     11  O   UNL     1     -13.105  13.324  65.056  0.00  0.00    -0.223 OA
BRANCH  10  12
ATOM     12  C   UNL     1     -10.878  13.948  64.997  0.00  0.00    +0.038 C 
BRANCH  12  13
ATOM     13  C   UNL     1     -10.776  15.400  65.140  0.00  0.00    +0.029 C 
BRANCH  13  14
ATOM     14  C   UNL     1      -9.665  15.910  65.963  0.00  0.00    -0.022 A 
ATOM     15  C   UNL     1      -9.857  17.017  66.780  0.00  0.00    -0.004 A 
ATOM     16  C   UNL     1      -9.342  17.094  68.060  0.00  0.00    -0.000 A 
ATOM     17  C   UNL     1      -8.513  16.097  68.533  0.00  0.00    -0.000 A 
ATOM     18  C   UNL     1      -8.157  15.067  67.670  0.00  0.00    -0.000 A 
ATOM     19  C   UNL     1      -8.851  14.913  66.492  0.00  0.00    -0.004 A 
ENDBRANCH  13  14
ENDBRANCH  12  13
ENDBRANCH  10  12
ENDBRANCH   9  10
ENDBRANCH   8   9
ENDBRANCH   7   8
BRANCH   1  20
ATOM     20  C   UNL     1      -9.695  10.579  66.772  0.00  0.00    +0.028 C 
BRANCH  20  22
ATOM     21  C   UNL     1     -10.170  12.137  68.628  0.00  0.00    -0.031 C 
ATOM     22  C   UNL     1      -9.289  11.504  67.882  0.00  0.00    -0.031 C 
BRANCH  21  23
ATOM     23  C   UNL     1     -11.529  12.407  68.056  0.00  0.00    +0.026 C 
BRANCH  23  24
ATOM     24  C   UNL     1     -11.998  13.766  68.473  0.00  0.00    +0.016 C 
BRANCH  24  25
ATOM     25  C   UNL     1     -12.167  13.981  69.927  0.00  0.00    +0.110 C 
BRANCH  25  26
ATOM     26  C   UNL     1     -12.410  15.374  70.339  0.00  0.00    +0.317 C 
ATOM     27  O   UNL     1     -12.110  16.308  69.535  0.00  0.00    -0.250 OA
BRANCH  26  28
ATOM     28  O   UNL     1     -13.303  15.709  71.350  0.00  0.00    -0.452 OA
BRANCH  28  30
ATOM     29  C   UNL     1     -13.317  15.082  72.593  0.00  0.00    +0.047 C 
ATOM     30  C   UNL     1     -13.353  15.086  72.575  0.00  0.00    +0.169 C 
ATOM     31  C   UNL     1     -12.816  15.762  73.757  0.00  0.00    +0.047 C 
ENDBRANCH  28  30
ENDBRANCH  26  28
ENDBRANCH  25  26
ENDBRANCH  24  25
ENDBRANCH  23  24
ENDBRANCH  21  23
ENDBRANCH  20  22
ENDBRANCH   1  20
TORSDOF 14
ENDMDL
