MODEL 1
REMARK VINA RESULT:      -7.0      0.000      0.000
REMARK  Name = 
REMARK  3 active torsions:
REMARK  status: ('A' for Active; 'I' for Inactive)
REMARK    1  A    between atoms: C_2  and  C_4
REMARK    2  A    between atoms: C_20  and  C_21
REMARK    3  A    between atoms: C_24  and  N_25
REMARK                            x       y       z     vdW  Elec       q    Type
REMARK                         _______ _______ _______ _____ _____    ______ ____
ROOT
ATOM      1  C   UNL     1      -9.742  17.368  66.865  0.00  0.00    +0.177 C 
ATOM      2  C   UNL     1      -8.613  17.838  67.721  0.00  0.00    +0.033 C 
ATOM      3  C   UNL     1      -8.014  18.905  66.658  0.00  0.00    +0.007 C 
ATOM      4  C   UNL     1      -7.342  19.930  67.845  0.00  0.00    +0.019 C 
ATOM      5  C   UNL     1      -6.489  18.783  68.555  0.00  0.00    -0.045 C 
ATOM      6  C   UNL     1      -6.184  17.601  67.509  0.00  0.00    +0.040 C 
ATOM      7  C   UNL     1      -5.396  19.199  69.185  0.00  0.00    -0.033 C 
ATOM      8  C   UNL     1      -5.124  20.611  69.186  0.00  0.00    -0.024 C 
ATOM      9  C   UNL     1      -4.584  21.170  70.232  0.00  0.00    +0.033 C 
ATOM     10  C   UNL     1      -4.570  20.332  71.442  0.00  0.00    +0.173 C 
ATOM     11  C   UNL     1      -5.423  19.107  71.559  0.00  0.00    +0.074 C 
ATOM     12  O   UNL     1      -3.925  20.744  72.453  0.00  0.00    -0.291 OA
ATOM     13  C   UNL     1      -5.271  21.272  67.850  0.00  0.00    +0.026 C 
ATOM     14  C   UNL     1      -5.319  18.246  70.304  0.00  0.00    +0.034 C 
ATOM     15  C   UNL     1      -6.074  20.368  66.915  0.00  0.00    +0.009 C 
ATOM     16  C   UNL     1      -9.402  19.741  66.658  0.00  0.00    +0.003 C 
ATOM     17  C   UNL     1      -9.151  18.565  68.887  0.00  0.00    +0.003 C 
ATOM     18  C   UNL     1      -7.555  16.815  67.994  0.00  0.00    +0.011 C 
ATOM     19  C   UNL     1     -10.431  18.670  66.480  0.00  0.00    +0.038 C 
ATOM     20  O   UNL     1      -9.289  16.802  65.692  0.00  0.00    -0.218 OA
ENDROOT
BRANCH   6  21
ATOM     21  C   UNL     1      -5.163  16.743  68.430  0.00  0.00    -0.019 A 
ATOM     22  C   UNL     1      -5.685  15.514  68.834  0.00  0.00    -0.003 A 
ATOM     23  C   UNL     1      -5.087  14.300  68.508  0.00  0.00    +0.014 A 
ATOM     24  C   UNL     1      -3.823  14.277  67.975  0.00  0.00    +0.048 A 
ATOM     25  C   UNL     1      -3.194  15.510  67.861  0.00  0.00    +0.014 A 
ATOM     26  C   UNL     1      -4.070  16.551  67.564  0.00  0.00    -0.003 A 
BRANCH  24  27
ATOM     27  N   UNL     1      -3.308  13.093  67.350  0.00  0.00    -0.304 N 
ATOM     28  C   UNL     1      -2.216  13.185  66.391  0.00  0.00    +0.112 C 
ATOM     29  C   UNL     1      -4.293  12.052  67.068  0.00  0.00    +0.112 C 
ENDBRANCH  24  27
ENDBRANCH   6  21
BRANCH   1  31
ATOM     30  C   UNL     1     -10.708  15.751  67.476  0.00  0.00    +0.075 C 
ATOM     31  C   UNL     1     -10.694  16.456  67.556  0.00  0.00    +0.178 C 
ATOM     32  O   UNL     1     -11.451  17.011  68.345  0.00  0.00    -0.293 OA
ENDBRANCH   1  31
TORSDOF 3
ENDMDL
MODEL 2
REMARK VINA RESULT:      -7.0      4.947      8.435
REMARK  Name = 
REMARK  3 active torsions:
REMARK  status: ('A' for Active; 'I' for Inactive)
REMARK    1  A    between atoms: C_2  and  C_4
REMARK    2  A    between atoms: C_20  and  C_21
REMARK    3  A    between atoms: C_24  and  N_25
REMARK                            x       y       z     vdW  Elec       q    Type
REMARK                         _______ _______ _______ _____ _____    ______ ____
ROOT
ATOM      1  C   UNL     1      -9.086  15.699  68.763  0.00  0.00    +0.177 C 
ATOM      2  C   UNL     1      -9.272  14.584  67.788  0.00  0.00    +0.033 C 
ATOM      3  C   UNL     1     -10.853  14.830  67.533  0.00  0.00    +0.007 C 
ATOM      4  C   UNL     1     -10.847  14.187  65.953  0.00  0.00    +0.019 C 
ATOM      5  C   UNL     1     -10.205  12.787  66.373  0.00  0.00    -0.045 C 
ATOM      6  C   UNL     1     -10.523  12.482  67.919  0.00  0.00    +0.040 C 
ATOM      7  C   UNL     1     -10.507  11.765  65.581  0.00  0.00    -0.033 C 
ATOM      8  C   UNL     1     -11.337  12.032  64.436  0.00  0.00    -0.024 C 
ATOM      9  C   UNL     1     -11.135  11.387  63.321  0.00  0.00    +0.033 C 
ATOM     10  C   UNL     1      -9.869  10.640  63.260  0.00  0.00    +0.173 C 
ATOM     11  C   UNL     1      -8.757  10.898  64.228  0.00  0.00    +0.074 C 
ATOM     12  O   UNL     1      -9.673   9.866  62.275  0.00  0.00    -0.291 OA
ATOM     13  C   UNL     1     -12.540  12.876  64.725  0.00  0.00    +0.026 C 
ATOM     14  C   UNL     1      -9.280  10.956  65.660  0.00  0.00    +0.034 C 
ATOM     15  C   UNL     1     -12.360  13.585  66.067  0.00  0.00    +0.009 C 
ATOM     16  C   UNL     1     -10.569  16.324  66.973  0.00  0.00    +0.003 C 
ATOM     17  C   UNL     1      -8.528  14.884  66.550  0.00  0.00    +0.003 C 
ATOM     18  C   UNL     1      -9.105  13.209  68.357  0.00  0.00    +0.011 C 
ATOM     19  C   UNL     1      -9.655  16.895  68.011  0.00  0.00    +0.038 C 
ATOM     20  O   UNL     1      -9.871  15.531  69.884  0.00  0.00    -0.218 OA
ENDROOT
BRANCH   6  21
ATOM     21  C   UNL     1      -9.957  10.964  67.971  0.00  0.00    -0.019 A 
ATOM     22  C   UNL     1      -8.831  10.822  68.782  0.00  0.00    -0.003 A 
ATOM     23  C   UNL     1      -8.802   9.979  69.888  0.00  0.00    +0.014 A 
ATOM     24  C   UNL     1      -9.811   9.071  70.086  0.00  0.00    +0.048 A 
ATOM     25  C   UNL     1     -10.780   9.019  69.092  0.00  0.00    +0.014 A 
ATOM     26  C   UNL     1     -11.045  10.258  68.515  0.00  0.00    -0.003 A 
BRANCH  24  27
ATOM     27  N   UNL     1      -9.975   8.415  71.352  0.00  0.00    -0.304 N 
ATOM     28  C   UNL     1     -11.264   8.440  72.029  0.00  0.00    +0.112 C 
ATOM     29  C   UNL     1      -8.811   8.450  72.234  0.00  0.00    +0.112 C 
ENDBRANCH  24  27
ENDBRANCH   6  21
BRANCH   1  31
ATOM     30  C   UNL     1      -7.296  16.522  68.964  0.00  0.00    +0.075 C 
ATOM     31  C   UNL     1      -7.669  15.946  69.145  0.00  0.00    +0.178 C 
ATOM     32  O   UNL     1      -7.177  15.085  69.867  0.00  0.00    -0.293 OA
ENDBRANCH   1  31
TORSDOF 3
ENDMDL
MODEL 3
REMARK VINA RESULT:      -6.9      3.694      7.654
REMARK  Name = 
REMARK  3 active torsions:
REMARK  status: ('A' for Active; 'I' for Inactive)
REMARK    1  A    between atoms: C_2  and  C_4
REMARK    2  A    between atoms: C_20  and  C_21
REMARK    3  A    between atoms: C_24  and  N_25
REMARK                            x       y       z     vdW  Elec       q    Type
REMARK                         _______ _______ _______ _____ _____    ______ ____
ROOT
ATOM      1  C   UNL     1      -7.137  18.392  68.405  0.00  0.00    +0.177 C 
ATOM      2  C   UNL     1      -7.803  17.130  67.966  0.00  0.00    +0.033 C 
ATOM      3  C   UNL     1      -8.851  17.828  66.945  0.00  0.00    +0.007 C 
ATOM      4  C   UNL     1      -8.988  16.466  65.927  0.00  0.00    +0.019 C 
ATOM      5  C   UNL     1      -9.397  15.457  67.094  0.00  0.00    -0.045 C 
ATOM      6  C   UNL     1     -10.071  16.268  68.307  0.00  0.00    +0.040 C 
ATOM      7  C   UNL     1     -10.127  14.415  66.712  0.00  0.00    -0.033 C 
ATOM      8  C   UNL     1     -10.435  14.295  65.312  0.00  0.00    -0.024 C 
ATOM      9  C   UNL     1     -10.493  13.117  64.757  0.00  0.00    +0.033 C 
ATOM     10  C   UNL     1      -9.944  12.022  65.572  0.00  0.00    +0.173 C 
ATOM     11  C   UNL     1      -9.070  12.287  66.758  0.00  0.00    +0.074 C 
ATOM     12  O   UNL     1     -10.105  10.831  65.168  0.00  0.00    -0.291 OA
ATOM     13  C   UNL     1     -10.911  15.561  64.671  0.00  0.00    +0.026 C 
ATOM     14  C   UNL     1      -9.668  13.374  67.646  0.00  0.00    +0.034 C 
ATOM     15  C   UNL     1     -10.552  16.753  65.558  0.00  0.00    +0.009 C 
ATOM     16  C   UNL     1      -7.640  18.428  66.052  0.00  0.00    +0.003 C 
ATOM     17  C   UNL     1      -6.847  16.312  67.196  0.00  0.00    +0.003 C 
ATOM     18  C   UNL     1      -8.592  16.426  69.027  0.00  0.00    +0.011 C 
ATOM     19  C   UNL     1      -6.742  19.036  67.083  0.00  0.00    +0.038 C 
ATOM     20  O   UNL     1      -8.027  19.253  69.011  0.00  0.00    -0.218 OA
ENDROOT
BRANCH   6  21
ATOM     21  C   UNL     1     -10.553  14.997  69.189  0.00  0.00    -0.019 A 
ATOM     22  C   UNL     1     -10.261  15.126  70.547  0.00  0.00    -0.003 A 
ATOM     23  C   UNL     1     -11.245  15.118  71.531  0.00  0.00    +0.014 A 
ATOM     24  C   UNL     1     -12.527  14.743  71.219  0.00  0.00    +0.048 A 
ATOM     25  C   UNL     1     -12.730  14.322  69.911  0.00  0.00    +0.014 A 
ATOM     26  C   UNL     1     -11.945  15.002  68.984  0.00  0.00    -0.003 A 
BRANCH  24  27
ATOM     27  N   UNL     1     -13.614  15.016  72.114  0.00  0.00    -0.304 N 
ATOM     28  C   UNL     1     -14.982  15.061  71.616  0.00  0.00    +0.112 C 
ATOM     29  C   UNL     1     -13.318  15.951  73.196  0.00  0.00    +0.112 C 
ENDBRANCH  24  27
ENDBRANCH   6  21
BRANCH   1  31
ATOM     30  C   UNL     1      -5.960  17.978  69.943  0.00  0.00    +0.075 C 
ATOM     31  C   UNL     1      -5.940  18.183  69.264  0.00  0.00    +0.178 C 
ATOM     32  O   UNL     1      -4.866  18.343  68.693  0.00  0.00    -0.293 OA
ENDBRANCH   1  31
TORSDOF 3
ENDMDL
MODEL 4
REMARK VINA RESULT:      -6.8      5.492      7.343
REMARK  Name = 
REMARK  3 active torsions:
REMARK  status: ('A' for Active; 'I' for Inactive)
REMARK    1  A    between atoms: C_2  and  C_4
REMARK    2  A    between atoms: C_20  and  C_21
REMARK    3  A    between atoms: C_24  and  N_25
REMARK                            x       y       z     vdW  Elec       q    Type
REMARK                         _______ _______ _______ _____ _____    ______ ____
ROOT
ATOM      1  C   UNL     1     -11.345  13.039  64.425  0.00  0.00    +0.177 C 
ATOM      2  C   UNL     1     -11.476  13.168  65.906  0.00  0.00    +0.033 C 
ATOM      3  C   UNL     1     -10.259  14.221  66.102  0.00  0.00    +0.007 C 
ATOM      4  C   UNL     1     -10.914  14.939  67.505  0.00  0.00    +0.019 C 
ATOM      5  C   UNL     1     -11.062  13.568  68.309  0.00  0.00    -0.045 C 
ATOM      6  C   UNL     1     -10.011  12.489  67.749  0.00  0.00    +0.040 C 
ATOM      7  C   UNL     1     -11.020  13.680  69.631  0.00  0.00    -0.033 C 
ATOM      8  C   UNL     1     -10.880  15.001  70.184  0.00  0.00    -0.024 C 
ATOM      9  C   UNL     1     -11.484  15.308  71.298  0.00  0.00    +0.033 C 
ATOM     10  C   UNL     1     -12.501  14.339  71.736  0.00  0.00    +0.173 C 
ATOM     11  C   UNL     1     -13.049  13.301  70.808  0.00  0.00    +0.074 C 
ATOM     12  O   UNL     1     -13.019  14.488  72.884  0.00  0.00    -0.291 OA
ATOM     13  C   UNL     1      -9.826  15.839  69.529  0.00  0.00    +0.026 C 
ATOM     14  C   UNL     1     -11.927  12.598  70.049  0.00  0.00    +0.034 C 
ATOM     15  C   UNL     1      -9.455  15.233  68.176  0.00  0.00    +0.009 C 
ATOM     16  C   UNL     1     -10.995  15.307  65.150  0.00  0.00    +0.003 C 
ATOM     17  C   UNL     1     -12.751  13.835  66.230  0.00  0.00    +0.003 C 
ATOM     18  C   UNL     1     -11.145  11.932  66.683  0.00  0.00    +0.011 C 
ATOM     19  C   UNL     1     -11.385  14.488  63.960  0.00  0.00    +0.038 C 
ATOM     20  O   UNL     1     -10.109  12.545  64.065  0.00  0.00    -0.218 OA
ENDROOT
BRANCH   6  21
ATOM     21  C   UNL     1     -10.250  11.340  68.866  0.00  0.00    -0.019 A 
ATOM     22  C   UNL     1     -10.988  10.255  68.392  0.00  0.00    -0.003 A 
ATOM     23  C   UNL     1     -10.488   8.956  68.374  0.00  0.00    +0.014 A 
ATOM     24  C   UNL     1      -9.331   8.656  69.046  0.00  0.00    +0.048 A 
ATOM     25  C   UNL     1      -8.767   9.697  69.771  0.00  0.00    +0.014 A 
ATOM     26  C   UNL     1      -8.936  10.943  69.172  0.00  0.00    -0.003 A 
BRANCH  24  27
ATOM     27  N   UNL     1      -8.632   7.428  68.797  0.00  0.00    -0.304 N 
ATOM     28  C   UNL     1      -7.873   7.251  67.567  0.00  0.00    +0.112 C 
ATOM     29  C   UNL     1      -9.281   6.221  69.304  0.00  0.00    +0.112 C 
ENDBRANCH  24  27
ENDBRANCH   6  21
BRANCH   1  31
ATOM     30  C   UNL     1     -12.362  11.881  63.181  0.00  0.00    +0.075 C 
ATOM     31  C   UNL     1     -12.432  12.252  63.782  0.00  0.00    +0.178 C 
ATOM     32  O   UNL     1     -13.489  12.237  64.405  0.00  0.00    -0.293 OA
ENDBRANCH   1  31
TORSDOF 3
ENDMDL
MODEL 5
REMARK VINA RESULT:      -6.8      5.369      8.761
REMARK  Name = 
REMARK  3 active torsions:
REMARK  status: ('A' for Active; 'I' for Inactive)
REMARK    1  A    between atoms: C_2  and  C_4
REMARK    2  A    between atoms: C_20  and  C_21
REMARK    3  A    between atoms: C_24  and  N_25
REMARK                            x       y       z     vdW  Elec       q    Type
REMARK                         _______ _______ _______ _____ _____    ______ ____
ROOT
ATOM      1  C   UNL     1     -10.041  15.216  68.288  0.00  0.00    +0.177 C 
ATOM      2  C   UNL     1      -9.729  14.054  67.405  0.00  0.00    +0.033 C 
ATOM      3  C   UNL     1     -11.177  13.987  66.679  0.00  0.00    +0.007 C 
ATOM      4  C   UNL     1     -10.584  13.304  65.234  0.00  0.00    +0.019 C 
ATOM      5  C   UNL     1      -9.870  12.066  65.945  0.00  0.00    -0.045 C 
ATOM      6  C   UNL     1     -10.583  11.758  67.352  0.00  0.00    +0.040 C 
ATOM      7  C   UNL     1      -9.739  10.979  65.193  0.00  0.00    -0.033 C 
ATOM      8  C   UNL     1     -10.215  11.045  63.837  0.00  0.00    -0.024 C 
ATOM      9  C   UNL     1      -9.579  10.413  62.891  0.00  0.00    +0.033 C 
ATOM     10  C   UNL     1      -8.245   9.919  63.268  0.00  0.00    +0.173 C 
ATOM     11  C   UNL     1      -7.539  10.416  64.491  0.00  0.00    +0.074 C 
ATOM     12  O   UNL     1      -7.632   9.163  62.456  0.00  0.00    -0.291 OA
ATOM     13  C   UNL     1     -11.575  11.655  63.687  0.00  0.00    +0.026 C 
ATOM     14  C   UNL     1      -8.473  10.421  65.697  0.00  0.00    +0.034 C 
ATOM     15  C   UNL     1     -11.934  12.430  64.955  0.00  0.00    +0.009 C 
ATOM     16  C   UNL     1     -10.997  15.488  66.096  0.00  0.00    +0.003 C 
ATOM     17  C   UNL     1      -8.709  14.448  66.414  0.00  0.00    +0.003 C 
ATOM     18  C   UNL     1      -9.510  12.756  68.117  0.00  0.00    +0.011 C 
ATOM     19  C   UNL     1     -10.551  16.256  67.300  0.00  0.00    +0.038 C 
ATOM     20  O   UNL     1     -11.087  14.940  69.142  0.00  0.00    -0.218 OA
ENDROOT
BRANCH   6  21
ATOM     21  C   UNL     1      -9.808  10.378  67.701  0.00  0.00    -0.019 A 
ATOM     22  C   UNL     1      -9.120  10.423  68.914  0.00  0.00    -0.003 A 
ATOM     23  C   UNL     1      -9.395   9.555  69.966  0.00  0.00    +0.014 A 
ATOM     24  C   UNL     1     -10.196   8.460  69.763  0.00  0.00    +0.048 A 
ATOM     25  C   UNL     1     -10.630   8.264  68.458  0.00  0.00    +0.014 A 
ATOM     26  C   UNL     1     -10.865   9.452  67.770  0.00  0.00    -0.003 A 
BRANCH  24  27
ATOM     27  N   UNL     1     -10.745   7.732  70.870  0.00  0.00    -0.304 N 
ATOM     28  C   UNL     1     -11.658   6.621  70.639  0.00  0.00    +0.112 C 
ATOM     29  C   UNL     1     -11.021   8.521  72.067  0.00  0.00    +0.112 C 
ENDBRANCH  24  27
ENDBRANCH   6  21
BRANCH   1  31
ATOM     30  C   UNL     1      -8.501  15.372  69.523  0.00  0.00    +0.075 C 
ATOM     31  C   UNL     1      -8.870  15.740  69.042  0.00  0.00    +0.178 C 
ATOM     32  O   UNL     1      -8.532  16.879  68.735  0.00  0.00    -0.293 OA
ENDBRANCH   1  31
TORSDOF 3
ENDMDL
MODEL 6
REMARK VINA RESULT:      -6.7      2.778      5.794
REMARK  Name = 
REMARK  3 active torsions:
REMARK  status: ('A' for Active; 'I' for Inactive)
REMARK    1  A    between atoms: C_2  and  C_4
REMARK    2  A    between atoms: C_20  and  C_21
REMARK    3  A    between atoms: C_24  and  N_25
REMARK                            x       y       z     vdW  Elec       q    Type
REMARK                         _______ _______ _______ _____ _____    ______ ____
ROOT
ATOM      1  C   UNL     1      -7.861  19.501  67.305  0.00  0.00    +0.177 C 
ATOM      2  C   UNL     1      -8.418  18.116  67.305  0.00  0.00    +0.033 C 
ATOM      3  C   UNL     1      -9.343  18.296  68.623  0.00  0.00    +0.007 C 
ATOM      4  C   UNL     1     -10.496  17.131  68.150  0.00  0.00    +0.019 C 
ATOM      5  C   UNL     1      -9.434  15.957  67.943  0.00  0.00    -0.045 C 
ATOM      6  C   UNL     1      -8.132  16.233  68.844  0.00  0.00    +0.040 C 
ATOM      7  C   UNL     1      -9.910  14.728  68.101  0.00  0.00    -0.033 C 
ATOM      8  C   UNL     1     -11.310  14.589  68.403  0.00  0.00    -0.024 C 
ATOM      9  C   UNL     1     -11.984  13.584  67.920  0.00  0.00    +0.033 C 
ATOM     10  C   UNL     1     -11.297  12.832  66.858  0.00  0.00    +0.173 C 
ATOM     11  C   UNL     1     -10.105  13.391  66.146  0.00  0.00    +0.074 C 
ATOM     12  O   UNL     1     -11.820  11.752  66.449  0.00  0.00    -0.291 OA
ATOM     13  C   UNL     1     -11.807  15.511  69.474  0.00  0.00    +0.026 C 
ATOM     14  C   UNL     1      -9.098  13.969  67.135  0.00  0.00    +0.034 C 
ATOM     15  C   UNL     1     -10.806  16.648  69.678  0.00  0.00    +0.009 C 
ATOM     16  C   UNL     1     -10.189  19.483  67.915  0.00  0.00    +0.003 C 
ATOM     17  C   UNL     1      -9.285  17.936  66.125  0.00  0.00    +0.003 C 
ATOM     18  C   UNL     1      -7.424  17.032  67.582  0.00  0.00    +0.011 C 
ATOM     19  C   UNL     1      -9.115  20.364  67.358  0.00  0.00    +0.038 C 
ATOM     20  O   UNL     1      -7.153  19.765  68.458  0.00  0.00    -0.218 OA
ENDROOT
BRANCH   6  21
ATOM     21  C   UNL     1      -7.379  14.819  68.592  0.00  0.00    -0.019 A 
ATOM     22  C   UNL     1      -6.264  14.929  67.762  0.00  0.00    -0.003 A 
ATOM     23  C   UNL     1      -4.981  14.581  68.176  0.00  0.00    +0.014 A 
ATOM     24  C   UNL     1      -4.802  13.888  69.346  0.00  0.00    +0.048 A 
ATOM     25  C   UNL     1      -5.963  13.519  70.013  0.00  0.00    +0.014 A 
ATOM     26  C   UNL     1      -6.988  14.453  69.893  0.00  0.00    -0.003 A 
BRANCH  24  27
ATOM     27  N   UNL     1      -3.505  13.787  69.951  0.00  0.00    -0.304 N 
ATOM     28  C   UNL     1      -3.223  14.474  71.203  0.00  0.00    +0.112 C 
ATOM     29  C   UNL     1      -2.381  13.709  69.021  0.00  0.00    +0.112 C 
ENDBRANCH  24  27
ENDBRANCH   6  21
BRANCH   1  31
ATOM     30  C   UNL     1      -7.296  20.165  65.526  0.00  0.00    +0.075 C 
ATOM     31  C   UNL     1      -7.048  19.833  66.103  0.00  0.00    +0.178 C 
ATOM     32  O   UNL     1      -5.862  19.531  66.188  0.00  0.00    -0.293 OA
ENDBRANCH   1  31
TORSDOF 3
ENDMDL
MODEL 7
REMARK VINA RESULT:      -6.7      2.918      4.583
REMARK  Name = 
REMARK  3 active torsions:
REMARK  status: ('A' for Active; 'I' for Inactive)
REMARK    1  A    between atoms: C_2  and  C_4
REMARK    2  A    between atoms: C_20  and  C_21
REMARK    3  A    between atoms: C_24  and  N_25
REMARK                            x       y       z     vdW  Elec       q    Type
REMARK                         _______ _______ _______ _____ _____    ______ ____
ROOT
ATOM      1  C   UNL     1      -9.885  17.217  66.470  0.00  0.00    +0.177 C 
ATOM      2  C   UNL     1      -8.496  17.445  66.965  0.00  0.00    +0.033 C 
ATOM      3  C   UNL     1      -8.844  18.731  67.888  0.00  0.00    +0.007 C 
ATOM      4  C   UNL     1      -7.570  18.466  68.991  0.00  0.00    +0.019 C 
ATOM      5  C   UNL     1      -6.425  18.433  67.880  0.00  0.00    -0.045 C 
ATOM      6  C   UNL     1      -6.896  19.261  66.585  0.00  0.00    +0.040 C 
ATOM      7  C   UNL     1      -5.218  18.791  68.300  0.00  0.00    -0.033 C 
ATOM      8  C   UNL     1      -5.069  19.132  69.690  0.00  0.00    -0.024 C 
ATOM      9  C   UNL     1      -3.972  18.825  70.323  0.00  0.00    +0.033 C 
ATOM     10  C   UNL     1      -3.090  17.886  69.610  0.00  0.00    +0.173 C 
ATOM     11  C   UNL     1      -3.578  17.077  68.449  0.00  0.00    +0.074 C 
ATOM     12  O   UNL     1      -1.938  17.661  70.088  0.00  0.00    -0.291 OA
ATOM     13  C   UNL     1      -6.128  20.049  70.220  0.00  0.00    +0.026 C 
ATOM     14  C   UNL     1      -4.350  17.948  67.462  0.00  0.00    +0.034 C 
ATOM     15  C   UNL     1      -7.324  20.056  69.269  0.00  0.00    +0.009 C 
ATOM     16  C   UNL     1      -9.866  17.855  68.791  0.00  0.00    +0.003 C 
ATOM     17  C   UNL     1      -8.093  16.321  67.832  0.00  0.00    +0.003 C 
ATOM     18  C   UNL     1      -7.513  17.878  65.922  0.00  0.00    +0.011 C 
ATOM     19  C   UNL     1     -10.691  17.150  67.761  0.00  0.00    +0.038 C 
ATOM     20  O   UNL     1     -10.360  18.304  65.767  0.00  0.00    -0.218 OA
ENDROOT
BRANCH   6  21
ATOM     21  C   UNL     1      -5.494  19.226  65.772  0.00  0.00    -0.019 A 
ATOM     22  C   UNL     1      -5.561  18.490  64.589  0.00  0.00    -0.003 A 
ATOM     23  C   UNL     1      -5.306  19.050  63.341  0.00  0.00    +0.014 A 
ATOM     24  C   UNL     1      -4.744  20.298  63.249  0.00  0.00    +0.048 A 
ATOM     25  C   UNL     1      -4.402  20.896  64.455  0.00  0.00    +0.014 A 
ATOM     26  C   UNL     1      -5.278  20.587  65.492  0.00  0.00    -0.003 A 
BRANCH  24  27
ATOM     27  N   UNL     1      -4.754  21.021  62.010  0.00  0.00    -0.304 N 
ATOM     28  C   UNL     1      -4.454  22.446  61.990  0.00  0.00    +0.112 C 
ATOM     29  C   UNL     1      -5.750  20.585  61.035  0.00  0.00    +0.112 C 
ENDBRANCH  24  27
ENDBRANCH   6  21
BRANCH   1  31
ATOM     30  C   UNL     1      -9.861  15.320  65.902  0.00  0.00    +0.075 C 
ATOM     31  C   UNL     1     -10.055  15.966  65.682  0.00  0.00    +0.178 C 
ATOM     32  O   UNL     1     -10.621  16.114  64.604  0.00  0.00    -0.293 OA
ENDBRANCH   1  31
TORSDOF 3
ENDMDL
MODEL 8
REMARK VINA RESULT:      -6.5      6.773      9.190
REMARK  Name = 
REMARK  3 active torsions:
REMARK  status: ('A' for Active; 'I' for Inactive)
REMARK    1  A    between atoms: C_2  and  C_4
REMARK    2  A    between atoms: C_20  and  C_21
REMARK    3  A    between atoms: C_24  and  N_25
REMARK                            x       y       z     vdW  Elec       q    Type
REMARK                         _______ _______ _______ _____ _____    ______ ____
ROOT
ATOM      1  C   UNL     1     -11.664  12.881  65.328  0.00  0.00    +0.177 C 
ATOM      2  C   UNL     1     -10.526  12.201  66.014  0.00  0.00    +0.033 C 
ATOM      3  C   UNL     1     -10.494  10.895  65.056  0.00  0.00    +0.007 C 
ATOM      4  C   UNL     1      -8.831  10.590  65.283  0.00  0.00    +0.019 C 
ATOM      5  C   UNL     1      -8.912  10.541  66.876  0.00  0.00    -0.045 C 
ATOM      6  C   UNL     1     -10.400  10.142  67.336  0.00  0.00    +0.040 C 
ATOM      7  C   UNL     1      -7.983   9.802  67.469  0.00  0.00    -0.033 C 
ATOM      8  C   UNL     1      -7.003   9.165  66.630  0.00  0.00    -0.024 C 
ATOM      9  C   UNL     1      -5.773   9.040  67.043  0.00  0.00    +0.033 C 
ATOM     10  C   UNL     1      -5.438   9.836  68.234  0.00  0.00    +0.173 C 
ATOM     11  C   UNL     1      -6.311  10.960  68.700  0.00  0.00    +0.074 C 
ATOM     12  O   UNL     1      -4.312   9.650  68.786  0.00  0.00    -0.291 OA
ATOM     13  C   UNL     1      -7.571   8.472  65.430  0.00  0.00    +0.026 C 
ATOM     14  C   UNL     1      -7.777  10.537  68.728  0.00  0.00    +0.034 C 
ATOM     15  C   UNL     1      -8.994   8.969  65.175  0.00  0.00    +0.009 C 
ATOM     16  C   UNL     1     -10.193  11.810  63.753  0.00  0.00    +0.003 C 
ATOM     17  C   UNL     1      -9.292  12.983  65.810  0.00  0.00    +0.003 C 
ATOM     18  C   UNL     1     -10.809  11.742  67.411  0.00  0.00    +0.011 C 
ATOM     19  C   UNL     1     -11.213  12.898  63.874  0.00  0.00    +0.038 C 
ATOM     20  O   UNL     1     -12.813  12.120  65.373  0.00  0.00    -0.218 OA
ENDROOT
BRANCH   6  21
ATOM     21  C   UNL     1     -10.108   9.968  68.920  0.00  0.00    -0.019 A 
ATOM     22  C   UNL     1     -10.909  10.784  69.721  0.00  0.00    -0.003 A 
ATOM     23  C   UNL     1     -11.780  10.274  70.679  0.00  0.00    +0.014 A 
ATOM     24  C   UNL     1     -11.709   8.952  71.038  0.00  0.00    +0.048 A 
ATOM     25  C   UNL     1     -10.692   8.218  70.441  0.00  0.00    +0.014 A 
ATOM     26  C   UNL     1     -10.420   8.613  69.134  0.00  0.00    -0.003 A 
BRANCH  24  27
ATOM     27  N   UNL     1     -12.771   8.330  71.775  0.00  0.00    -0.304 N 
ATOM     28  C   UNL     1     -13.188   6.972  71.458  0.00  0.00    +0.112 C 
ATOM     29  C   UNL     1     -13.845   9.223  72.205  0.00  0.00    +0.112 C 
ENDBRANCH  24  27
ENDBRANCH   6  21
BRANCH   1  31
ATOM     30  C   UNL     1     -12.212  14.424  66.442  0.00  0.00    +0.075 C 
ATOM     31  C   UNL     1     -11.931  14.263  65.811  0.00  0.00    +0.178 C 
ATOM     32  O   UNL     1     -11.573  15.150  65.042  0.00  0.00    -0.293 OA
ENDBRANCH   1  31
TORSDOF 3
ENDMDL
MODEL 9
REMARK VINA RESULT:      -6.4      6.232      8.996
REMARK  Name = 
REMARK  3 active torsions:
REMARK  status: ('A' for Active; 'I' for Inactive)
REMARK    1  A    between atoms: C_2  and  C_4
REMARK    2  A    between atoms: C_20  and  C_21
REMARK    3  A    between atoms: C_24  and  N_25
REMARK                            x       y       z     vdW  Elec       q    Type
REMARK                         _______ _______ _______ _____ _____    ______ ____
ROOT
ATOM      1  C   UNL     1     -11.108  14.033  65.802  0.00  0.00    +0.177 C 
ATOM      2  C   UNL     1     -10.712  12.639  66.158  0.00  0.00    +0.033 C 
ATOM      3  C   UNL     1      -9.382  13.040  66.994  0.00  0.00    +0.007 C 
ATOM      4  C   UNL     1      -9.428  11.667  68.005  0.00  0.00    +0.019 C 
ATOM      5  C   UNL     1      -9.462  10.611  66.809  0.00  0.00    -0.045 C 
ATOM      6  C   UNL     1      -8.804  11.255  65.492  0.00  0.00    +0.040 C 
ATOM      7  C   UNL     1      -8.960   9.415  67.095  0.00  0.00    -0.033 C 
ATOM      8  C   UNL     1      -8.480   9.197  68.434  0.00  0.00    -0.024 C 
ATOM      9  C   UNL     1      -8.628   8.030  68.997  0.00  0.00    +0.033 C 
ATOM     10  C   UNL     1      -9.547   7.118  68.296  0.00  0.00    +0.173 C 
ATOM     11  C   UNL     1     -10.500   7.612  67.253  0.00  0.00    +0.074 C 
ATOM     12  O   UNL     1      -9.622   5.917  68.694  0.00  0.00    -0.291 OA
ATOM     13  C   UNL     1      -7.616  10.296  68.970  0.00  0.00    +0.026 C 
ATOM     14  C   UNL     1      -9.797   8.535  66.263  0.00  0.00    +0.034 C 
ATOM     15  C   UNL     1      -7.804  11.555  68.125  0.00  0.00    +0.009 C 
ATOM     16  C   UNL     1     -10.258  13.902  68.049  0.00  0.00    +0.003 C 
ATOM     17  C   UNL     1     -11.710  12.066  67.081  0.00  0.00    +0.003 C 
ATOM     18  C   UNL     1     -10.292  11.784  65.004  0.00  0.00    +0.011 C 
ATOM     19  C   UNL     1     -11.126  14.730  67.156  0.00  0.00    +0.038 C 
ATOM     20  O   UNL     1     -10.138  14.662  65.050  0.00  0.00    -0.218 OA
ENDROOT
BRANCH   6  21
ATOM     21  C   UNL     1      -8.789   9.921  64.571  0.00  0.00    -0.019 A 
ATOM     22  C   UNL     1      -9.612  10.016  63.449  0.00  0.00    -0.003 A 
ATOM     23  C   UNL     1      -9.127   9.904  62.150  0.00  0.00    +0.014 A 
ATOM     24  C   UNL     1      -7.849   9.457  61.929  0.00  0.00    +0.048 A 
ATOM     25  C   UNL     1      -7.140   9.075  63.061  0.00  0.00    +0.014 A 
ATOM     26  C   UNL     1      -7.439   9.841  64.184  0.00  0.00    -0.003 A 
BRANCH  24  27
ATOM     27  N   UNL     1      -7.220   9.622  60.650  0.00  0.00    -0.304 N 
ATOM     28  C   UNL     1      -7.060   8.482  59.759  0.00  0.00    +0.112 C 
ATOM     29  C   UNL     1      -6.139  10.603  60.603  0.00  0.00    +0.112 C 
ENDBRANCH  24  27
ENDBRANCH   6  21
BRANCH   1  31
ATOM     30  C   UNL     1     -13.060  14.112  65.478  0.00  0.00    +0.075 C 
ATOM     31  C   UNL     1     -12.437  14.140  65.140  0.00  0.00    +0.178 C 
ATOM     32  O   UNL     1     -12.391  14.341  63.931  0.00  0.00    -0.293 OA
ENDBRANCH   1  31
TORSDOF 3
ENDMDL
