MODEL 1
REMARK VINA RESULT:      -5.1      0.000      0.000
REMARK  Name = 
REMARK  3 active torsions:
REMARK  status: ('A' for Active; 'I' for Inactive)
REMARK    1  A    between atoms: CA_2  and  CB_3
REMARK    2  A    between atoms: CA_2  and  C_10
REMARK    3  A    between atoms: CB_3  and  CG_4
REMARK                            x       y       z     vdW  Elec       q    Type
REMARK                         _______ _______ _______ _____ _____    ______ ____
ROOT
ATOM      1  CB  PHE A   1     -12.735  14.651  71.115  0.00  0.00    +0.057 C 
ENDROOT
BRANCH   1   2
ATOM      2  CG  PHE A   1     -12.423  13.191  70.979  0.00  0.00    -0.020 A 
ATOM      3  CD2 PHE A   1     -13.172  12.322  71.751  0.00  0.00    -0.004 A 
ATOM      4  CE2 PHE A   1     -13.005  10.954  71.661  0.00  0.00    -0.000 A 
ATOM      5  CZ  PHE A   1     -12.435  10.434  70.509  0.00  0.00    -0.000 A 
ATOM      6  CE1 PHE A   1     -11.784  11.313  69.654  0.00  0.00    -0.000 A 
ATOM      7  CD1 PHE A   1     -11.898  12.690  69.796  0.00  0.00    -0.004 A 
ENDBRANCH   1   2
BRANCH   1   9
ATOM      8  N   PHE A   1     -14.694  15.692  71.930  0.00  0.00    -0.120 NA
ATOM      9  CA  PHE A   1     -13.590  14.706  72.556  0.00  0.00    +0.199 C 
BRANCH   9  10
ATOM     10  C   PHE A   1     -12.692  15.955  73.130  0.00  0.00    +0.382 C 
ATOM     11  OXT PHE A   1     -12.666  16.022  74.510  0.00  0.00    -0.244 OA
ATOM     12  O   PHE A   1     -11.854  16.417  72.359  0.00  0.00    -0.244 OA
ENDBRANCH   9  10
ENDBRANCH   1   9
TORSDOF 3
ENDMDL
MODEL 2
REMARK VINA RESULT:      -4.8      5.449      6.554
REMARK  Name = 
REMARK  3 active torsions:
REMARK  status: ('A' for Active; 'I' for Inactive)
REMARK    1  A    between atoms: CA_2  and  CB_3
REMARK    2  A    between atoms: CA_2  and  C_10
REMARK    3  A    between atoms: CB_3  and  CG_4
REMARK                            x       y       z     vdW  Elec       q    Type
REMARK                         _______ _______ _______ _____ _____    ______ ____
ROOT
ATOM      1  CB  PHE A   1     -10.581  13.466  64.912  0.00  0.00    +0.057 C 
ENDROOT
BRANCH   1   2
ATOM      2  CG  PHE A   1     -10.617  12.486  66.046  0.00  0.00    -0.020 A 
ATOM      3  CD2 PHE A   1     -11.493  12.764  67.080  0.00  0.00    -0.004 A 
ATOM      4  CE2 PHE A   1     -11.647  11.898  68.144  0.00  0.00    -0.000 A 
ATOM      5  CZ  PHE A   1     -11.284  10.572  67.973  0.00  0.00    -0.000 A 
ATOM      6  CE1 PHE A   1     -10.506  10.250  66.870  0.00  0.00    -0.000 A 
ATOM      7  CD1 PHE A   1     -10.295  11.152  65.835  0.00  0.00    -0.004 A 
ENDBRANCH   1   2
BRANCH   1   9
ATOM      8  N   PHE A   1     -12.534  14.345  63.915  0.00  0.00    -0.120 NA
ATOM      9  CA  PHE A   1     -11.795  14.545  65.327  0.00  0.00    +0.199 C 
BRANCH   9  10
ATOM     10  C   PHE A   1     -10.940  15.836  64.782  0.00  0.00    +0.382 C 
ATOM     11  OXT PHE A   1     -11.648  16.627  63.896  0.00  0.00    -0.244 OA
ATOM     12  O   PHE A   1      -9.988  16.186  65.475  0.00  0.00    -0.244 OA
ENDBRANCH   9  10
ENDBRANCH   1   9
TORSDOF 3
ENDMDL
MODEL 3
REMARK VINA RESULT:      -4.8      5.562      6.602
REMARK  Name = 
REMARK  3 active torsions:
REMARK  status: ('A' for Active; 'I' for Inactive)
REMARK    1  A    between atoms: CA_2  and  CB_3
REMARK    2  A    between atoms: CA_2  and  C_10
REMARK    3  A    between atoms: CB_3  and  CG_4
REMARK                            x       y       z     vdW  Elec       q    Type
REMARK                         _______ _______ _______ _____ _____    ______ ____
ROOT
ATOM      1  CB  PHE A   1     -11.363  14.587  66.610  0.00  0.00    +0.057 C 
ENDROOT
BRANCH   1   2
ATOM      2  CG  PHE A   1     -11.447  13.115  66.882  0.00  0.00    -0.020 A 
ATOM      3  CD2 PHE A   1     -10.648  12.294  66.108  0.00  0.00    -0.004 A 
ATOM      4  CE2 PHE A   1     -10.606  10.929  66.314  0.00  0.00    -0.000 A 
ATOM      5  CZ  PHE A   1     -10.994  10.437  67.550  0.00  0.00    -0.000 A 
ATOM      6  CE1 PHE A   1     -11.691  11.288  68.397  0.00  0.00    -0.000 A 
ATOM      7  CD1 PHE A   1     -11.791  12.650  68.144  0.00  0.00    -0.004 A 
ENDBRANCH   1   2
BRANCH   1   9
ATOM      8  N   PHE A   1      -9.907  16.073  65.490  0.00  0.00    -0.120 NA
ATOM      9  CA  PHE A   1     -10.544  14.639  65.147  0.00  0.00    +0.199 C 
BRANCH   9  10
ATOM     10  C   PHE A   1     -11.824  15.310  64.368  0.00  0.00    +0.382 C 
ATOM     11  OXT PHE A   1     -11.592  16.608  63.953  0.00  0.00    -0.244 OA
ATOM     12  O   PHE A   1     -12.640  14.525  63.893  0.00  0.00    -0.244 OA
ENDBRANCH   9  10
ENDBRANCH   1   9
TORSDOF 3
ENDMDL
MODEL 4
REMARK VINA RESULT:      -4.8      5.002      6.295
REMARK  Name = 
REMARK  3 active torsions:
REMARK  status: ('A' for Active; 'I' for Inactive)
REMARK    1  A    between atoms: CA_2  and  CB_3
REMARK    2  A    between atoms: CA_2  and  C_10
REMARK    3  A    between atoms: CB_3  and  CG_4
REMARK                            x       y       z     vdW  Elec       q    Type
REMARK                         _______ _______ _______ _____ _____    ______ ____
ROOT
ATOM      1  CB  PHE A   1     -11.113  13.266  65.483  0.00  0.00    +0.057 C 
ENDROOT
BRANCH   1   2
ATOM      2  CG  PHE A   1     -11.519  12.736  66.825  0.00  0.00    -0.020 A 
ATOM      3  CD2 PHE A   1     -11.203  11.416  67.093  0.00  0.00    -0.004 A 
ATOM      4  CE2 PHE A   1     -11.479  10.845  68.319  0.00  0.00    -0.000 A 
ATOM      5  CZ  PHE A   1     -11.650  11.681  69.411  0.00  0.00    -0.000 A 
ATOM      6  CE1 PHE A   1     -11.845  13.033  69.169  0.00  0.00    -0.000 A 
ATOM      7  CD1 PHE A   1     -11.634  13.589  67.914  0.00  0.00    -0.004 A 
ENDBRANCH   1   2
BRANCH   1   9
ATOM      8  N   PHE A   1     -12.515  13.960  63.711  0.00  0.00    -0.120 NA
ATOM      9  CA  PHE A   1     -12.248  14.471  65.211  0.00  0.00    +0.199 C 
BRANCH   9  10
ATOM     10  C   PHE A   1     -11.105  15.543  64.722  0.00  0.00    +0.382 C 
ATOM     11  OXT PHE A   1     -11.611  16.561  63.936  0.00  0.00    -0.244 OA
ATOM     12  O   PHE A   1     -10.075  15.577  65.391  0.00  0.00    -0.244 OA
ENDBRANCH   9  10
ENDBRANCH   1   9
TORSDOF 3
ENDMDL
MODEL 5
REMARK VINA RESULT:      -4.8      2.147      3.011
REMARK  Name = 
REMARK  3 active torsions:
REMARK  status: ('A' for Active; 'I' for Inactive)
REMARK    1  A    between atoms: CA_2  and  CB_3
REMARK    2  A    between atoms: CA_2  and  C_10
REMARK    3  A    between atoms: CB_3  and  CG_4
REMARK                            x       y       z     vdW  Elec       q    Type
REMARK                         _______ _______ _______ _____ _____    ______ ____
ROOT
ATOM      1  CB  PHE A   1     -12.043  14.060  70.936  0.00  0.00    +0.057 C 
ENDROOT
BRANCH   1   2
ATOM      2  CG  PHE A   1     -12.091  13.535  69.533  0.00  0.00    -0.020 A 
ATOM      3  CD2 PHE A   1     -11.937  14.462  68.517  0.00  0.00    -0.004 A 
ATOM      4  CE2 PHE A   1     -11.907  14.078  67.191  0.00  0.00    -0.000 A 
ATOM      5  CZ  PHE A   1     -11.580  12.765  66.893  0.00  0.00    -0.000 A 
ATOM      6  CE1 PHE A   1     -11.607  11.839  67.927  0.00  0.00    -0.000 A 
ATOM      7  CD1 PHE A   1     -11.710  12.229  69.256  0.00  0.00    -0.004 A 
ENDBRANCH   1   2
BRANCH   1   9
ATOM      8  N   PHE A   1     -12.055  16.135  72.066  0.00  0.00    -0.120 NA
ATOM      9  CA  PHE A   1     -12.837  15.531  70.799  0.00  0.00    +0.199 C 
BRANCH   9  10
ATOM     10  C   PHE A   1     -14.096  15.025  71.724  0.00  0.00    +0.382 C 
ATOM     11  OXT PHE A   1     -13.701  14.444  72.915  0.00  0.00    -0.244 OA
ATOM     12  O   PHE A   1     -15.183  15.546  71.489  0.00  0.00    -0.244 OA
ENDBRANCH   9  10
ENDBRANCH   1   9
TORSDOF 3
ENDMDL
MODEL 6
REMARK VINA RESULT:      -4.7      0.997      1.399
REMARK  Name = 
REMARK  3 active torsions:
REMARK  status: ('A' for Active; 'I' for Inactive)
REMARK    1  A    between atoms: CA_2  and  CB_3
REMARK    2  A    between atoms: CA_2  and  C_10
REMARK    3  A    between atoms: CB_3  and  CG_4
REMARK                            x       y       z     vdW  Elec       q    Type
REMARK                         _______ _______ _______ _____ _____    ______ ____
ROOT
ATOM      1  CB  PHE A   1     -12.539  15.266  70.836  0.00  0.00    +0.057 C 
ENDROOT
BRANCH   1   2
ATOM      2  CG  PHE A   1     -12.031  14.051  70.122  0.00  0.00    -0.020 A 
ATOM      3  CD2 PHE A   1     -12.363  12.824  70.670  0.00  0.00    -0.004 A 
ATOM      4  CE2 PHE A   1     -11.996  11.641  70.060  0.00  0.00    -0.000 A 
ATOM      5  CZ  PHE A   1     -11.703  11.661  68.705  0.00  0.00    -0.000 A 
ATOM      6  CE1 PHE A   1     -11.489  12.895  68.106  0.00  0.00    -0.000 A 
ATOM      7  CD1 PHE A   1     -11.793  14.085  68.754  0.00  0.00    -0.004 A 
ENDBRANCH   1   2
BRANCH   1   9
ATOM      8  N   PHE A   1     -14.554  15.650  72.009  0.00  0.00    -0.120 NA
ATOM      9  CA  PHE A   1     -13.342  14.605  72.152  0.00  0.00    +0.199 C 
BRANCH   9  10
ATOM     10  C   PHE A   1     -12.543  15.562  73.219  0.00  0.00    +0.382 C 
ATOM     11  OXT PHE A   1     -12.294  14.944  74.430  0.00  0.00    -0.244 OA
ATOM     12  O   PHE A   1     -11.919  16.505  72.737  0.00  0.00    -0.244 OA
ENDBRANCH   9  10
ENDBRANCH   1   9
TORSDOF 3
ENDMDL
MODEL 7
REMARK VINA RESULT:      -4.7      3.689      4.933
REMARK  Name = 
REMARK  3 active torsions:
REMARK  status: ('A' for Active; 'I' for Inactive)
REMARK    1  A    between atoms: CA_2  and  CB_3
REMARK    2  A    between atoms: CA_2  and  C_10
REMARK    3  A    between atoms: CB_3  and  CG_4
REMARK                            x       y       z     vdW  Elec       q    Type
REMARK                         _______ _______ _______ _____ _____    ______ ____
ROOT
ATOM      1  CB  PHE A   1     -12.059  14.957  69.210  0.00  0.00    +0.057 C 
ENDROOT
BRANCH   1   2
ATOM      2  CG  PHE A   1     -12.459  15.126  70.644  0.00  0.00    -0.020 A 
ATOM      3  CD2 PHE A   1     -12.998  14.019  71.274  0.00  0.00    -0.004 A 
ATOM      4  CE2 PHE A   1     -13.346  14.050  72.611  0.00  0.00    -0.000 A 
ATOM      5  CZ  PHE A   1     -12.756  15.005  73.423  0.00  0.00    -0.000 A 
ATOM      6  CE1 PHE A   1     -12.099  16.063  72.809  0.00  0.00    -0.000 A 
ATOM      7  CD1 PHE A   1     -11.816  16.058  71.449  0.00  0.00    -0.004 A 
ENDBRANCH   1   2
BRANCH   1   9
ATOM      8  N   PHE A   1      -9.903  14.099  68.764  0.00  0.00    -0.120 NA
ATOM      9  CA  PHE A   1     -11.305  13.459  69.219  0.00  0.00    +0.199 C 
BRANCH   9  10
ATOM     10  C   PHE A   1     -11.747  13.142  67.670  0.00  0.00    +0.382 C 
ATOM     11  OXT PHE A   1     -12.053  11.812  67.449  0.00  0.00    -0.244 OA
ATOM     12  O   PHE A   1     -12.141  14.102  67.013  0.00  0.00    -0.244 OA
ENDBRANCH   9  10
ENDBRANCH   1   9
TORSDOF 3
ENDMDL
MODEL 8
REMARK VINA RESULT:      -4.7      9.119     10.144
REMARK  Name = 
REMARK  3 active torsions:
REMARK  status: ('A' for Active; 'I' for Inactive)
REMARK    1  A    between atoms: CA_2  and  CB_3
REMARK    2  A    between atoms: CA_2  and  C_10
REMARK    3  A    between atoms: CB_3  and  CG_4
REMARK                            x       y       z     vdW  Elec       q    Type
REMARK                         _______ _______ _______ _____ _____    ______ ____
ROOT
ATOM      1  CB  PHE A   1      -6.159  20.182  70.515  0.00  0.00    +0.057 C 
ENDROOT
BRANCH   1   2
ATOM      2  CG  PHE A   1      -6.423  20.023  69.048  0.00  0.00    -0.020 A 
ATOM      3  CD2 PHE A   1      -7.552  19.306  68.695  0.00  0.00    -0.004 A 
ATOM      4  CE2 PHE A   1      -7.920  19.148  67.373  0.00  0.00    -0.000 A 
ATOM      5  CZ  PHE A   1      -7.441  20.058  66.444  0.00  0.00    -0.000 A 
ATOM      6  CE1 PHE A   1      -6.386  20.877  66.821  0.00  0.00    -0.000 A 
ATOM      7  CD1 PHE A   1      -5.974  20.975  68.144  0.00  0.00    -0.004 A 
ENDBRANCH   1   2
BRANCH   1   9
ATOM      8  N   PHE A   1      -5.055  18.565  71.838  0.00  0.00    -0.120 NA
ATOM      9  CA  PHE A   1      -4.604  19.574  70.671  0.00  0.00    +0.199 C 
BRANCH   9  10
ATOM     10  C   PHE A   1      -4.173  20.740  71.743  0.00  0.00    +0.382 C 
ATOM     11  OXT PHE A   1      -3.238  20.315  72.668  0.00  0.00    -0.244 OA
ATOM     12  O   PHE A   1      -4.383  21.899  71.394  0.00  0.00    -0.244 OA
ENDBRANCH   9  10
ENDBRANCH   1   9
TORSDOF 3
ENDMDL
MODEL 9
REMARK VINA RESULT:      -4.6      6.121      7.481
REMARK  Name = 
REMARK  3 active torsions:
REMARK  status: ('A' for Active; 'I' for Inactive)
REMARK    1  A    between atoms: CA_2  and  CB_3
REMARK    2  A    between atoms: CA_2  and  C_10
REMARK    3  A    between atoms: CB_3  and  CG_4
REMARK                            x       y       z     vdW  Elec       q    Type
REMARK                         _______ _______ _______ _____ _____    ______ ____
ROOT
ATOM      1  CB  PHE A   1     -10.586  14.124  66.024  0.00  0.00    +0.057 C 
ENDROOT
BRANCH   1   2
ATOM      2  CG  PHE A   1     -10.342  15.444  66.690  0.00  0.00    -0.020 A 
ATOM      3  CD2 PHE A   1     -10.257  16.551  65.864  0.00  0.00    -0.004 A 
ATOM      4  CE2 PHE A   1     -10.093  17.822  66.378  0.00  0.00    -0.000 A 
ATOM      5  CZ  PHE A   1     -10.459  18.052  67.695  0.00  0.00    -0.000 A 
ATOM      6  CE1 PHE A   1     -10.672  16.950  68.511  0.00  0.00    -0.000 A 
ATOM      7  CD1 PHE A   1     -10.764  15.664  67.994  0.00  0.00    -0.004 A 
ENDBRANCH   1   2
BRANCH   1   9
ATOM      8  N   PHE A   1     -11.958  12.294  66.617  0.00  0.00    -0.120 NA
ATOM      9  CA  PHE A   1     -12.212  13.856  66.335  0.00  0.00    +0.199 C 
BRANCH   9  10
ATOM     10  C   PHE A   1     -12.550  13.591  64.751  0.00  0.00    +0.382 C 
ATOM     11  OXT PHE A   1     -13.188  12.386  64.521  0.00  0.00    -0.244 OA
ATOM     12  O   PHE A   1     -12.588  14.587  64.033  0.00  0.00    -0.244 OA
ENDBRANCH   9  10
ENDBRANCH   1   9
TORSDOF 3
ENDMDL
