MODEL 1
REMARK VINA RESULT:      -6.2      0.000      0.000
REMARK  Name = 
REMARK  8 active torsions:
REMARK  status: ('A' for Active; 'I' for Inactive)
REMARK    1  A    between atoms: O_2  and  C_3
REMARK    2  A    between atoms: C_3  and  C_4
REMARK    3  A    between atoms: C_4  and  C_5
REMARK    4  A    between atoms: C_5  and  O_6
REMARK    5  A    between atoms: O_6  and  C_7
REMARK    6  A    between atoms: C_11  and  C_12
REMARK    7  A    between atoms: C_12  and  S_13
REMARK    8  A    between atoms: S_13  and  C_15
REMARK                            x       y       z     vdW  Elec       q    Type
REMARK                         _______ _______ _______ _____ _____    ______ ____
ROOT
ATOM      1  C   UNL     1      -9.868  16.599  66.108  0.00  0.00    +0.137 A 
ATOM      2  C   UNL     1      -9.573  16.033  67.328  0.00  0.00    +0.027 A 
ATOM      3  C   UNL     1      -8.650  14.856  67.354  0.00  0.00    +0.035 C 
ATOM      4  C   UNL     1     -10.105  16.490  68.525  0.00  0.00    +0.072 A 
ATOM      5  N   UNL     1     -10.561  17.765  68.512  0.00  0.00    -0.247 NA
ATOM      6  C   UNL     1     -10.538  18.500  67.373  0.00  0.00    +0.102 A 
ATOM      7  C   UNL     1     -10.362  17.894  66.136  0.00  0.00    +0.057 A 
ENDROOT
BRANCH   4   8
ATOM      8  C   UNL     1     -10.033  15.687  69.787  0.00  0.00    +0.145 C 
BRANCH   8   9
ATOM      9  S   UNL     1     -11.784  15.493  70.327  0.00  0.00    +0.107 S 
ATOM     10  O   UNL     1     -11.563  15.254  71.850  0.00  0.00    -0.248 OA
BRANCH   9  11
ATOM     11  C   UNL     1     -12.121  13.809  69.757  0.00  0.00    +0.221 A 
ATOM     12  N   UNL     1     -12.232  12.773  70.624  0.00  0.00    -0.218 NA
ATOM     13  C   UNL     1     -11.951  11.611  69.986  0.00  0.00    +0.101 A 
ATOM     14  C   UNL     1     -11.866  11.912  68.632  0.00  0.00    +0.101 A 
ATOM     15  C   UNL     1     -11.083  11.047  67.877  0.00  0.00    +0.021 A 
ATOM     16  C   UNL     1     -10.523   9.901  68.383  0.00  0.00    +0.002 A 
ATOM     17  C   UNL     1     -10.527   9.693  69.750  0.00  0.00    +0.002 A 
ATOM     18  C   UNL     1     -11.500  10.385  70.460  0.00  0.00    +0.021 A 
ATOM     19  N   UNL     1     -11.836  13.267  68.575  0.00  0.00    -0.218 NA
ENDBRANCH   9  11
ENDBRANCH   8   9
ENDBRANCH   4   8
BRANCH   1  20
ATOM     20  O   UNL     1     -10.050  15.757  65.006  0.00  0.00    -0.476 OA
BRANCH  20  21
ATOM     21  C   UNL     1     -11.305  15.100  64.845  0.00  0.00    +0.208 C 
BRANCH  21  22
ATOM     22  C   UNL     1     -11.132  13.588  64.816  0.00  0.00    +0.079 C 
BRANCH  22  23
ATOM     23  C   UNL     1     -12.484  12.893  64.918  0.00  0.00    +0.146 C 
BRANCH  23  25
ATOM     24  C   UNL     1     -12.575  11.970  63.394  0.00  0.00    +0.174 C 
ATOM     25  O   UNL     1     -12.765  12.262  63.696  0.00  0.00    -0.351 OA
ENDBRANCH  23  25
ENDBRANCH  22  23
ENDBRANCH  21  22
ENDBRANCH  20  21
ENDBRANCH   1  20
TORSDOF 8
ENDMDL
MODEL 2
REMARK VINA RESULT:      -6.0      2.479      7.421
REMARK  Name = 
REMARK  8 active torsions:
REMARK  status: ('A' for Active; 'I' for Inactive)
REMARK    1  A    between atoms: O_2  and  C_3
REMARK    2  A    between atoms: C_3  and  C_4
REMARK    3  A    between atoms: C_4  and  C_5
REMARK    4  A    between atoms: C_5  and  O_6
REMARK    5  A    between atoms: O_6  and  C_7
REMARK    6  A    between atoms: C_11  and  C_12
REMARK    7  A    between atoms: C_12  and  S_13
REMARK    8  A    between atoms: S_13  and  C_15
REMARK                            x       y       z     vdW  Elec       q    Type
REMARK                         _______ _______ _______ _____ _____    ______ ____
ROOT
ATOM      1  C   UNL     1     -11.903  13.605  70.011  0.00  0.00    +0.137 A 
ATOM      2  C   UNL     1     -10.898  13.997  69.155  0.00  0.00    +0.027 A 
ATOM      3  C   UNL     1     -10.293  15.351  69.351  0.00  0.00    +0.035 C 
ATOM      4  C   UNL     1     -10.437  13.205  68.114  0.00  0.00    +0.072 A 
ATOM      5  N   UNL     1     -10.686  11.879  68.233  0.00  0.00    -0.247 NA
ATOM      6  C   UNL     1     -11.392  11.397  69.285  0.00  0.00    +0.102 A 
ATOM      7  C   UNL     1     -12.150  12.243  70.084  0.00  0.00    +0.057 A 
ENDROOT
BRANCH   4   8
ATOM      8  C   UNL     1      -9.583  13.755  67.013  0.00  0.00    +0.145 C 
BRANCH   8   9
ATOM      9  S   UNL     1     -10.772  14.471  65.801  0.00  0.00    +0.107 S 
ATOM     10  O   UNL     1     -10.208  13.856  64.485  0.00  0.00    -0.248 OA
BRANCH   9  11
ATOM     11  C   UNL     1     -10.149  16.165  65.686  0.00  0.00    +0.221 A 
ATOM     12  N   UNL     1      -8.929  16.509  66.166  0.00  0.00    -0.218 NA
ATOM     13  C   UNL     1      -8.908  17.834  66.452  0.00  0.00    +0.101 A 
ATOM     14  C   UNL     1     -10.082  18.370  65.938  0.00  0.00    +0.101 A 
ATOM     15  C   UNL     1     -10.526  19.533  66.556  0.00  0.00    +0.021 A 
ATOM     16  C   UNL     1      -9.813  20.193  67.524  0.00  0.00    +0.002 A 
ATOM     17  C   UNL     1      -8.714  19.575  68.093  0.00  0.00    +0.002 A 
ATOM     18  C   UNL     1      -8.125  18.575  67.329  0.00  0.00    +0.021 A 
ATOM     19  N   UNL     1     -10.848  17.296  65.618  0.00  0.00    -0.218 NA
ENDBRANCH   9  11
ENDBRANCH   8   9
ENDBRANCH   4   8
BRANCH   1  20
ATOM     20  O   UNL     1     -12.847  14.555  70.414  0.00  0.00    -0.476 OA
BRANCH  20  21
ATOM     21  C   UNL     1     -13.668  14.270  71.544  0.00  0.00    +0.208 C 
BRANCH  21  22
ATOM     22  C   UNL     1     -13.904  15.520  72.379  0.00  0.00    +0.079 C 
BRANCH  22  23
ATOM     23  C   UNL     1     -12.601  15.998  73.007  0.00  0.00    +0.146 C 
BRANCH  23  25
ATOM     24  C   UNL     1     -12.436  15.917  74.782  0.00  0.00    +0.174 C 
ATOM     25  O   UNL     1     -12.695  15.872  74.402  0.00  0.00    -0.351 OA
ENDBRANCH  23  25
ENDBRANCH  22  23
ENDBRANCH  21  22
ENDBRANCH  20  21
ENDBRANCH   1  20
TORSDOF 8
ENDMDL
MODEL 3
REMARK VINA RESULT:      -6.0      2.684      5.238
REMARK  Name = 
REMARK  8 active torsions:
REMARK  status: ('A' for Active; 'I' for Inactive)
REMARK    1  A    between atoms: O_2  and  C_3
REMARK    2  A    between atoms: C_3  and  C_4
REMARK    3  A    between atoms: C_4  and  C_5
REMARK    4  A    between atoms: C_5  and  O_6
REMARK    5  A    between atoms: O_6  and  C_7
REMARK    6  A    between atoms: C_11  and  C_12
REMARK    7  A    between atoms: C_12  and  S_13
REMARK    8  A    between atoms: S_13  and  C_15
REMARK                            x       y       z     vdW  Elec       q    Type
REMARK                         _______ _______ _______ _____ _____    ______ ____
ROOT
ATOM      1  C   UNL     1      -8.948  16.234  66.115  0.00  0.00    +0.137 A 
ATOM      2  C   UNL     1      -9.872  15.223  65.970  0.00  0.00    +0.027 A 
ATOM      3  C   UNL     1     -10.875  15.338  64.866  0.00  0.00    +0.035 C 
ATOM      4  C   UNL     1      -9.927  14.120  66.809  0.00  0.00    +0.072 A 
ATOM      5  N   UNL     1      -8.787  13.843  67.486  0.00  0.00    -0.247 NA
ATOM      6  C   UNL     1      -7.700  14.645  67.373  0.00  0.00    +0.102 A 
ATOM      7  C   UNL     1      -7.808  15.923  66.840  0.00  0.00    +0.057 A 
ENDROOT
BRANCH   4   8
ATOM      8  C   UNL     1     -11.110  13.202  66.842  0.00  0.00    +0.145 C 
BRANCH   8   9
ATOM      9  S   UNL     1     -10.955  12.284  68.432  0.00  0.00    +0.107 S 
ATOM     10  O   UNL     1     -11.888  11.074  68.129  0.00  0.00    -0.248 OA
BRANCH   9  11
ATOM     11  C   UNL     1     -12.021  13.285  69.499  0.00  0.00    +0.221 A 
ATOM     12  N   UNL     1     -11.862  14.626  69.606  0.00  0.00    -0.218 NA
ATOM     13  C   UNL     1     -12.366  15.052  70.790  0.00  0.00    +0.101 A 
ATOM     14  C   UNL     1     -13.046  13.974  71.343  0.00  0.00    +0.101 A 
ATOM     15  C   UNL     1     -13.166  13.993  72.728  0.00  0.00    +0.021 A 
ATOM     16  C   UNL     1     -12.760  15.047  73.506  0.00  0.00    +0.002 A 
ATOM     17  C   UNL     1     -11.987  16.045  72.942  0.00  0.00    +0.002 A 
ATOM     18  C   UNL     1     -12.084  16.173  71.562  0.00  0.00    +0.021 A 
ATOM     19  N   UNL     1     -12.681  12.905  70.590  0.00  0.00    -0.218 NA
ENDBRANCH   9  11
ENDBRANCH   8   9
ENDBRANCH   4   8
BRANCH   1  20
ATOM     20  O   UNL     1      -9.362  17.553  65.909  0.00  0.00    -0.476 OA
BRANCH  20  21
ATOM     21  C   UNL     1     -10.409  18.078  66.722  0.00  0.00    +0.208 C 
BRANCH  21  22
ATOM     22  C   UNL     1      -9.852  18.725  67.982  0.00  0.00    +0.079 C 
BRANCH  22  23
ATOM     23  C   UNL     1      -8.744  19.712  67.632  0.00  0.00    +0.146 C 
BRANCH  23  25
ATOM     24  C   UNL     1      -7.461  19.178  68.750  0.00  0.00    +0.174 C 
ATOM     25  O   UNL     1      -7.588  19.372  68.352  0.00  0.00    -0.351 OA
ENDBRANCH  23  25
ENDBRANCH  22  23
ENDBRANCH  21  22
ENDBRANCH  20  21
ENDBRANCH   1  20
TORSDOF 8
ENDMDL
MODEL 4
REMARK VINA RESULT:      -5.9      2.633      4.855
REMARK  Name = 
REMARK  8 active torsions:
REMARK  status: ('A' for Active; 'I' for Inactive)
REMARK    1  A    between atoms: O_2  and  C_3
REMARK    2  A    between atoms: C_3  and  C_4
REMARK    3  A    between atoms: C_4  and  C_5
REMARK    4  A    between atoms: C_5  and  O_6
REMARK    5  A    between atoms: O_6  and  C_7
REMARK    6  A    between atoms: C_11  and  C_12
REMARK    7  A    between atoms: C_12  and  S_13
REMARK    8  A    between atoms: S_13  and  C_15
REMARK                            x       y       z     vdW  Elec       q    Type
REMARK                         _______ _______ _______ _____ _____    ______ ____
ROOT
ATOM      1  C   UNL     1     -10.373  13.009  66.391  0.00  0.00    +0.137 A 
ATOM      2  C   UNL     1      -9.576  14.083  66.718  0.00  0.00    +0.027 A 
ATOM      3  C   UNL     1      -8.273  13.811  67.401  0.00  0.00    +0.035 C 
ATOM      4  C   UNL     1      -9.934  15.399  66.464  0.00  0.00    +0.072 A 
ATOM      5  N   UNL     1     -10.866  15.574  65.498  0.00  0.00    -0.247 NA
ATOM      6  C   UNL     1     -11.436  14.510  64.880  0.00  0.00    +0.102 A 
ATOM      7  C   UNL     1     -11.337  13.234  65.421  0.00  0.00    +0.057 A 
ENDROOT
BRANCH   4   8
ATOM      8  C   UNL     1      -9.222  16.554  67.097  0.00  0.00    +0.145 C 
BRANCH   8   9
ATOM      9  S   UNL     1     -10.539  17.500  67.974  0.00  0.00    +0.107 S 
ATOM     10  O   UNL     1      -9.653  18.397  68.888  0.00  0.00    -0.248 OA
BRANCH   9  11
ATOM     11  C   UNL     1     -11.108  16.255  69.158  0.00  0.00    +0.221 A 
ATOM     12  N   UNL     1     -12.401  15.853  69.202  0.00  0.00    -0.218 NA
ATOM     13  C   UNL     1     -12.686  15.368  70.435  0.00  0.00    +0.101 A 
ATOM     14  C   UNL     1     -11.478  15.272  71.114  0.00  0.00    +0.101 A 
ATOM     15  C   UNL     1     -11.566  15.328  72.500  0.00  0.00    +0.021 A 
ATOM     16  C   UNL     1     -12.758  15.351  73.179  0.00  0.00    +0.002 A 
ATOM     17  C   UNL     1     -13.931  15.563  72.478  0.00  0.00    +0.002 A 
ATOM     18  C   UNL     1     -13.887  15.252  71.125  0.00  0.00    +0.021 A 
ATOM     19  N   UNL     1     -10.589  15.952  70.346  0.00  0.00    -0.218 NA
ENDBRANCH   9  11
ENDBRANCH   8   9
ENDBRANCH   4   8
BRANCH   1  20
ATOM     20  O   UNL     1     -10.456  11.939  67.288  0.00  0.00    -0.476 OA
BRANCH  20  21
ATOM     21  C   UNL     1     -11.705  11.673  67.924  0.00  0.00    +0.208 C 
BRANCH  21  22
ATOM     22  C   UNL     1     -11.647  12.013  69.406  0.00  0.00    +0.079 C 
BRANCH  22  23
ATOM     23  C   UNL     1     -12.200  10.863  70.240  0.00  0.00    +0.146 C 
BRANCH  23  25
ATOM     24  C   UNL     1     -11.034   9.690  70.910  0.00  0.00    +0.174 C 
ATOM     25  O   UNL     1     -11.127  10.112  70.747  0.00  0.00    -0.351 OA
ENDBRANCH  23  25
ENDBRANCH  22  23
ENDBRANCH  21  22
ENDBRANCH  20  21
ENDBRANCH   1  20
TORSDOF 8
ENDMDL
MODEL 5
REMARK VINA RESULT:      -5.9      3.058      5.410
REMARK  Name = 
REMARK  8 active torsions:
REMARK  status: ('A' for Active; 'I' for Inactive)
REMARK    1  A    between atoms: O_2  and  C_3
REMARK    2  A    between atoms: C_3  and  C_4
REMARK    3  A    between atoms: C_4  and  C_5
REMARK    4  A    between atoms: C_5  and  O_6
REMARK    5  A    between atoms: O_6  and  C_7
REMARK    6  A    between atoms: C_11  and  C_12
REMARK    7  A    between atoms: C_12  and  S_13
REMARK    8  A    between atoms: S_13  and  C_15
REMARK                            x       y       z     vdW  Elec       q    Type
REMARK                         _______ _______ _______ _____ _____    ______ ____
ROOT
ATOM      1  C   UNL     1      -8.392  18.803  66.475  0.00  0.00    +0.137 A 
ATOM      2  C   UNL     1      -8.469  17.625  67.185  0.00  0.00    +0.027 A 
ATOM      3  C   UNL     1      -7.193  16.912  67.507  0.00  0.00    +0.035 C 
ATOM      4  C   UNL     1      -9.669  17.063  67.595  0.00  0.00    +0.072 A 
ATOM      5  N   UNL     1     -10.718  17.915  67.668  0.00  0.00    -0.247 NA
ATOM      6  C   UNL     1     -10.585  19.214  67.303  0.00  0.00    +0.102 A 
ATOM      7  C   UNL     1      -9.497  19.636  66.550  0.00  0.00    +0.057 A 
ENDROOT
BRANCH   4   8
ATOM      8  C   UNL     1      -9.762  15.648  68.078  0.00  0.00    +0.145 C 
BRANCH   8   9
ATOM      9  S   UNL     1     -11.538  15.408  68.505  0.00  0.00    +0.107 S 
ATOM     10  O   UNL     1     -11.383  14.615  69.836  0.00  0.00    -0.248 OA
BRANCH   9  11
ATOM     11  C   UNL     1     -11.978  14.079  67.359  0.00  0.00    +0.221 A 
ATOM     12  N   UNL     1     -11.431  12.843  67.458  0.00  0.00    -0.218 NA
ATOM     13  C   UNL     1     -11.481  12.224  66.254  0.00  0.00    +0.101 A 
ATOM     14  C   UNL     1     -12.270  13.017  65.431  0.00  0.00    +0.101 A 
ATOM     15  C   UNL     1     -12.026  12.891  64.069  0.00  0.00    +0.021 A 
ATOM     16  C   UNL     1     -11.160  11.967  63.540  0.00  0.00    +0.002 A 
ATOM     17  C   UNL     1     -10.309  11.278  64.385  0.00  0.00    +0.002 A 
ATOM     18  C   UNL     1     -10.712  11.201  65.711  0.00  0.00    +0.021 A 
ATOM     19  N   UNL     1     -12.420  14.184  66.107  0.00  0.00    -0.218 NA
ENDBRANCH   9  11
ENDBRANCH   8   9
ENDBRANCH   4   8
BRANCH   1  20
ATOM     20  O   UNL     1      -7.453  18.903  65.444  0.00  0.00    -0.476 OA
BRANCH  20  21
ATOM     21  C   UNL     1      -6.803  20.154  65.229  0.00  0.00    +0.208 C 
BRANCH  21  22
ATOM     22  C   UNL     1      -5.572  20.291  66.115  0.00  0.00    +0.079 C 
BRANCH  22  23
ATOM     23  C   UNL     1      -5.814  21.324  67.208  0.00  0.00    +0.146 C 
BRANCH  23  25
ATOM     24  C   UNL     1      -5.986  20.596  68.828  0.00  0.00    +0.174 C 
ATOM     25  O   UNL     1      -6.144  20.658  68.399  0.00  0.00    -0.351 OA
ENDBRANCH  23  25
ENDBRANCH  22  23
ENDBRANCH  21  22
ENDBRANCH  20  21
ENDBRANCH   1  20
TORSDOF 8
ENDMDL
MODEL 6
REMARK VINA RESULT:      -5.9      3.751      6.400
REMARK  Name = 
REMARK  8 active torsions:
REMARK  status: ('A' for Active; 'I' for Inactive)
REMARK    1  A    between atoms: O_2  and  C_3
REMARK    2  A    between atoms: C_3  and  C_4
REMARK    3  A    between atoms: C_4  and  C_5
REMARK    4  A    between atoms: C_5  and  O_6
REMARK    5  A    between atoms: O_6  and  C_7
REMARK    6  A    between atoms: C_11  and  C_12
REMARK    7  A    between atoms: C_12  and  S_13
REMARK    8  A    between atoms: S_13  and  C_15
REMARK                            x       y       z     vdW  Elec       q    Type
REMARK                         _______ _______ _______ _____ _____    ______ ____
ROOT
ATOM      1  C   UNL     1      -7.705  19.515  66.892  0.00  0.00    +0.137 A 
ATOM      2  C   UNL     1      -8.977  19.014  67.058  0.00  0.00    +0.027 A 
ATOM      3  C   UNL     1     -10.102  19.987  67.223  0.00  0.00    +0.035 C 
ATOM      4  C   UNL     1      -9.259  17.656  67.098  0.00  0.00    +0.072 A 
ATOM      5  N   UNL     1      -8.330  16.850  66.531  0.00  0.00    -0.247 NA
ATOM      6  C   UNL     1      -7.184  17.363  66.019  0.00  0.00    +0.102 A 
ATOM      7  C   UNL     1      -6.774  18.651  66.338  0.00  0.00    +0.057 A 
ENDROOT
BRANCH   4   8
ATOM      8  C   UNL     1     -10.572  17.129  67.588  0.00  0.00    +0.145 C 
BRANCH   8   9
ATOM      9  S   UNL     1     -10.363  15.299  67.629  0.00  0.00    +0.107 S 
ATOM     10  O   UNL     1     -11.685  14.869  66.924  0.00  0.00    -0.248 OA
BRANCH   9  11
ATOM     11  C   UNL     1     -10.767  14.958  69.360  0.00  0.00    +0.221 A 
ATOM     12  N   UNL     1     -11.573  13.927  69.713  0.00  0.00    -0.218 NA
ATOM     13  C   UNL     1     -12.140  14.183  70.917  0.00  0.00    +0.101 A 
ATOM     14  C   UNL     1     -11.506  15.311  71.423  0.00  0.00    +0.101 A 
ATOM     15  C   UNL     1     -12.248  16.054  72.334  0.00  0.00    +0.021 A 
ATOM     16  C   UNL     1     -13.472  15.658  72.810  0.00  0.00    +0.002 A 
ATOM     17  C   UNL     1     -14.124  14.600  72.203  0.00  0.00    +0.002 A 
ATOM     18  C   UNL     1     -13.312  13.717  71.502  0.00  0.00    +0.021 A 
ATOM     19  N   UNL     1     -10.794  15.811  70.382  0.00  0.00    -0.218 NA
ENDBRANCH   9  11
ENDBRANCH   8   9
ENDBRANCH   4   8
BRANCH   1  20
ATOM     20  O   UNL     1      -7.328  20.642  67.629  0.00  0.00    -0.476 OA
BRANCH  20  21
ATOM     21  C   UNL     1      -5.959  21.040  67.620  0.00  0.00    +0.208 C 
BRANCH  21  22
ATOM     22  C   UNL     1      -5.341  20.906  69.005  0.00  0.00    +0.079 C 
BRANCH  22  23
ATOM     23  C   UNL     1      -6.217  20.037  69.899  0.00  0.00    +0.146 C 
BRANCH  23  25
ATOM     24  C   UNL     1      -5.844  20.245  71.632  0.00  0.00    +0.174 C 
ATOM     25  O   UNL     1      -6.015  20.412  71.237  0.00  0.00    -0.351 OA
ENDBRANCH  23  25
ENDBRANCH  22  23
ENDBRANCH  21  22
ENDBRANCH  20  21
ENDBRANCH   1  20
TORSDOF 8
ENDMDL
MODEL 7
REMARK VINA RESULT:      -5.9      2.851      7.322
REMARK  Name = 
REMARK  8 active torsions:
REMARK  status: ('A' for Active; 'I' for Inactive)
REMARK    1  A    between atoms: O_2  and  C_3
REMARK    2  A    between atoms: C_3  and  C_4
REMARK    3  A    between atoms: C_4  and  C_5
REMARK    4  A    between atoms: C_5  and  O_6
REMARK    5  A    between atoms: O_6  and  C_7
REMARK    6  A    between atoms: C_11  and  C_12
REMARK    7  A    between atoms: C_12  and  S_13
REMARK    8  A    between atoms: S_13  and  C_15
REMARK                            x       y       z     vdW  Elec       q    Type
REMARK                         _______ _______ _______ _____ _____    ______ ____
ROOT
ATOM      1  C   UNL     1     -11.583  11.063  68.399  0.00  0.00    +0.137 A 
ATOM      2  C   UNL     1     -11.677  12.299  67.797  0.00  0.00    +0.027 A 
ATOM      3  C   UNL     1     -11.965  13.484  68.664  0.00  0.00    +0.035 C 
ATOM      4  C   UNL     1     -11.537  12.490  66.431  0.00  0.00    +0.072 A 
ATOM      5  N   UNL     1     -10.872  11.513  65.769  0.00  0.00    -0.247 NA
ATOM      6  C   UNL     1     -10.436  10.407  66.419  0.00  0.00    +0.102 A 
ATOM      7  C   UNL     1     -10.923  10.080  67.679  0.00  0.00    +0.057 A 
ENDROOT
BRANCH   4   8
ATOM      8  C   UNL     1     -11.948  13.763  65.759  0.00  0.00    +0.145 C 
BRANCH   8   9
ATOM      9  S   UNL     1     -10.367  14.606  65.329  0.00  0.00    +0.107 S 
ATOM     10  O   UNL     1      -9.422  13.938  66.373  0.00  0.00    -0.248 OA
BRANCH   9  11
ATOM     11  C   UNL     1     -10.636  16.225  66.092  0.00  0.00    +0.221 A 
ATOM     12  N   UNL     1     -10.386  17.377  65.424  0.00  0.00    -0.218 NA
ATOM     13  C   UNL     1     -10.146  18.375  66.309  0.00  0.00    +0.101 A 
ATOM     14  C   UNL     1     -10.462  17.875  67.566  0.00  0.00    +0.101 A 
ATOM     15  C   UNL     1      -9.809  18.485  68.631  0.00  0.00    +0.021 A 
ATOM     16  C   UNL     1      -8.999  19.583  68.490  0.00  0.00    +0.002 A 
ATOM     17  C   UNL     1      -8.614  19.981  67.223  0.00  0.00    +0.002 A 
ATOM     18  C   UNL     1      -9.440  19.565  66.186  0.00  0.00    +0.021 A 
ATOM     19  N   UNL     1     -10.613  16.539  67.385  0.00  0.00    -0.218 NA
ENDBRANCH   9  11
ENDBRANCH   8   9
ENDBRANCH   4   8
BRANCH   1  20
ATOM     20  O   UNL     1     -12.464  10.757  69.441  0.00  0.00    -0.476 OA
BRANCH  20  21
ATOM     21  C   UNL     1     -11.925  10.380  70.706  0.00  0.00    +0.208 C 
BRANCH  21  22
ATOM     22  C   UNL     1     -13.032  10.102  71.712  0.00  0.00    +0.079 C 
BRANCH  22  23
ATOM     23  C   UNL     1     -13.213   8.601  71.906  0.00  0.00    +0.146 C 
BRANCH  23  25
ATOM     24  C   UNL     1     -14.873   7.946  71.891  0.00  0.00    +0.174 C 
ATOM     25  O   UNL     1     -14.579   8.291  71.805  0.00  0.00    -0.351 OA
ENDBRANCH  23  25
ENDBRANCH  22  23
ENDBRANCH  21  22
ENDBRANCH  20  21
ENDBRANCH   1  20
TORSDOF 8
ENDMDL
MODEL 8
REMARK VINA RESULT:      -5.8      1.756      5.678
REMARK  Name = 
REMARK  8 active torsions:
REMARK  status: ('A' for Active; 'I' for Inactive)
REMARK    1  A    between atoms: O_2  and  C_3
REMARK    2  A    between atoms: C_3  and  C_4
REMARK    3  A    between atoms: C_4  and  C_5
REMARK    4  A    between atoms: C_5  and  O_6
REMARK    5  A    between atoms: O_6  and  C_7
REMARK    6  A    between atoms: C_11  and  C_12
REMARK    7  A    between atoms: C_12  and  S_13
REMARK    8  A    between atoms: S_13  and  C_15
REMARK                            x       y       z     vdW  Elec       q    Type
REMARK                         _______ _______ _______ _____ _____    ______ ____
ROOT
ATOM      1  C   UNL     1     -10.533  11.762  67.492  0.00  0.00    +0.137 A 
ATOM      2  C   UNL     1     -11.358  12.795  67.877  0.00  0.00    +0.027 A 
ATOM      3  C   UNL     1     -11.818  13.757  66.828  0.00  0.00    +0.035 C 
ATOM      4  C   UNL     1     -11.762  12.995  69.189  0.00  0.00    +0.072 A 
ATOM      5  N   UNL     1     -11.691  11.908  69.994  0.00  0.00    -0.247 NA
ATOM      6  C   UNL     1     -11.199  10.733  69.532  0.00  0.00    +0.102 A 
ATOM      7  C   UNL     1     -10.462  10.680  68.356  0.00  0.00    +0.057 A 
ENDROOT
BRANCH   4   8
ATOM      8  C   UNL     1     -12.386  14.278  69.643  0.00  0.00    +0.145 C 
BRANCH   8   9
ATOM      9  S   UNL     1     -11.007  15.233  70.406  0.00  0.00    +0.107 S 
ATOM     10  O   UNL     1     -11.829  16.281  71.214  0.00  0.00    -0.248 OA
BRANCH   9  11
ATOM     11  C   UNL     1     -10.472  16.228  68.992  0.00  0.00    +0.221 A 
ATOM     12  N   UNL     1      -9.166  16.522  68.783  0.00  0.00    -0.218 NA
ATOM     13  C   UNL     1      -9.066  17.653  68.042  0.00  0.00    +0.101 A 
ATOM     14  C   UNL     1     -10.349  17.954  67.601  0.00  0.00    +0.101 A 
ATOM     15  C   UNL     1     -10.579  19.293  67.309  0.00  0.00    +0.021 A 
ATOM     16  C   UNL     1      -9.596  20.249  67.327  0.00  0.00    +0.002 A 
ATOM     17  C   UNL     1      -8.365  19.943  67.879  0.00  0.00    +0.002 A 
ATOM     18  C   UNL     1      -8.048  18.592  67.925  0.00  0.00    +0.021 A 
ATOM     19  N   UNL     1     -11.166  17.145  68.321  0.00  0.00    -0.218 NA
ENDBRANCH   9  11
ENDBRANCH   8   9
ENDBRANCH   4   8
BRANCH   1  20
ATOM     20  O   UNL     1      -9.547  12.014  66.533  0.00  0.00    -0.476 OA
BRANCH  20  21
ATOM     21  C   UNL     1      -9.260  11.008  65.565  0.00  0.00    +0.208 C 
BRANCH  21  22
ATOM     22  C   UNL     1     -10.454  10.769  64.652  0.00  0.00    +0.079 C 
BRANCH  22  23
ATOM     23  C   UNL     1     -10.639  11.941  63.695  0.00  0.00    +0.146 C 
BRANCH  23  25
ATOM     24  C   UNL     1     -12.379  12.122  63.349  0.00  0.00    +0.174 C 
ATOM     25  O   UNL     1     -12.007  12.237  63.597  0.00  0.00    -0.351 OA
ENDBRANCH  23  25
ENDBRANCH  22  23
ENDBRANCH  21  22
ENDBRANCH  20  21
ENDBRANCH   1  20
TORSDOF 8
ENDMDL
MODEL 9
REMARK VINA RESULT:      -5.8      2.663      7.011
REMARK  Name = 
REMARK  8 active torsions:
REMARK  status: ('A' for Active; 'I' for Inactive)
REMARK    1  A    between atoms: O_2  and  C_3
REMARK    2  A    between atoms: C_3  and  C_4
REMARK    3  A    between atoms: C_4  and  C_5
REMARK    4  A    between atoms: C_5  and  O_6
REMARK    5  A    between atoms: O_6  and  C_7
REMARK    6  A    between atoms: C_11  and  C_12
REMARK    7  A    between atoms: C_12  and  S_13
REMARK    8  A    between atoms: S_13  and  C_15
REMARK                            x       y       z     vdW  Elec       q    Type
REMARK                         _______ _______ _______ _____ _____    ______ ____
ROOT
ATOM      1  C   UNL     1     -12.107  12.350  70.201  0.00  0.00    +0.137 A 
ATOM      2  C   UNL     1     -11.510  12.441  68.964  0.00  0.00    +0.027 A 
ATOM      3  C   UNL     1     -11.549  11.239  68.073  0.00  0.00    +0.035 C 
ATOM      4  C   UNL     1     -10.861  13.582  68.516  0.00  0.00    +0.072 A 
ATOM      5  N   UNL     1     -11.211  14.734  69.136  0.00  0.00    -0.247 NA
ATOM      6  C   UNL     1     -12.098  14.730  70.161  0.00  0.00    +0.102 A 
ATOM      7  C   UNL     1     -12.423  13.550  70.819  0.00  0.00    +0.057 A 
ENDROOT
BRANCH   4   8
ATOM      8  C   UNL     1      -9.957  13.568  67.323  0.00  0.00    +0.145 C 
BRANCH   8   9
ATOM      9  S   UNL     1     -10.907  14.424  65.996  0.00  0.00    +0.107 S 
ATOM     10  O   UNL     1     -10.245  13.780  64.742  0.00  0.00    -0.248 OA
BRANCH   9  11
ATOM     11  C   UNL     1     -10.109  16.048  66.013  0.00  0.00    +0.221 A 
ATOM     12  N   UNL     1      -9.154  16.363  66.921  0.00  0.00    -0.218 NA
ATOM     13  C   UNL     1      -9.105  17.707  67.084  0.00  0.00    +0.101 A 
ATOM     14  C   UNL     1      -9.909  18.258  66.094  0.00  0.00    +0.101 A 
ATOM     15  C   UNL     1     -10.434  19.512  66.381  0.00  0.00    +0.021 A 
ATOM     16  C   UNL     1     -10.101  20.231  67.500  0.00  0.00    +0.002 A 
ATOM     17  C   UNL     1      -9.395  19.612  68.516  0.00  0.00    +0.002 A 
ATOM     18  C   UNL     1      -8.663  18.492  68.143  0.00  0.00    +0.021 A 
ATOM     19  N   UNL     1     -10.595  17.208  65.575  0.00  0.00    -0.218 NA
ENDBRANCH   9  11
ENDBRANCH   8   9
ENDBRANCH   4   8
BRANCH   1  20
ATOM     20  O   UNL     1     -11.987  11.154  70.916  0.00  0.00    -0.476 OA
BRANCH  20  21
ATOM     21  C   UNL     1     -13.098  10.702  71.688  0.00  0.00    +0.208 C 
BRANCH  21  22
ATOM     22  C   UNL     1     -12.984   9.215  71.992  0.00  0.00    +0.079 C 
BRANCH  22  23
ATOM     23  C   UNL     1     -11.782   8.613  71.275  0.00  0.00    +0.146 C 
BRANCH  23  25
ATOM     24  C   UNL     1     -12.014   6.875  70.945  0.00  0.00    +0.174 C 
ATOM     25  O   UNL     1     -12.109   7.316  70.848  0.00  0.00    -0.351 OA
ENDBRANCH  23  25
ENDBRANCH  22  23
ENDBRANCH  21  22
ENDBRANCH  20  21
ENDBRANCH   1  20
TORSDOF 8
ENDMDL
