MODEL 1
REMARK VINA RESULT:      -5.4      0.000      0.000
REMARK  Name = 
REMARK  2 active torsions:
REMARK  status: ('A' for Active; 'I' for Inactive)
REMARK    1  A    between atoms: C_6  and  C_7
REMARK    2  A    between atoms: C_7  and  C_9
REMARK                            x       y       z     vdW  Elec       q    Type
REMARK                         _______ _______ _______ _____ _____    ______ ____
ROOT
ATOM      1  C   UNL     1     -12.645   9.879  71.730  0.00  0.00    +0.031 C 
ATOM      2  C   UNL     1     -12.609  11.237  71.107  0.00  0.00    -0.026 A 
ATOM      3  C   UNL     1     -11.744  11.457  70.038  0.00  0.00    -0.029 A 
ATOM      4  C   UNL     1     -11.599  10.319  69.080  0.00  0.00    +0.030 C 
ATOM      5  C   UNL     1     -11.816  12.693  69.484  0.00  0.00    -0.021 A 
ATOM      6  C   UNL     1     -12.077  13.807  70.274  0.00  0.00    -0.004 A 
ATOM      7  C   UNL     1     -12.949  13.603  71.335  0.00  0.00    -0.001 A 
ATOM      8  C   UNL     1     -13.183  12.312  71.776  0.00  0.00    -0.005 A 
ENDROOT
BRANCH   5   9
ATOM      9  C   UNL     1     -10.791  13.006  68.251  0.00  0.00    +0.064 C 
ATOM     10  C   UNL     1     -10.698  14.626  68.639  0.00  0.00    +0.011 C 
BRANCH   9  11
ATOM     11  C   UNL     1     -11.975  13.274  67.146  0.00  0.00    +0.084 A 
ATOM     12  N   UNL     1     -12.142  12.400  66.136  0.00  0.00    -0.226 NA
ATOM     13  C   UNL     1     -12.392  13.068  64.984  0.00  0.00    +0.199 A 
ATOM     14  N   UNL     1     -11.710  14.232  65.121  0.00  0.00    -0.221 NA
ATOM     15  C   UNL     1     -11.717  14.461  66.459  0.00  0.00    +0.116 A 
ENDBRANCH   9  11
ENDBRANCH   5   9
TORSDOF 2
ENDMDL
MODEL 2
REMARK VINA RESULT:      -5.3      2.950      4.882
REMARK  Name = 
REMARK  2 active torsions:
REMARK  status: ('A' for Active; 'I' for Inactive)
REMARK    1  A    between atoms: C_6  and  C_7
REMARK    2  A    between atoms: C_7  and  C_9
REMARK                            x       y       z     vdW  Elec       q    Type
REMARK                         _______ _______ _______ _____ _____    ______ ____
ROOT
ATOM      1  C   UNL     1     -11.011  12.070  65.897  0.00  0.00    +0.031 C 
ATOM      2  C   UNL     1     -11.506  12.350  67.279  0.00  0.00    -0.026 A 
ATOM      3  C   UNL     1     -11.536  13.670  67.720  0.00  0.00    -0.029 A 
ATOM      4  C   UNL     1     -11.924  14.686  66.693  0.00  0.00    +0.030 C 
ATOM      5  C   UNL     1     -12.059  13.852  68.959  0.00  0.00    -0.021 A 
ATOM      6  C   UNL     1     -11.866  12.899  69.953  0.00  0.00    -0.004 A 
ATOM      7  C   UNL     1     -11.846  11.577  69.526  0.00  0.00    -0.001 A 
ATOM      8  C   UNL     1     -11.626  11.305  68.187  0.00  0.00    -0.005 A 
ENDROOT
BRANCH   5   9
ATOM      9  C   UNL     1     -12.080  15.381  69.530  0.00  0.00    +0.064 C 
ATOM     10  C   UNL     1     -10.484  15.306  70.010  0.00  0.00    +0.011 C 
BRANCH   9  11
ATOM     11  C   UNL     1     -12.614  14.967  71.026  0.00  0.00    +0.084 A 
ATOM     12  N   UNL     1     -13.800  15.440  71.456  0.00  0.00    -0.226 NA
ATOM     13  C   UNL     1     -13.707  15.804  72.757  0.00  0.00    +0.199 A 
ATOM     14  N   UNL     1     -12.423  16.213  72.897  0.00  0.00    -0.221 NA
ATOM     15  C   UNL     1     -11.740  15.466  71.993  0.00  0.00    +0.116 A 
ENDBRANCH   9  11
ENDBRANCH   5   9
TORSDOF 2
ENDMDL
MODEL 3
REMARK VINA RESULT:      -5.2      1.901      3.585
REMARK  Name = 
REMARK  2 active torsions:
REMARK  status: ('A' for Active; 'I' for Inactive)
REMARK    1  A    between atoms: C_6  and  C_7
REMARK    2  A    between atoms: C_7  and  C_9
REMARK                            x       y       z     vdW  Elec       q    Type
REMARK                         _______ _______ _______ _____ _____    ______ ____
ROOT
ATOM      1  C   UNL     1     -11.377  10.282  70.039  0.00  0.00    +0.031 C 
ATOM      2  C   UNL     1     -11.127  10.885  68.694  0.00  0.00    -0.026 A 
ATOM      3  C   UNL     1     -11.754  12.088  68.378  0.00  0.00    -0.029 A 
ATOM      4  C   UNL     1     -11.870  13.070  69.499  0.00  0.00    +0.030 C 
ATOM      5  C   UNL     1     -11.427  12.606  67.168  0.00  0.00    -0.021 A 
ATOM      6  C   UNL     1     -11.169  11.769  66.087  0.00  0.00    -0.004 A 
ATOM      7  C   UNL     1     -10.533  10.572  66.389  0.00  0.00    -0.001 A 
ATOM      8  C   UNL     1     -10.549  10.112  67.694  0.00  0.00    -0.005 A 
ENDROOT
BRANCH   5   9
ATOM      9  C   UNL     1     -12.167  13.998  66.740  0.00  0.00    +0.064 C 
ATOM     10  C   UNL     1     -12.472  13.450  65.194  0.00  0.00    +0.011 C 
BRANCH   9  11
ATOM     11  C   UNL     1     -10.788  14.753  66.267  0.00  0.00    +0.084 A 
ATOM     12  N   UNL     1     -10.338  15.805  66.977  0.00  0.00    -0.226 NA
ATOM     13  C   UNL     1      -9.886  16.768  66.138  0.00  0.00    +0.199 A 
ATOM     14  N   UNL     1     -10.662  16.638  65.035  0.00  0.00    -0.221 NA
ATOM     15  C   UNL     1     -10.970  15.316  65.004  0.00  0.00    +0.116 A 
ENDBRANCH   9  11
ENDBRANCH   5   9
TORSDOF 2
ENDMDL
MODEL 4
REMARK VINA RESULT:      -5.2      2.655      4.582
REMARK  Name = 
REMARK  2 active torsions:
REMARK  status: ('A' for Active; 'I' for Inactive)
REMARK    1  A    between atoms: C_6  and  C_7
REMARK    2  A    between atoms: C_7  and  C_9
REMARK                            x       y       z     vdW  Elec       q    Type
REMARK                         _______ _______ _______ _____ _____    ______ ____
ROOT
ATOM      1  C   UNL     1     -10.720   9.448  68.281  0.00  0.00    +0.031 C 
ATOM      2  C   UNL     1     -10.534  10.203  67.005  0.00  0.00    -0.026 A 
ATOM      3  C   UNL     1     -11.290  11.354  66.796  0.00  0.00    -0.029 A 
ATOM      4  C   UNL     1     -11.519  12.204  68.005  0.00  0.00    +0.030 C 
ATOM      5  C   UNL     1     -11.018  12.021  65.646  0.00  0.00    -0.021 A 
ATOM      6  C   UNL     1     -10.665  11.326  64.495  0.00  0.00    -0.004 A 
ATOM      7  C   UNL     1      -9.901  10.183  64.690  0.00  0.00    -0.001 A 
ATOM      8  C   UNL     1      -9.869   9.599  65.944  0.00  0.00    -0.005 A 
ENDROOT
BRANCH   5   9
ATOM      9  C   UNL     1     -11.907  13.357  65.344  0.00  0.00    +0.064 C 
ATOM     10  C   UNL     1     -12.117  12.947  63.740  0.00  0.00    +0.011 C 
BRANCH   9  11
ATOM     11  C   UNL     1     -10.617  14.311  64.997  0.00  0.00    +0.084 A 
ATOM     12  N   UNL     1      -9.689  14.534  65.947  0.00  0.00    -0.226 NA
ATOM     13  C   UNL     1      -9.302  15.831  65.918  0.00  0.00    +0.199 A 
ATOM     14  N   UNL     1     -10.408  16.498  65.506  0.00  0.00    -0.221 NA
ATOM     15  C   UNL     1     -11.053  15.606  64.713  0.00  0.00    +0.116 A 
ENDBRANCH   9  11
ENDBRANCH   5   9
TORSDOF 2
ENDMDL
MODEL 5
REMARK VINA RESULT:      -5.1      1.428      2.423
REMARK  Name = 
REMARK  2 active torsions:
REMARK  status: ('A' for Active; 'I' for Inactive)
REMARK    1  A    between atoms: C_6  and  C_7
REMARK    2  A    between atoms: C_7  and  C_9
REMARK                            x       y       z     vdW  Elec       q    Type
REMARK                         _______ _______ _______ _____ _____    ______ ____
ROOT
ATOM      1  C   UNL     1     -12.705  13.433  71.505  0.00  0.00    +0.031 C 
ATOM      2  C   UNL     1     -12.291  14.009  70.189  0.00  0.00    -0.026 A 
ATOM      3  C   UNL     1     -11.590  13.199  69.300  0.00  0.00    -0.029 A 
ATOM      4  C   UNL     1     -12.018  11.766  69.256  0.00  0.00    +0.030 C 
ATOM      5  C   UNL     1     -11.308  13.769  68.102  0.00  0.00    -0.021 A 
ATOM      6  C   UNL     1     -11.024  15.127  68.016  0.00  0.00    -0.004 A 
ATOM      7  C   UNL     1     -11.727  15.947  68.890  0.00  0.00    -0.001 A 
ATOM      8  C   UNL     1     -12.329  15.386  70.002  0.00  0.00    -0.005 A 
ENDROOT
BRANCH   5   9
ATOM      9  C   UNL     1     -10.454  12.867  67.042  0.00  0.00    +0.064 C 
ATOM     10  C   UNL     1      -9.384  14.108  66.729  0.00  0.00    +0.011 C 
BRANCH   9  11
ATOM     11  C   UNL     1     -11.381  13.255  65.744  0.00  0.00    +0.084 A 
ATOM     12  N   UNL     1     -12.351  12.408  65.352  0.00  0.00    -0.226 NA
ATOM     13  C   UNL     1     -12.376  12.329  64.000  0.00  0.00    +0.199 A 
ATOM     14  N   UNL     1     -11.086  12.520  63.632  0.00  0.00    -0.221 NA
ATOM     15  C   UNL     1     -10.584  13.327  64.601  0.00  0.00    +0.116 A 
ENDBRANCH   9  11
ENDBRANCH   5   9
TORSDOF 2
ENDMDL
MODEL 6
REMARK VINA RESULT:      -5.0      4.284      7.063
REMARK  Name = 
REMARK  2 active torsions:
REMARK  status: ('A' for Active; 'I' for Inactive)
REMARK    1  A    between atoms: C_6  and  C_7
REMARK    2  A    between atoms: C_7  and  C_9
REMARK                            x       y       z     vdW  Elec       q    Type
REMARK                         _______ _______ _______ _____ _____    ______ ____
ROOT
ATOM      1  C   UNL     1      -6.958  20.408  67.722  0.00  0.00    +0.031 C 
ATOM      2  C   UNL     1      -8.284  19.721  67.680  0.00  0.00    -0.026 A 
ATOM      3  C   UNL     1      -8.321  18.336  67.817  0.00  0.00    -0.029 A 
ATOM      4  C   UNL     1      -7.340  17.756  68.786  0.00  0.00    +0.030 C 
ATOM      5  C   UNL     1      -9.564  17.792  67.836  0.00  0.00    -0.021 A 
ATOM      6  C   UNL     1     -10.585  18.339  67.068  0.00  0.00    -0.004 A 
ATOM      7  C   UNL     1     -10.566  19.721  66.935  0.00  0.00    -0.001 A 
ATOM      8  C   UNL     1      -9.396  20.408  67.206  0.00  0.00    -0.005 A 
ENDROOT
BRANCH   5   9
ATOM      9  C   UNL     1      -9.652  16.166  67.958  0.00  0.00    +0.064 C 
ATOM     10  C   UNL     1     -10.179  15.999  66.383  0.00  0.00    +0.011 C 
BRANCH   9  11
ATOM     11  C   UNL     1     -11.187  16.149  68.540  0.00  0.00    +0.084 A 
ATOM     12  N   UNL     1     -11.398  16.404  69.845  0.00  0.00    -0.226 NA
ATOM     13  C   UNL     1     -12.342  15.565  70.332  0.00  0.00    +0.199 A 
ATOM     14  N   UNL     1     -12.184  14.431  69.608  0.00  0.00    -0.221 NA
ATOM     15  C   UNL     1     -11.726  14.869  68.407  0.00  0.00    +0.116 A 
ENDBRANCH   9  11
ENDBRANCH   5   9
TORSDOF 2
ENDMDL
MODEL 7
REMARK VINA RESULT:      -4.9      4.591      7.315
REMARK  Name = 
REMARK  2 active torsions:
REMARK  status: ('A' for Active; 'I' for Inactive)
REMARK    1  A    between atoms: C_6  and  C_7
REMARK    2  A    between atoms: C_7  and  C_9
REMARK                            x       y       z     vdW  Elec       q    Type
REMARK                         _______ _______ _______ _____ _____    ______ ____
ROOT
ATOM      1  C   UNL     1     -11.594  11.887  69.453  0.00  0.00    +0.031 C 
ATOM      2  C   UNL     1     -11.824  10.841  70.495  0.00  0.00    -0.026 A 
ATOM      3  C   UNL     1     -11.093   9.658  70.422  0.00  0.00    -0.029 A 
ATOM      4  C   UNL     1      -9.674   9.802  69.973  0.00  0.00    +0.030 C 
ATOM      5  C   UNL     1     -11.307   8.785  71.439  0.00  0.00    -0.021 A 
ATOM      6  C   UNL     1     -12.566   8.670  72.017  0.00  0.00    -0.004 A 
ATOM      7  C   UNL     1     -13.299   9.846  72.106  0.00  0.00    -0.001 A 
ATOM      8  C   UNL     1     -12.946  10.922  71.311  0.00  0.00    -0.005 A 
ENDROOT
BRANCH   5   9
ATOM      9  C   UNL     1     -10.497   7.368  71.373  0.00  0.00    +0.064 C 
ATOM     10  C   UNL     1     -11.786   6.577  70.666  0.00  0.00    +0.011 C 
BRANCH   9  11
ATOM     11  C   UNL     1     -10.942   6.880  72.876  0.00  0.00    +0.084 A 
ATOM     12  N   UNL     1     -10.084   7.040  73.901  0.00  0.00    -0.226 NA
ATOM     13  C   UNL     1     -10.110   5.947  74.700  0.00  0.00    +0.199 A 
ATOM     14  N   UNL     1     -10.389   4.925  73.856  0.00  0.00    -0.221 NA
ATOM     15  C   UNL     1     -11.141   5.499  72.883  0.00  0.00    +0.116 A 
ENDBRANCH   9  11
ENDBRANCH   5   9
TORSDOF 2
ENDMDL
MODEL 8
REMARK VINA RESULT:      -4.9      3.218      5.010
REMARK  Name = 
REMARK  2 active torsions:
REMARK  status: ('A' for Active; 'I' for Inactive)
REMARK    1  A    between atoms: C_6  and  C_7
REMARK    2  A    between atoms: C_7  and  C_9
REMARK                            x       y       z     vdW  Elec       q    Type
REMARK                         _______ _______ _______ _____ _____    ______ ____
ROOT
ATOM      1  C   UNL     1     -11.883  12.442  65.994  0.00  0.00    +0.031 C 
ATOM      2  C   UNL     1     -11.525  13.553  66.927  0.00  0.00    -0.026 A 
ATOM      3  C   UNL     1     -10.554  14.469  66.529  0.00  0.00    -0.029 A 
ATOM      4  C   UNL     1     -10.572  14.841  65.080  0.00  0.00    +0.030 C 
ATOM      5  C   UNL     1     -10.332  15.486  67.399  0.00  0.00    -0.021 A 
ATOM      6  C   UNL     1     -10.421  15.275  68.770  0.00  0.00    -0.004 A 
ATOM      7  C   UNL     1     -11.395  14.373  69.179  0.00  0.00    -0.001 A 
ATOM      8  C   UNL     1     -11.919  13.483  68.258  0.00  0.00    -0.005 A 
ENDROOT
BRANCH   5   9
ATOM      9  C   UNL     1      -9.175  16.563  66.989  0.00  0.00    +0.064 C 
ATOM     10  C   UNL     1      -8.743  16.821  68.580  0.00  0.00    +0.011 C 
BRANCH   9  11
ATOM     11  C   UNL     1     -10.181  17.860  66.987  0.00  0.00    +0.084 A 
ATOM     12  N   UNL     1     -10.449  18.484  65.824  0.00  0.00    -0.226 NA
ATOM     13  C   UNL     1     -10.456  19.825  66.010  0.00  0.00    +0.199 A 
ATOM     14  N   UNL     1      -9.555  20.027  67.002  0.00  0.00    -0.221 NA
ATOM     15  C   UNL     1      -9.621  18.892  67.742  0.00  0.00    +0.116 A 
ENDBRANCH   9  11
ENDBRANCH   5   9
TORSDOF 2
ENDMDL
MODEL 9
REMARK VINA RESULT:      -4.8      1.678      2.578
REMARK  Name = 
REMARK  2 active torsions:
REMARK  status: ('A' for Active; 'I' for Inactive)
REMARK    1  A    between atoms: C_6  and  C_7
REMARK    2  A    between atoms: C_7  and  C_9
REMARK                            x       y       z     vdW  Elec       q    Type
REMARK                         _______ _______ _______ _____ _____    ______ ____
ROOT
ATOM      1  C   UNL     1      -8.638   9.552  69.515  0.00  0.00    +0.031 C 
ATOM      2  C   UNL     1      -9.841  10.360  69.151  0.00  0.00    -0.026 A 
ATOM      3  C   UNL     1      -9.698  11.385  68.220  0.00  0.00    -0.029 A 
ATOM      4  C   UNL     1      -8.760  11.105  67.089  0.00  0.00    +0.030 C 
ATOM      5  C   UNL     1     -10.846  12.029  67.892  0.00  0.00    -0.021 A 
ATOM      6  C   UNL     1     -11.842  12.226  68.842  0.00  0.00    -0.004 A 
ATOM      7  C   UNL     1     -12.002  11.204  69.768  0.00  0.00    -0.001 A 
ATOM      8  C   UNL     1     -10.978  10.291  69.949  0.00  0.00    -0.005 A 
ENDROOT
BRANCH   5   9
ATOM      9  C   UNL     1     -10.718  13.264  66.830  0.00  0.00    +0.064 C 
ATOM     10  C   UNL     1     -11.796  14.210  67.683  0.00  0.00    +0.011 C 
BRANCH   9  11
ATOM     11  C   UNL     1     -11.897  12.714  65.829  0.00  0.00    +0.084 A 
ATOM     12  N   UNL     1     -11.559  11.956  64.768  0.00  0.00    -0.226 NA
ATOM     13  C   UNL     1     -12.293  12.318  63.689  0.00  0.00    +0.199 A 
ATOM     14  N   UNL     1     -12.515  13.643  63.869  0.00  0.00    -0.221 NA
ATOM     15  C   UNL     1     -12.537  13.793  65.218  0.00  0.00    +0.116 A 
ENDBRANCH   9  11
ENDBRANCH   5   9
TORSDOF 2
ENDMDL
