MODEL 1
REMARK VINA RESULT:      -8.0      0.000      0.000
REMARK  Name = 
REMARK  1 active torsions:
REMARK  status: ('A' for Active; 'I' for Inactive)
REMARK    1  A    between atoms: C_8  and  C_9
REMARK                            x       y       z     vdW  Elec       q    Type
REMARK                         _______ _______ _______ _____ _____    ______ ____
ROOT
ATOM      1 CL   UNL     1     -11.522  10.965  69.930  0.00  0.00    -0.082 Cl
ATOM      2  C   UNL     1     -11.549  12.410  68.921  0.00  0.00    +0.058 A 
ATOM      3  C   UNL     1     -11.289  13.622  69.548  0.00  0.00    +0.014 A 
ATOM      4  C   UNL     1     -10.955  14.677  68.742  0.00  0.00    +0.034 A 
ATOM      5  C   UNL     1     -11.044  15.910  69.535  0.00  0.00    +0.078 C 
ATOM      6  N   UNL     1     -10.652  17.065  69.082  0.00  0.00    -0.262 NA
ATOM      7  C   UNL     1      -9.928  17.461  67.906  0.00  0.00    +0.191 C 
ATOM      8  C   UNL     1     -10.436  16.849  66.661  0.00  0.00    +0.172 A 
ATOM      9  N   UNL     1     -10.555  15.532  66.366  0.00  0.00    -0.273 N 
ATOM     10  C   UNL     1     -11.123  15.467  65.138  0.00  0.00    +0.207 A 
ATOM     11  N   UNL     1     -11.130  16.710  64.616  0.00  0.00    -0.125 NA
ATOM     12  N   UNL     1     -10.485  17.481  65.482  0.00  0.00    -0.131 NA
ATOM     13  C   UNL     1     -10.753  14.531  67.374  0.00  0.00    +0.068 A 
ATOM     14  C   UNL     1     -10.993  13.296  66.792  0.00  0.00    +0.019 A 
ATOM     15  C   UNL     1     -11.660  12.332  67.539  0.00  0.00    +0.013 A 
ENDROOT
BRANCH   5  16
ATOM     16  C   UNL     1     -12.065  15.941  70.589  0.00  0.00    +0.017 A 
ATOM     17  C   UNL     1     -11.731  16.011  71.935  0.00  0.00    +0.001 A 
ATOM     18  C   UNL     1     -12.336  15.187  72.877  0.00  0.00    +0.000 A 
ATOM     19  C   UNL     1     -13.608  14.729  72.582  0.00  0.00    +0.000 A 
ATOM     20  C   UNL     1     -14.129  14.899  71.313  0.00  0.00    +0.000 A 
ATOM     21  C   UNL     1     -13.224  15.224  70.316  0.00  0.00    +0.001 A 
ENDBRANCH   5  16
TORSDOF 1
ENDMDL
MODEL 2
REMARK VINA RESULT:      -7.8      2.417      4.381
REMARK  Name = 
REMARK  1 active torsions:
REMARK  status: ('A' for Active; 'I' for Inactive)
REMARK    1  A    between atoms: C_8  and  C_9
REMARK                            x       y       z     vdW  Elec       q    Type
REMARK                         _______ _______ _______ _____ _____    ______ ____
ROOT
ATOM      1 CL   UNL     1     -12.973  15.009  72.968  0.00  0.00    -0.082 Cl
ATOM      2  C   UNL     1     -12.153  14.820  71.420  0.00  0.00    +0.058 A 
ATOM      3  C   UNL     1     -12.354  13.625  70.740  0.00  0.00    +0.014 A 
ATOM      4  C   UNL     1     -12.031  13.607  69.410  0.00  0.00    +0.034 A 
ATOM      5  C   UNL     1     -11.998  12.208  68.962  0.00  0.00    +0.078 C 
ATOM      6  N   UNL     1     -11.855  11.875  67.713  0.00  0.00    -0.262 NA
ATOM      7  C   UNL     1     -11.869  12.630  66.491  0.00  0.00    +0.191 C 
ATOM      8  C   UNL     1     -11.035  13.849  66.535  0.00  0.00    +0.172 A 
ATOM      9  N   UNL     1     -11.127  14.893  67.395  0.00  0.00    -0.273 N 
ATOM     10  C   UNL     1     -10.114  15.735  67.079  0.00  0.00    +0.207 A 
ATOM     11  N   UNL     1      -9.574  15.321  65.915  0.00  0.00    -0.125 NA
ATOM     12  N   UNL     1     -10.321  14.307  65.498  0.00  0.00    -0.131 NA
ATOM     13  C   UNL     1     -11.643  14.753  68.725  0.00  0.00    +0.068 A 
ATOM     14  C   UNL     1     -11.484  15.933  69.435  0.00  0.00    +0.019 A 
ATOM     15  C   UNL     1     -11.472  15.873  70.823  0.00  0.00    +0.013 A 
ENDROOT
BRANCH   5  16
ATOM     16  C   UNL     1     -11.569  11.212  69.951  0.00  0.00    +0.017 A 
ATOM     17  C   UNL     1     -10.403  10.473  69.793  0.00  0.00    +0.001 A 
ATOM     18  C   UNL     1     -10.381   9.100  70.003  0.00  0.00    +0.000 A 
ATOM     19  C   UNL     1     -11.321   8.586  70.879  0.00  0.00    +0.000 A 
ATOM     20  C   UNL     1     -12.364   9.379  71.320  0.00  0.00    +0.000 A 
ATOM     21  C   UNL     1     -12.596  10.543  70.606  0.00  0.00    +0.001 A 
ENDBRANCH   5  16
TORSDOF 1
ENDMDL
MODEL 3
REMARK VINA RESULT:      -7.6      1.672      2.339
REMARK  Name = 
REMARK  1 active torsions:
REMARK  status: ('A' for Active; 'I' for Inactive)
REMARK    1  A    between atoms: C_8  and  C_9
REMARK                            x       y       z     vdW  Elec       q    Type
REMARK                         _______ _______ _______ _____ _____    ______ ____
ROOT
ATOM      1 CL   UNL     1     -10.205   9.548  70.594  0.00  0.00    -0.082 Cl
ATOM      2  C   UNL     1     -10.893  10.649  69.403  0.00  0.00    +0.058 A 
ATOM      3  C   UNL     1     -10.830  12.007  69.688  0.00  0.00    +0.014 A 
ATOM      4  C   UNL     1     -11.022  12.870  68.643  0.00  0.00    +0.034 A 
ATOM      5  C   UNL     1     -11.245  14.215  69.189  0.00  0.00    +0.078 C 
ATOM      6  N   UNL     1     -11.321  15.274  68.437  0.00  0.00    -0.262 NA
ATOM      7  C   UNL     1     -11.064  15.504  67.042  0.00  0.00    +0.191 C 
ATOM      8  C   UNL     1     -11.684  14.503  66.150  0.00  0.00    +0.172 A 
ATOM      9  N   UNL     1     -11.502  13.159  66.149  0.00  0.00    -0.273 N 
ATOM     10  C   UNL     1     -12.326  12.666  65.193  0.00  0.00    +0.207 A 
ATOM     11  N   UNL     1     -12.813  13.704  64.486  0.00  0.00    -0.125 NA
ATOM     12  N   UNL     1     -12.209  14.789  64.952  0.00  0.00    -0.131 NA
ATOM     13  C   UNL     1     -11.147  12.429  67.330  0.00  0.00    +0.068 A 
ATOM     14  C   UNL     1     -11.174  11.064  67.085  0.00  0.00    +0.019 A 
ATOM     15  C   UNL     1     -11.329  10.202  68.163  0.00  0.00    +0.013 A 
ENDROOT
BRANCH   5  16
ATOM     16  C   UNL     1     -11.926  14.292  70.487  0.00  0.00    +0.017 A 
ATOM     17  C   UNL     1     -13.300  14.122  70.607  0.00  0.00    +0.001 A 
ATOM     18  C   UNL     1     -14.074  14.988  71.371  0.00  0.00    +0.000 A 
ATOM     19  C   UNL     1     -13.440  15.636  72.417  0.00  0.00    +0.000 A 
ATOM     20  C   UNL     1     -12.062  15.593  72.526  0.00  0.00    +0.000 A 
ATOM     21  C   UNL     1     -11.369  15.179  71.400  0.00  0.00    +0.001 A 
ENDBRANCH   5  16
TORSDOF 1
ENDMDL
MODEL 4
REMARK VINA RESULT:      -7.6      2.188      4.627
REMARK  Name = 
REMARK  1 active torsions:
REMARK  status: ('A' for Active; 'I' for Inactive)
REMARK    1  A    between atoms: C_8  and  C_9
REMARK                            x       y       z     vdW  Elec       q    Type
REMARK                         _______ _______ _______ _____ _____    ______ ____
ROOT
ATOM      1 CL   UNL     1     -12.047  16.313  72.517  0.00  0.00    -0.082 Cl
ATOM      2  C   UNL     1     -11.919  15.683  70.876  0.00  0.00    +0.058 A 
ATOM      3  C   UNL     1     -10.897  16.189  70.083  0.00  0.00    +0.014 A 
ATOM      4  C   UNL     1     -10.566  15.471  68.966  0.00  0.00    +0.034 A 
ATOM      5  C   UNL     1      -9.723  16.314  68.108  0.00  0.00    +0.078 C 
ATOM      6  N   UNL     1      -9.137  15.862  67.038  0.00  0.00    -0.262 NA
ATOM      7  C   UNL     1      -8.968  14.541  66.499  0.00  0.00    +0.191 C 
ATOM      8  C   UNL     1     -10.214  13.747  66.472  0.00  0.00    +0.172 A 
ATOM      9  N   UNL     1     -11.016  13.417  67.513  0.00  0.00    -0.273 N 
ATOM     10  C   UNL     1     -12.063  12.736  66.986  0.00  0.00    +0.207 A 
ATOM     11  N   UNL     1     -11.776  12.465  65.697  0.00  0.00    -0.125 NA
ATOM     12  N   UNL     1     -10.537  12.893  65.492  0.00  0.00    -0.131 NA
ATOM     13  C   UNL     1     -11.123  14.228  68.691  0.00  0.00    +0.068 A 
ATOM     14  C   UNL     1     -12.120  13.744  69.525  0.00  0.00    +0.019 A 
ATOM     15  C   UNL     1     -12.693  14.615  70.443  0.00  0.00    +0.013 A 
ENDROOT
BRANCH   5  16
ATOM     16  C   UNL     1      -9.992  17.757  68.138  0.00  0.00    +0.017 A 
ATOM     17  C   UNL     1     -10.884  18.357  67.259  0.00  0.00    +0.001 A 
ATOM     18  C   UNL     1     -10.562  19.530  66.587  0.00  0.00    +0.000 A 
ATOM     19  C   UNL     1      -9.639  20.365  67.192  0.00  0.00    +0.000 A 
ATOM     20  C   UNL     1      -8.915  19.922  68.283  0.00  0.00    +0.000 A 
ATOM     21  C   UNL     1      -8.916  18.556  68.507  0.00  0.00    +0.001 A 
ENDBRANCH   5  16
TORSDOF 1
ENDMDL
MODEL 5
REMARK VINA RESULT:      -7.5      2.898      6.048
REMARK  Name = 
REMARK  1 active torsions:
REMARK  status: ('A' for Active; 'I' for Inactive)
REMARK    1  A    between atoms: C_8  and  C_9
REMARK                            x       y       z     vdW  Elec       q    Type
REMARK                         _______ _______ _______ _____ _____    ______ ____
ROOT
ATOM      1 CL   UNL     1      -8.234  17.579  66.312  0.00  0.00    -0.082 Cl
ATOM      2  C   UNL     1      -9.510  16.810  67.253  0.00  0.00    +0.058 A 
ATOM      3  C   UNL     1      -9.716  15.452  67.047  0.00  0.00    +0.014 A 
ATOM      4  C   UNL     1     -10.431  14.781  68.002  0.00  0.00    +0.034 A 
ATOM      5  C   UNL     1     -10.817  13.473  67.456  0.00  0.00    +0.078 C 
ATOM      6  N   UNL     1     -11.388  12.553  68.176  0.00  0.00    -0.262 NA
ATOM      7  C   UNL     1     -11.634  12.426  69.586  0.00  0.00    +0.191 C 
ATOM      8  C   UNL     1     -12.215  13.638  70.200  0.00  0.00    +0.172 A 
ATOM      9  N   UNL     1     -11.702  14.893  70.217  0.00  0.00    -0.273 N 
ATOM     10  C   UNL     1     -12.620  15.670  70.841  0.00  0.00    +0.207 A 
ATOM     11  N   UNL     1     -13.549  14.860  71.387  0.00  0.00    -0.125 NA
ATOM     12  N   UNL     1     -13.133  13.618  71.174  0.00  0.00    -0.131 NA
ATOM     13  C   UNL     1     -10.829  15.383  69.190  0.00  0.00    +0.068 A 
ATOM     14  C   UNL     1     -10.577  16.734  69.370  0.00  0.00    +0.019 A 
ATOM     15  C   UNL     1     -10.171  17.483  68.273  0.00  0.00    +0.013 A 
ENDROOT
BRANCH   5  16
ATOM     16  C   UNL     1     -11.069  13.413  66.011  0.00  0.00    +0.017 A 
ATOM     17  C   UNL     1     -12.354  13.470  65.486  0.00  0.00    +0.001 A 
ATOM     18  C   UNL     1     -12.774  12.587  64.498  0.00  0.00    +0.000 A 
ATOM     19  C   UNL     1     -11.795  12.059  63.674  0.00  0.00    +0.000 A 
ATOM     20  C   UNL     1     -10.459  12.228  63.988  0.00  0.00    +0.000 A 
ATOM     21  C   UNL     1     -10.179  12.633  65.283  0.00  0.00    +0.001 A 
ENDBRANCH   5  16
TORSDOF 1
ENDMDL
MODEL 6
REMARK VINA RESULT:      -7.5      2.010      3.064
REMARK  Name = 
REMARK  1 active torsions:
REMARK  status: ('A' for Active; 'I' for Inactive)
REMARK    1  A    between atoms: C_8  and  C_9
REMARK                            x       y       z     vdW  Elec       q    Type
REMARK                         _______ _______ _______ _____ _____    ______ ____
ROOT
ATOM      1 CL   UNL     1     -12.620  12.193  64.369  0.00  0.00    -0.082 Cl
ATOM      2  C   UNL     1     -12.064  13.625  65.231  0.00  0.00    +0.058 A 
ATOM      3  C   UNL     1     -11.525  13.431  66.497  0.00  0.00    +0.014 A 
ATOM      4  C   UNL     1     -10.777  14.454  67.015  0.00  0.00    +0.034 A 
ATOM      5  C   UNL     1     -10.582  14.202  68.449  0.00  0.00    +0.078 C 
ATOM      6  N   UNL     1      -9.795  14.928  69.188  0.00  0.00    -0.262 NA
ATOM      7  C   UNL     1      -8.836  15.954  68.882  0.00  0.00    +0.191 C 
ATOM      8  C   UNL     1      -9.341  16.981  67.948  0.00  0.00    +0.172 A 
ATOM      9  N   UNL     1      -9.824  16.803  66.694  0.00  0.00    -0.273 N 
ATOM     10  C   UNL     1     -10.217  18.026  66.263  0.00  0.00    +0.207 A 
ATOM     11  N   UNL     1      -9.769  18.943  67.143  0.00  0.00    -0.125 NA
ATOM     12  N   UNL     1      -9.035  18.282  68.029  0.00  0.00    -0.131 NA
ATOM     13  C   UNL     1     -10.453  15.585  66.275  0.00  0.00    +0.068 A 
ATOM     14  C   UNL     1     -10.986  15.726  65.003  0.00  0.00    +0.019 A 
ATOM     15  C   UNL     1     -12.011  14.870  64.618  0.00  0.00    +0.013 A 
ENDROOT
BRANCH   5  16
ATOM     16  C   UNL     1     -11.672  13.512  69.149  0.00  0.00    +0.017 A 
ATOM     17  C   UNL     1     -12.497  14.168  70.054  0.00  0.00    +0.001 A 
ATOM     18  C   UNL     1     -12.807  13.611  71.289  0.00  0.00    +0.000 A 
ATOM     19  C   UNL     1     -12.768  12.231  71.380  0.00  0.00    +0.000 A 
ATOM     20  C   UNL     1     -12.218  11.484  70.356  0.00  0.00    +0.000 A 
ATOM     21  C   UNL     1     -11.439  12.173  69.442  0.00  0.00    +0.001 A 
ENDBRANCH   5  16
TORSDOF 1
ENDMDL
MODEL 7
REMARK VINA RESULT:      -7.4      3.867      5.045
REMARK  Name = 
REMARK  1 active torsions:
REMARK  status: ('A' for Active; 'I' for Inactive)
REMARK    1  A    between atoms: C_8  and  C_9
REMARK                            x       y       z     vdW  Elec       q    Type
REMARK                         _______ _______ _______ _____ _____    ______ ____
ROOT
ATOM      1 CL   UNL     1      -5.812  14.493  68.253  0.00  0.00    -0.082 Cl
ATOM      2  C   UNL     1      -7.479  14.403  67.691  0.00  0.00    +0.058 A 
ATOM      3  C   UNL     1      -7.965  15.492  66.978  0.00  0.00    +0.014 A 
ATOM      4  C   UNL     1      -9.102  15.293  66.242  0.00  0.00    +0.034 A 
ATOM      5  C   UNL     1      -9.629  16.605  65.843  0.00  0.00    +0.078 C 
ATOM      6  N   UNL     1     -10.626  16.739  65.019  0.00  0.00    -0.262 NA
ATOM      7  C   UNL     1     -11.337  15.812  64.182  0.00  0.00    +0.191 C 
ATOM      8  C   UNL     1     -11.735  14.570  64.877  0.00  0.00    +0.172 A 
ATOM      9  N   UNL     1     -10.937  13.673  65.506  0.00  0.00    -0.273 N 
ATOM     10  C   UNL     1     -11.762  12.739  66.038  0.00  0.00    +0.207 A 
ATOM     11  N   UNL     1     -12.999  12.945  65.544  0.00  0.00    -0.125 NA
ATOM     12  N   UNL     1     -12.887  13.924  64.656  0.00  0.00    -0.131 NA
ATOM     13  C   UNL     1      -9.683  14.038  66.098  0.00  0.00    +0.068 A 
ATOM     14  C   UNL     1      -9.148  12.971  66.802  0.00  0.00    +0.019 A 
ATOM     15  C   UNL     1      -8.225  13.237  67.806  0.00  0.00    +0.013 A 
ENDROOT
BRANCH   5  16
ATOM     16  C   UNL     1      -9.410  17.713  66.781  0.00  0.00    +0.017 A 
ATOM     17  C   UNL     1     -10.441  18.244  67.546  0.00  0.00    +0.001 A 
ATOM     18  C   UNL     1     -10.628  19.616  67.659  0.00  0.00    +0.000 A 
ATOM     19  C   UNL     1      -9.511  20.416  67.493  0.00  0.00    +0.000 A 
ATOM     20  C   UNL     1      -8.336  19.873  67.006  0.00  0.00    +0.000 A 
ATOM     21  C   UNL     1      -8.437  18.631  66.402  0.00  0.00    +0.001 A 
ENDBRANCH   5  16
TORSDOF 1
ENDMDL
MODEL 8
REMARK VINA RESULT:      -7.3      2.210      3.152
REMARK  Name = 
REMARK  1 active torsions:
REMARK  status: ('A' for Active; 'I' for Inactive)
REMARK    1  A    between atoms: C_8  and  C_9
REMARK                            x       y       z     vdW  Elec       q    Type
REMARK                         _______ _______ _______ _____ _____    ______ ____
ROOT
ATOM      1 CL   UNL     1      -7.788  10.500  69.112  0.00  0.00    -0.082 Cl
ATOM      2  C   UNL     1      -9.009  11.161  68.028  0.00  0.00    +0.058 A 
ATOM      3  C   UNL     1      -9.297  12.515  68.152  0.00  0.00    +0.014 A 
ATOM      4  C   UNL     1      -9.955  13.106  67.108  0.00  0.00    +0.034 A 
ATOM      5  C   UNL     1     -10.450  14.415  67.556  0.00  0.00    +0.078 C 
ATOM      6  N   UNL     1     -10.997  15.273  66.746  0.00  0.00    -0.262 NA
ATOM      7  C   UNL     1     -11.122  15.326  65.315  0.00  0.00    +0.191 C 
ATOM      8  C   UNL     1     -11.588  14.061  64.712  0.00  0.00    +0.172 A 
ATOM      9  N   UNL     1     -11.017  12.834  64.799  0.00  0.00    -0.273 N 
ATOM     10  C   UNL     1     -11.839  11.985  64.135  0.00  0.00    +0.207 A 
ATOM     11  N   UNL     1     -12.753  12.722  63.473  0.00  0.00    -0.125 NA
ATOM     12  N   UNL     1     -12.416  13.992  63.662  0.00  0.00    -0.131 NA
ATOM     13  C   UNL     1     -10.217  12.434  65.919  0.00  0.00    +0.068 A 
ATOM     14  C   UNL     1      -9.886  11.091  65.826  0.00  0.00    +0.019 A 
ATOM     15  C   UNL     1      -9.544  10.412  66.989  0.00  0.00    +0.013 A 
ENDROOT
BRANCH   5  16
ATOM     16  C   UNL     1     -10.832  14.524  68.969  0.00  0.00    +0.017 A 
ATOM     17  C   UNL     1     -11.846  13.750  69.518  0.00  0.00    +0.001 A 
ATOM     18  C   UNL     1     -12.824  14.308  70.333  0.00  0.00    +0.000 A 
ATOM     19  C   UNL     1     -12.481  15.455  71.027  0.00  0.00    +0.000 A 
ATOM     20  C   UNL     1     -11.308  16.122  70.726  0.00  0.00    +0.000 A 
ATOM     21  C   UNL     1     -10.704  15.792  69.525  0.00  0.00    +0.001 A 
ENDBRANCH   5  16
TORSDOF 1
ENDMDL
MODEL 9
REMARK VINA RESULT:      -7.2      1.975      4.466
REMARK  Name = 
REMARK  1 active torsions:
REMARK  status: ('A' for Active; 'I' for Inactive)
REMARK    1  A    between atoms: C_8  and  C_9
REMARK                            x       y       z     vdW  Elec       q    Type
REMARK                         _______ _______ _______ _____ _____    ______ ____
ROOT
ATOM      1 CL   UNL     1     -13.188  13.335  72.116  0.00  0.00    -0.082 Cl
ATOM      2  C   UNL     1     -12.227  14.058  70.829  0.00  0.00    +0.058 A 
ATOM      3  C   UNL     1     -12.062  13.313  69.669  0.00  0.00    +0.014 A 
ATOM      4  C   UNL     1     -11.641  13.986  68.554  0.00  0.00    +0.034 A 
ATOM      5  C   UNL     1     -11.217  13.000  67.551  0.00  0.00    +0.078 C 
ATOM      6  N   UNL     1     -10.895  13.330  66.335  0.00  0.00    -0.262 NA
ATOM      7  C   UNL     1     -11.004  14.555  65.591  0.00  0.00    +0.191 C 
ATOM      8  C   UNL     1     -10.514  15.740  66.324  0.00  0.00    +0.172 A 
ATOM      9  N   UNL     1     -10.937  16.216  67.521  0.00  0.00    -0.273 N 
ATOM     10  C   UNL     1     -10.150  17.281  67.806  0.00  0.00    +0.207 A 
ATOM     11  N   UNL     1      -9.432  17.576  66.704  0.00  0.00    -0.125 NA
ATOM     12  N   UNL     1      -9.861  16.758  65.750  0.00  0.00    -0.131 NA
ATOM     13  C   UNL     1     -11.505  15.369  68.530  0.00  0.00    +0.068 A 
ATOM     14  C   UNL     1     -11.709  16.080  69.702  0.00  0.00    +0.019 A 
ATOM     15  C   UNL     1     -11.792  15.375  70.897  0.00  0.00    +0.013 A 
ENDROOT
BRANCH   5  16
ATOM     16  C   UNL     1     -10.628  11.756  68.062  0.00  0.00    +0.017 A 
ATOM     17  C   UNL     1      -9.277  11.653  68.366  0.00  0.00    +0.001 A 
ATOM     18  C   UNL     1      -8.520  10.564  67.948  0.00  0.00    +0.000 A 
ATOM     19  C   UNL     1      -9.197   9.375  67.741  0.00  0.00    +0.000 A 
ATOM     20  C   UNL     1     -10.579   9.358  67.724  0.00  0.00    +0.000 A 
ATOM     21  C   UNL     1     -11.207  10.584  67.589  0.00  0.00    +0.001 A 
ENDBRANCH   5  16
TORSDOF 1
ENDMDL
