MODEL 1
REMARK VINA RESULT:      -7.7      0.000      0.000
REMARK  Name = 
REMARK  2 active torsions:
REMARK  status: ('A' for Active; 'I' for Inactive)
REMARK    1  A    between atoms: C_4  and  C_5
REMARK    2  A    between atoms: N_7  and  C_8
REMARK                            x       y       z     vdW  Elec       q    Type
REMARK                         _______ _______ _______ _____ _____    ______ ____
ROOT
ATOM      1  C   UNL     1     -10.271  14.219  68.802  0.00  0.00    +0.284 C 
ATOM      2  N   UNL     1      -9.846  15.526  69.155  0.00  0.00    -0.202 NA
ATOM      3  O   UNL     1     -10.054  13.861  67.604  0.00  0.00    -0.267 OA
ENDROOT
BRANCH   1  11
ATOM      4  C   UNL     1     -12.634  10.835  71.007  0.00  0.00    +0.154 C 
ATOM      5  N   UNL     1     -12.379  11.965  70.610  0.00  0.00    -0.249 N 
ATOM      6  C   UNL     1     -12.728  13.144  71.183  0.00  0.00    +0.080 A 
ATOM      7  C   UNL     1     -11.999  14.160  70.573  0.00  0.00    +0.041 A 
ATOM      8  C   UNL     1     -12.242  15.486  70.871  0.00  0.00    +0.003 A 
ATOM      9  C   UNL     1     -13.039  15.820  71.939  0.00  0.00    +0.000 A 
ATOM     10  C   UNL     1     -13.587  14.785  72.665  0.00  0.00    +0.002 A 
ATOM     11  C   UNL     1     -11.433  13.587  69.448  0.00  0.00    +0.157 A 
ATOM     12  C   UNL     1     -13.526  13.479  72.242  0.00  0.00    +0.019 A 
ATOM     13  N   UNL     1     -11.766  12.294  69.480  0.00  0.00    -0.165 NA
ENDBRANCH   1  11
BRANCH   2  14
ATOM     14  C   UNL     1      -9.418  16.513  68.215  0.00  0.00    +0.098 C 
ATOM     15  C   UNL     1      -8.161  17.115  68.588  0.00  0.00    +0.038 C 
ATOM     16  C   UNL     1      -8.060  18.649  67.985  0.00  0.00    +0.059 C 
ATOM     17  N   UNL     1      -8.584  18.254  66.604  0.00  0.00    -0.274 NA
ATOM     18  C   UNL     1     -10.066  17.997  66.328  0.00  0.00    +0.059 C 
ATOM     19  C   UNL     1     -10.527  19.545  66.642  0.00  0.00    +0.016 C 
ATOM     20  C   UNL     1     -10.252  19.934  67.979  0.00  0.00    +0.003 C 
ATOM     21  C   UNL     1      -7.835  17.122  66.132  0.00  0.00    +0.090 C 
ATOM     22  C   UNL     1      -9.398  19.158  68.789  0.00  0.00    +0.016 C 
ATOM     23  C   UNL     1     -10.539  17.349  67.770  0.00  0.00    +0.038 C 
ENDBRANCH   2  14
TORSDOF 2
ENDMDL
MODEL 2
REMARK VINA RESULT:      -7.5      3.663      5.664
REMARK  Name = 
REMARK  2 active torsions:
REMARK  status: ('A' for Active; 'I' for Inactive)
REMARK    1  A    between atoms: C_4  and  C_5
REMARK    2  A    between atoms: N_7  and  C_8
REMARK                            x       y       z     vdW  Elec       q    Type
REMARK                         _______ _______ _______ _____ _____    ______ ____
ROOT
ATOM      1  C   UNL     1     -11.845  12.471  69.264  0.00  0.00    +0.284 C 
ATOM      2  N   UNL     1     -12.247  12.200  67.930  0.00  0.00    -0.202 NA
ATOM      3  O   UNL     1     -11.011  13.415  69.419  0.00  0.00    -0.267 OA
ENDROOT
BRANCH   1  11
ATOM      4  C   UNL     1     -13.563   9.190  72.125  0.00  0.00    +0.154 C 
ATOM      5  N   UNL     1     -12.723   9.797  71.472  0.00  0.00    -0.249 N 
ATOM      6  C   UNL     1     -11.578   9.309  70.935  0.00  0.00    +0.080 A 
ATOM      7  C   UNL     1     -11.076  10.251  70.043  0.00  0.00    +0.041 A 
ATOM      8  C   UNL     1      -9.846  10.074  69.440  0.00  0.00    +0.003 A 
ATOM      9  C   UNL     1      -9.202   8.863  69.526  0.00  0.00    +0.000 A 
ATOM     10  C   UNL     1      -9.824   7.868  70.246  0.00  0.00    +0.002 A 
ATOM     11  C   UNL     1     -11.793  11.409  70.282  0.00  0.00    +0.157 A 
ATOM     12  C   UNL     1     -10.932   8.107  71.024  0.00  0.00    +0.019 A 
ATOM     13  N   UNL     1     -12.706  11.098  71.206  0.00  0.00    -0.165 NA
ENDBRANCH   1  11
BRANCH   2  14
ATOM     14  C   UNL     1     -11.613  12.749  66.773  0.00  0.00    +0.098 C 
ATOM     15  C   UNL     1     -12.328  13.887  66.247  0.00  0.00    +0.038 C 
ATOM     16  C   UNL     1     -12.062  14.027  64.623  0.00  0.00    +0.059 C 
ATOM     17  N   UNL     1     -10.557  13.786  64.741  0.00  0.00    -0.274 NA
ATOM     18  C   UNL     1      -9.960  12.393  64.950  0.00  0.00    +0.059 C 
ATOM     19  C   UNL     1     -10.475  11.812  63.498  0.00  0.00    +0.016 C 
ATOM     20  C   UNL     1     -11.889  11.818  63.380  0.00  0.00    +0.003 C 
ATOM     21  C   UNL     1     -10.027  14.659  65.751  0.00  0.00    +0.090 C 
ATOM     22  C   UNL     1     -12.681  12.543  64.294  0.00  0.00    +0.016 C 
ATOM     23  C   UNL     1     -11.134  11.693  65.874  0.00  0.00    +0.038 C 
ENDBRANCH   2  14
TORSDOF 2
ENDMDL
MODEL 3
REMARK VINA RESULT:      -7.2      3.231      8.216
REMARK  Name = 
REMARK  2 active torsions:
REMARK  status: ('A' for Active; 'I' for Inactive)
REMARK    1  A    between atoms: C_4  and  C_5
REMARK    2  A    between atoms: N_7  and  C_8
REMARK                            x       y       z     vdW  Elec       q    Type
REMARK                         _______ _______ _______ _____ _____    ______ ____
ROOT
ATOM      1  C   UNL     1     -12.134  10.999  69.874  0.00  0.00    +0.284 C 
ATOM      2  N   UNL     1     -11.970  10.165  71.011  0.00  0.00    -0.202 NA
ATOM      3  O   UNL     1     -11.990  10.442  68.743  0.00  0.00    -0.267 OA
ENDROOT
BRANCH   1  11
ATOM      4  C   UNL     1     -11.426  15.288  68.143  0.00  0.00    +0.154 C 
ATOM      5  N   UNL     1     -11.643  14.430  68.988  0.00  0.00    -0.249 N 
ATOM      6  C   UNL     1     -12.311  14.570  70.160  0.00  0.00    +0.080 A 
ATOM      7  C   UNL     1     -12.575  13.301  70.667  0.00  0.00    +0.041 A 
ATOM      8  C   UNL     1     -13.137  13.140  71.918  0.00  0.00    +0.003 A 
ATOM      9  C   UNL     1     -13.661  14.221  72.586  0.00  0.00    +0.000 A 
ATOM     10  C   UNL     1     -13.577  15.447  71.964  0.00  0.00    +0.002 A 
ATOM     11  C   UNL     1     -11.803  12.433  69.918  0.00  0.00    +0.157 A 
ATOM     12  C   UNL     1     -12.828  15.645  70.829  0.00  0.00    +0.019 A 
ATOM     13  N   UNL     1     -11.204  13.177  68.985  0.00  0.00    -0.165 NA
ENDBRANCH   1  11
BRANCH   2  14
ATOM     14  C   UNL     1     -11.440   8.839  70.965  0.00  0.00    +0.098 C 
ATOM     15  C   UNL     1     -12.376   7.859  71.460  0.00  0.00    +0.038 C 
ATOM     16  C   UNL     1     -11.568   6.559  72.079  0.00  0.00    +0.059 C 
ATOM     17  N   UNL     1     -10.591   6.474  70.906  0.00  0.00    -0.274 NA
ATOM     18  C   UNL     1      -9.404   7.427  70.752  0.00  0.00    +0.059 C 
ATOM     19  C   UNL     1      -8.640   6.904  72.113  0.00  0.00    +0.016 C 
ATOM     20  C   UNL     1      -9.406   7.127  73.287  0.00  0.00    +0.003 C 
ATOM     21  C   UNL     1     -11.339   6.484  69.679  0.00  0.00    +0.090 C 
ATOM     22  C   UNL     1     -10.774   7.460  73.196  0.00  0.00    +0.016 C 
ATOM     23  C   UNL     1     -10.037   8.809  71.394  0.00  0.00    +0.038 C 
ENDBRANCH   2  14
TORSDOF 2
ENDMDL
MODEL 4
REMARK VINA RESULT:      -7.2      2.915      6.543
REMARK  Name = 
REMARK  2 active torsions:
REMARK  status: ('A' for Active; 'I' for Inactive)
REMARK    1  A    between atoms: C_4  and  C_5
REMARK    2  A    between atoms: N_7  and  C_8
REMARK                            x       y       z     vdW  Elec       q    Type
REMARK                         _______ _______ _______ _____ _____    ______ ____
ROOT
ATOM      1  C   UNL     1      -8.780  15.502  68.728  0.00  0.00    +0.284 C 
ATOM      2  N   UNL     1      -8.906  14.765  67.521  0.00  0.00    -0.202 NA
ATOM      3  O   UNL     1      -9.591  15.202  69.657  0.00  0.00    -0.267 OA
ENDROOT
BRANCH   1  11
ATOM      4  C   UNL     1      -5.743  18.992  68.027  0.00  0.00    +0.154 C 
ATOM      5  N   UNL     1      -6.827  18.454  68.215  0.00  0.00    -0.249 N 
ATOM      6  C   UNL     1      -8.050  18.897  67.834  0.00  0.00    +0.080 A 
ATOM      7  C   UNL     1      -8.961  17.857  67.988  0.00  0.00    +0.041 A 
ATOM      8  C   UNL     1     -10.313  18.061  67.793  0.00  0.00    +0.003 A 
ATOM      9  C   UNL     1     -10.761  19.226  67.218  0.00  0.00    +0.000 A 
ATOM     10  C   UNL     1      -9.813  20.165  66.875  0.00  0.00    +0.002 A 
ATOM     11  C   UNL     1      -8.303  16.895  68.732  0.00  0.00    +0.157 A 
ATOM     12  C   UNL     1      -8.499  20.059  67.267  0.00  0.00    +0.019 A 
ATOM     13  N   UNL     1      -7.058  17.346  68.908  0.00  0.00    -0.165 NA
ENDBRANCH   1  11
BRANCH   2  14
ATOM     14  C   UNL     1     -10.003  13.901  67.218  0.00  0.00    +0.098 C 
ATOM     15  C   UNL     1      -9.573  12.558  66.915  0.00  0.00    +0.038 C 
ATOM     16  C   UNL     1     -10.654  11.826  65.903  0.00  0.00    +0.059 C 
ATOM     17  N   UNL     1     -11.875  12.309  66.687  0.00  0.00    -0.274 NA
ATOM     18  C   UNL     1     -12.403  13.741  66.589  0.00  0.00    +0.059 C 
ATOM     19  C   UNL     1     -12.813  13.619  64.999  0.00  0.00    +0.016 C 
ATOM     20  C   UNL     1     -11.692  13.363  64.166  0.00  0.00    +0.003 C 
ATOM     21  C   UNL     1     -11.687  11.993  68.076  0.00  0.00    +0.090 C 
ATOM     22  C   UNL     1     -10.464  12.953  64.726  0.00  0.00    +0.016 C 
ATOM     23  C   UNL     1     -10.995  14.573  66.371  0.00  0.00    +0.038 C 
ENDBRANCH   2  14
TORSDOF 2
ENDMDL
MODEL 5
REMARK VINA RESULT:      -7.1      3.962      5.546
REMARK  Name = 
REMARK  2 active torsions:
REMARK  status: ('A' for Active; 'I' for Inactive)
REMARK    1  A    between atoms: C_4  and  C_5
REMARK    2  A    between atoms: N_7  and  C_8
REMARK                            x       y       z     vdW  Elec       q    Type
REMARK                         _______ _______ _______ _____ _____    ______ ____
ROOT
ATOM      1  C   UNL     1     -10.509  11.292  68.830  0.00  0.00    +0.284 C 
ATOM      2  N   UNL     1     -11.490  11.865  67.979  0.00  0.00    -0.202 NA
ATOM      3  O   UNL     1      -9.305  11.626  68.604  0.00  0.00    -0.267 OA
ENDROOT
BRANCH   1  11
ATOM      4  C   UNL     1      -9.198   7.315  70.918  0.00  0.00    +0.154 C 
ATOM      5  N   UNL     1      -9.956   8.199  70.540  0.00  0.00    -0.249 N 
ATOM      6  C   UNL     1     -11.123   8.591  71.108  0.00  0.00    +0.080 A 
ATOM      7  C   UNL     1     -11.505   9.800  70.534  0.00  0.00    +0.041 A 
ATOM      8  C   UNL     1     -12.725  10.373  70.832  0.00  0.00    +0.003 A 
ATOM      9  C   UNL     1     -13.482   9.888  71.873  0.00  0.00    +0.000 A 
ATOM     10  C   UNL     1     -12.978   8.812  72.570  0.00  0.00    +0.002 A 
ATOM     11  C   UNL     1     -10.692   9.959  69.427  0.00  0.00    +0.157 A 
ATOM     12  C   UNL     1     -11.880   8.107  72.139  0.00  0.00    +0.019 A 
ATOM     13  N   UNL     1      -9.843   8.928  69.436  0.00  0.00    -0.165 NA
ENDBRANCH   1  11
BRANCH   2  14
ATOM     14  C   UNL     1     -11.193  12.583  66.780  0.00  0.00    +0.098 C 
ATOM     15  C   UNL     1     -12.029  13.748  66.620  0.00  0.00    +0.038 C 
ATOM     16  C   UNL     1     -12.211  14.106  65.019  0.00  0.00    +0.059 C 
ATOM     17  N   UNL     1     -10.728  13.915  64.699  0.00  0.00    -0.274 NA
ATOM     18  C   UNL     1     -10.089  12.532  64.553  0.00  0.00    +0.059 C 
ATOM     19  C   UNL     1     -10.971  12.121  63.225  0.00  0.00    +0.016 C 
ATOM     20  C   UNL     1     -12.365  12.084  63.489  0.00  0.00    +0.003 C 
ATOM     21  C   UNL     1      -9.950  14.673  65.640  0.00  0.00    +0.090 C 
ATOM     22  C   UNL     1     -12.886  12.652  64.669  0.00  0.00    +0.016 C 
ATOM     23  C   UNL     1     -10.967  11.672  65.653  0.00  0.00    +0.038 C 
ENDBRANCH   2  14
TORSDOF 2
ENDMDL
MODEL 6
REMARK VINA RESULT:      -7.1      1.702      2.933
REMARK  Name = 
REMARK  2 active torsions:
REMARK  status: ('A' for Active; 'I' for Inactive)
REMARK    1  A    between atoms: C_4  and  C_5
REMARK    2  A    between atoms: N_7  and  C_8
REMARK                            x       y       z     vdW  Elec       q    Type
REMARK                         _______ _______ _______ _____ _____    ______ ____
ROOT
ATOM      1  C   UNL     1     -11.146  15.804  69.050  0.00  0.00    +0.284 C 
ATOM      2  N   UNL     1      -9.788  16.125  68.784  0.00  0.00    -0.202 NA
ATOM      3  O   UNL     1     -12.015  16.446  68.385  0.00  0.00    -0.267 OA
ENDROOT
BRANCH   1  11
ATOM      4  C   UNL     1     -13.669  15.858  72.990  0.00  0.00    +0.154 C 
ATOM      5  N   UNL     1     -12.940  15.402  72.117  0.00  0.00    -0.249 N 
ATOM      6  C   UNL     1     -12.817  14.108  71.732  0.00  0.00    +0.080 A 
ATOM      7  C   UNL     1     -12.110  14.074  70.533  0.00  0.00    +0.041 A 
ATOM      8  C   UNL     1     -11.726  12.874  69.969  0.00  0.00    +0.003 A 
ATOM      9  C   UNL     1     -12.232  11.690  70.451  0.00  0.00    +0.000 A 
ATOM     10  C   UNL     1     -13.105  11.763  71.514  0.00  0.00    +0.002 A 
ATOM     11  C   UNL     1     -11.581  15.342  70.378  0.00  0.00    +0.157 A 
ATOM     12  C   UNL     1     -13.314  12.928  72.213  0.00  0.00    +0.019 A 
ATOM     13  N   UNL     1     -12.043  16.067  71.400  0.00  0.00    -0.165 NA
ENDBRANCH   1  11
BRANCH   2  14
ATOM     14  C   UNL     1      -9.365  17.251  68.014  0.00  0.00    +0.098 C 
ATOM     15  C   UNL     1      -8.991  16.884  66.670  0.00  0.00    +0.038 C 
ATOM     16  C   UNL     1      -7.872  17.944  66.078  0.00  0.00    +0.059 C 
ATOM     17  N   UNL     1      -8.620  19.179  66.583  0.00  0.00    -0.274 NA
ATOM     18  C   UNL     1      -8.595  19.615  68.049  0.00  0.00    +0.059 C 
ATOM     19  C   UNL     1      -6.980  19.936  68.061  0.00  0.00    +0.016 C 
ATOM     20  C   UNL     1      -6.195  18.785  67.791  0.00  0.00    +0.003 C 
ATOM     21  C   UNL     1      -9.991  19.093  66.162  0.00  0.00    +0.090 C 
ATOM     22  C   UNL     1      -6.790  17.619  67.268  0.00  0.00    +0.016 C 
ATOM     23  C   UNL     1      -8.514  18.149  68.803  0.00  0.00    +0.038 C 
ENDBRANCH   2  14
TORSDOF 2
ENDMDL
MODEL 7
REMARK VINA RESULT:      -7.0      2.452      3.600
REMARK  Name = 
REMARK  2 active torsions:
REMARK  status: ('A' for Active; 'I' for Inactive)
REMARK    1  A    between atoms: C_4  and  C_5
REMARK    2  A    between atoms: N_7  and  C_8
REMARK                            x       y       z     vdW  Elec       q    Type
REMARK                         _______ _______ _______ _____ _____    ______ ____
ROOT
ATOM      1  C   UNL     1      -9.960  16.487  65.719  0.00  0.00    +0.284 C 
ATOM      2  N   UNL     1      -8.586  16.515  66.077  0.00  0.00    -0.202 NA
ATOM      3  O   UNL     1     -10.494  17.607  65.452  0.00  0.00    -0.267 OA
ENDROOT
BRANCH   1  11
ATOM      4  C   UNL     1     -11.577  12.162  66.472  0.00  0.00    +0.154 C 
ATOM      5  N   UNL     1     -11.438  13.366  66.647  0.00  0.00    -0.249 N 
ATOM      6  C   UNL     1     -11.568  14.055  67.807  0.00  0.00    +0.080 A 
ATOM      7  C   UNL     1     -11.047  15.332  67.618  0.00  0.00    +0.041 A 
ATOM      8  C   UNL     1     -11.160  16.297  68.599  0.00  0.00    +0.003 A 
ATOM      9  C   UNL     1     -11.577  15.954  69.863  0.00  0.00    +0.000 A 
ATOM     10  C   UNL     1     -11.889  14.631  70.086  0.00  0.00    +0.002 A 
ATOM     11  C   UNL     1     -10.873  15.464  66.253  0.00  0.00    +0.157 A 
ATOM     12  C   UNL     1     -11.989  13.717  69.064  0.00  0.00    +0.019 A 
ATOM     13  N   UNL     1     -11.204  14.285  65.719  0.00  0.00    -0.165 NA
ENDBRANCH   1  11
BRANCH   2  14
ATOM     14  C   UNL     1      -7.858  17.707  66.374  0.00  0.00    +0.098 C 
ATOM     15  C   UNL     1      -6.525  17.685  65.822  0.00  0.00    +0.038 C 
ATOM     16  C   UNL     1      -5.513  18.621  66.731  0.00  0.00    +0.059 C 
ATOM     17  N   UNL     1      -6.508  19.777  66.840  0.00  0.00    -0.274 NA
ATOM     18  C   UNL     1      -7.707  19.746  67.790  0.00  0.00    +0.059 C 
ATOM     19  C   UNL     1      -6.788  19.712  69.156  0.00  0.00    +0.016 C 
ATOM     20  C   UNL     1      -5.966  18.557  69.231  0.00  0.00    +0.003 C 
ATOM     21  C   UNL     1      -6.986  20.101  65.523  0.00  0.00    +0.090 C 
ATOM     22  C   UNL     1      -5.769  17.745  68.095  0.00  0.00    +0.016 C 
ATOM     23  C   UNL     1      -8.080  18.139  67.759  0.00  0.00    +0.038 C 
ENDBRANCH   2  14
TORSDOF 2
ENDMDL
MODEL 8
REMARK VINA RESULT:      -6.9      3.223      7.158
REMARK  Name = 
REMARK  2 active torsions:
REMARK  status: ('A' for Active; 'I' for Inactive)
REMARK    1  A    between atoms: C_4  and  C_5
REMARK    2  A    between atoms: N_7  and  C_8
REMARK                            x       y       z     vdW  Elec       q    Type
REMARK                         _______ _______ _______ _____ _____    ______ ____
ROOT
ATOM      1  C   UNL     1      -8.925  15.673  67.152  0.00  0.00    +0.284 C 
ATOM      2  N   UNL     1      -9.068  14.689  66.139  0.00  0.00    -0.202 NA
ATOM      3  O   UNL     1      -9.591  15.485  68.216  0.00  0.00    -0.267 OA
ENDROOT
BRANCH   1  11
ATOM      4  C   UNL     1      -9.954  20.120  66.123  0.00  0.00    +0.154 C 
ATOM      5  N   UNL     1      -9.273  19.171  66.490  0.00  0.00    -0.249 N 
ATOM      6  C   UNL     1      -8.224  19.184  67.349  0.00  0.00    +0.080 A 
ATOM      7  C   UNL     1      -7.933  17.871  67.706  0.00  0.00    +0.041 A 
ATOM      8  C   UNL     1      -6.827  17.573  68.476  0.00  0.00    +0.003 A 
ATOM      9  C   UNL     1      -6.126  18.579  69.099  0.00  0.00    +0.000 A 
ATOM     10  C   UNL     1      -6.564  19.869  68.899  0.00  0.00    +0.002 A 
ATOM     11  C   UNL     1      -8.644  17.080  66.823  0.00  0.00    +0.157 A 
ATOM     12  C   UNL     1      -7.522  20.184  67.964  0.00  0.00    +0.019 A 
ATOM     13  N   UNL     1      -9.360  17.916  66.066  0.00  0.00    -0.165 NA
ENDBRANCH   1  11
BRANCH   2  14
ATOM     14  C   UNL     1     -10.062  13.662  66.151  0.00  0.00    +0.098 C 
ATOM     15  C   UNL     1      -9.516  12.378  66.520  0.00  0.00    +0.038 C 
ATOM     16  C   UNL     1     -10.407  11.163  65.844  0.00  0.00    +0.059 C 
ATOM     17  N   UNL     1     -11.748  11.799  66.211  0.00  0.00    -0.274 NA
ATOM     18  C   UNL     1     -12.342  12.976  65.436  0.00  0.00    +0.059 C 
ATOM     19  C   UNL     1     -12.526  12.129  64.036  0.00  0.00    +0.016 C 
ATOM     20  C   UNL     1     -11.291  11.663  63.515  0.00  0.00    +0.003 C 
ATOM     21  C   UNL     1     -11.730  12.142  67.607  0.00  0.00    +0.090 C 
ATOM     22  C   UNL     1     -10.127  11.678  64.311  0.00  0.00    +0.016 C 
ATOM     23  C   UNL     1     -10.969  13.781  65.004  0.00  0.00    +0.038 C 
ENDBRANCH   2  14
TORSDOF 2
ENDMDL
MODEL 9
REMARK VINA RESULT:      -6.7      3.626      8.635
REMARK  Name = 
REMARK  2 active torsions:
REMARK  status: ('A' for Active; 'I' for Inactive)
REMARK    1  A    between atoms: C_4  and  C_5
REMARK    2  A    between atoms: N_7  and  C_8
REMARK                            x       y       z     vdW  Elec       q    Type
REMARK                         _______ _______ _______ _____ _____    ______ ____
ROOT
ATOM      1  C   UNL     1     -11.688  11.047  69.350  0.00  0.00    +0.284 C 
ATOM      2  N   UNL     1     -10.779  10.089  69.870  0.00  0.00    -0.202 NA
ATOM      3  O   UNL     1     -12.919  10.830  69.566  0.00  0.00    -0.267 OA
ENDROOT
BRANCH   1  11
ATOM      4  C   UNL     1     -12.375  12.584  64.984  0.00  0.00    +0.154 C 
ATOM      5  N   UNL     1     -11.912  12.562  66.117  0.00  0.00    -0.249 N 
ATOM      6  C   UNL     1     -11.465  13.611  66.851  0.00  0.00    +0.080 A 
ATOM      7  C   UNL     1     -11.301  13.186  68.166  0.00  0.00    +0.041 A 
ATOM      8  C   UNL     1     -10.735  14.015  69.115  0.00  0.00    +0.003 A 
ATOM      9  C   UNL     1     -10.539  15.348  68.841  0.00  0.00    +0.000 A 
ATOM     10  C   UNL     1     -10.909  15.795  67.592  0.00  0.00    +0.002 A 
ATOM     11  C   UNL     1     -11.387  11.807  68.125  0.00  0.00    +0.157 A 
ATOM     12  C   UNL     1     -11.264  14.936  66.579  0.00  0.00    +0.019 A 
ATOM     13  N   UNL     1     -11.669  11.489  66.859  0.00  0.00    -0.165 NA
ENDBRANCH   1  11
BRANCH   2  14
ATOM     14  C   UNL     1     -11.166   8.819  70.398  0.00  0.00    +0.098 C 
ATOM     15  C   UNL     1     -11.153   8.801  71.841  0.00  0.00    +0.038 C 
ATOM     16  C   UNL     1     -10.868   7.270  72.390  0.00  0.00    +0.059 C 
ATOM     17  N   UNL     1     -11.849   6.623  71.412  0.00  0.00    -0.274 NA
ATOM     18  C   UNL     1     -11.515   6.401  69.936  0.00  0.00    +0.059 C 
ATOM     19  C   UNL     1     -10.294   5.339  70.238  0.00  0.00    +0.016 C 
ATOM     20  C   UNL     1      -9.237   5.922  70.984  0.00  0.00    +0.003 C 
ATOM     21  C   UNL     1     -13.105   7.316  71.490  0.00  0.00    +0.090 C 
ATOM     22  C   UNL     1      -9.417   7.162  71.631  0.00  0.00    +0.016 C 
ATOM     23  C   UNL     1     -10.567   7.717  69.636  0.00  0.00    +0.038 C 
ENDBRANCH   2  14
TORSDOF 2
ENDMDL
