MODEL 1
REMARK VINA RESULT:      -6.8      0.000      0.000
REMARK  Name = 
REMARK  4 active torsions:
REMARK  status: ('A' for Active; 'I' for Inactive)
REMARK    1  A    between atoms: CA_6  and  N_7
REMARK    2  A    between atoms: C_8  and  C_10
REMARK    3  A    between atoms: C_10  and  C_11
REMARK    4  A    between atoms: CA_20  and  C_21
REMARK                            x       y       z     vdW  Elec       q    Type
REMARK                         _______ _______ _______ _____ _____    ______ ____
ROOT
ATOM      1  C   UNL     1      -7.924  19.425  68.767  0.00  0.00    +0.013 C 
ATOM      2  C   UNL     1      -8.384  18.357  68.292  0.00  0.00    +0.068 C 
ATOM      3  CA  UNL     1      -8.601  18.599  66.643  0.00  0.00    +0.189 C 
ATOM      4  N   UNL     1      -9.342  17.193  66.436  0.00  0.00    -0.259 N 
ATOM      5  C   UNL     1     -10.699  17.482  67.051  0.00  0.00    +0.153 C 
ATOM      6  CA  UNL     1     -10.892  15.813  66.804  0.00  0.00    +0.200 C 
ATOM      7  C   UNL     1      -9.264  15.814  66.860  0.00  0.00    +0.249 C 
ATOM      8  O   UNL     1      -8.646  14.853  66.383  0.00  0.00    -0.273 OA
ATOM      9  S   UNL     1      -9.865  17.566  68.773  0.00  0.00    -0.118 S 
ATOM     10  C   UNL     1      -7.267  17.319  68.222  0.00  0.00    +0.013 C 
ENDROOT
BRANCH   3  11
ATOM     11  C   UNL     1      -9.968  19.507  66.820  0.00  0.00    +0.383 C 
ATOM     12  OXT UNL     1      -9.793  20.728  67.408  0.00  0.00    -0.244 OA
ATOM     13  O   UNL     1     -10.493  19.548  65.659  0.00  0.00    -0.244 OA
ENDBRANCH   3  11
BRANCH   6  14
ATOM     14  N   UNL     1     -11.067  15.436  68.357  0.00  0.00    -0.195 NA
ATOM     15  C   UNL     1     -11.769  14.205  68.551  0.00  0.00    +0.246 C 
ATOM     16  O   UNL     1     -12.050  13.480  67.555  0.00  0.00    -0.273 OA
BRANCH  15  17
ATOM     17  C   UNL     1     -11.895  13.688  69.934  0.00  0.00    +0.113 C 
BRANCH  17  18
ATOM     18  C   UNL     1     -12.384  14.818  70.790  0.00  0.00    -0.013 A 
ATOM     19  C   UNL     1     -13.741  14.790  71.070  0.00  0.00    -0.004 A 
ATOM     20  C   UNL     1     -14.276  15.266  72.251  0.00  0.00    -0.000 A 
ATOM     21  C   UNL     1     -13.423  15.984  73.072  0.00  0.00    -0.000 A 
ATOM     22  C   UNL     1     -12.064  15.875  72.904  0.00  0.00    -0.000 A 
ATOM     23  C   UNL     1     -11.562  15.115  71.873  0.00  0.00    -0.004 A 
ENDBRANCH  17  18
ENDBRANCH  15  17
ENDBRANCH   6  14
TORSDOF 4
ENDMDL
MODEL 2
REMARK VINA RESULT:      -6.5      3.063      4.010
REMARK  Name = 
REMARK  4 active torsions:
REMARK  status: ('A' for Active; 'I' for Inactive)
REMARK    1  A    between atoms: CA_6  and  N_7
REMARK    2  A    between atoms: C_8  and  C_10
REMARK    3  A    between atoms: C_10  and  C_11
REMARK    4  A    between atoms: CA_20  and  C_21
REMARK                            x       y       z     vdW  Elec       q    Type
REMARK                         _______ _______ _______ _____ _____    ______ ____
ROOT
ATOM      1  C   UNL     1      -8.406  17.176  67.564  0.00  0.00    +0.013 C 
ATOM      2  C   UNL     1      -8.874  16.022  67.397  0.00  0.00    +0.068 C 
ATOM      3  CA  UNL     1      -9.105  15.813  65.745  0.00  0.00    +0.189 C 
ATOM      4  N   UNL     1      -9.853  14.408  65.930  0.00  0.00    -0.259 N 
ATOM      5  C   UNL     1     -11.203  14.860  66.454  0.00  0.00    +0.153 C 
ATOM      6  CA  UNL     1     -11.405  13.187  66.666  0.00  0.00    +0.200 C 
ATOM      7  C   UNL     1      -9.777  13.193  66.709  0.00  0.00    +0.249 C 
ATOM      8  O   UNL     1      -9.167  12.135  66.503  0.00  0.00    -0.273 OA
ATOM      9  S   UNL     1     -10.355  15.399  68.083  0.00  0.00    -0.118 S 
ATOM     10  C   UNL     1      -7.762  14.996  67.602  0.00  0.00    +0.013 C 
ENDROOT
BRANCH   3  11
ATOM     11  C   UNL     1     -10.466  16.744  65.681  0.00  0.00    +0.383 C 
ATOM     12  OXT UNL     1     -10.288  18.069  65.959  0.00  0.00    -0.244 OA
ATOM     13  O   UNL     1     -10.978  16.505  64.538  0.00  0.00    -0.244 OA
ENDBRANCH   3  11
BRANCH   6  14
ATOM     14  N   UNL     1     -11.569  13.243  68.265  0.00  0.00    -0.195 NA
ATOM     15  C   UNL     1     -11.951  11.984  68.825  0.00  0.00    +0.246 C 
ATOM     16  O   UNL     1     -11.983  10.955  68.092  0.00  0.00    -0.273 OA
BRANCH  15  17
ATOM     17  C   UNL     1     -12.022  11.874  70.301  0.00  0.00    +0.113 C 
BRANCH  17  18
ATOM     18  C   UNL     1     -12.143  10.417  70.635  0.00  0.00    -0.013 A 
ATOM     19  C   UNL     1     -10.942   9.780  70.904  0.00  0.00    -0.004 A 
ATOM     20  C   UNL     1     -10.829   8.732  71.797  0.00  0.00    -0.000 A 
ATOM     21  C   UNL     1     -12.013   8.185  72.261  0.00  0.00    -0.000 A 
ATOM     22  C   UNL     1     -13.182   8.896  72.149  0.00  0.00    -0.000 A 
ATOM     23  C   UNL     1     -13.184  10.113  71.508  0.00  0.00    -0.004 A 
ENDBRANCH  17  18
ENDBRANCH  15  17
ENDBRANCH   6  14
TORSDOF 4
ENDMDL
MODEL 3
REMARK VINA RESULT:      -6.5      2.178      2.684
REMARK  Name = 
REMARK  4 active torsions:
REMARK  status: ('A' for Active; 'I' for Inactive)
REMARK    1  A    between atoms: CA_6  and  N_7
REMARK    2  A    between atoms: C_8  and  C_10
REMARK    3  A    between atoms: C_10  and  C_11
REMARK    4  A    between atoms: CA_20  and  C_21
REMARK                            x       y       z     vdW  Elec       q    Type
REMARK                         _______ _______ _______ _____ _____    ______ ____
ROOT
ATOM      1  C   UNL     1      -4.610  18.472  67.738  0.00  0.00    +0.013 C 
ATOM      2  C   UNL     1      -5.819  18.213  67.509  0.00  0.00    +0.068 C 
ATOM      3  CA  UNL     1      -6.407  19.431  66.511  0.00  0.00    +0.189 C 
ATOM      4  N   UNL     1      -7.919  18.907  66.602  0.00  0.00    -0.259 N 
ATOM      5  C   UNL     1      -8.297  19.342  68.006  0.00  0.00    +0.153 C 
ATOM      6  CA  UNL     1      -9.680  18.422  67.653  0.00  0.00    +0.200 C 
ATOM      7  C   UNL     1      -8.680  17.678  66.604  0.00  0.00    +0.249 C 
ATOM      8  O   UNL     1      -9.165  17.024  65.671  0.00  0.00    -0.273 OA
ATOM      9  S   UNL     1      -7.081  18.038  68.703  0.00  0.00    -0.118 S 
ATOM     10  C   UNL     1      -5.903  17.051  66.522  0.00  0.00    +0.013 C 
ENDROOT
BRANCH   3  11
ATOM     11  C   UNL     1      -6.523  20.550  67.719  0.00  0.00    +0.383 C 
ATOM     12  OXT UNL     1      -5.343  20.910  68.304  0.00  0.00    -0.244 OA
ATOM     13  O   UNL     1      -7.182  21.518  67.213  0.00  0.00    -0.244 OA
ENDBRANCH   3  11
BRANCH   6  14
ATOM     14  N   UNL     1      -9.459  17.338  68.821  0.00  0.00    -0.195 NA
ATOM     15  C   UNL     1     -10.641  16.587  69.108  0.00  0.00    +0.246 C 
ATOM     16  O   UNL     1     -11.661  16.717  68.374  0.00  0.00    -0.273 OA
BRANCH  15  17
ATOM     17  C   UNL     1     -10.538  15.478  70.085  0.00  0.00    +0.113 C 
BRANCH  17  18
ATOM     18  C   UNL     1     -11.882  15.327  70.733  0.00  0.00    -0.013 A 
ATOM     19  C   UNL     1     -12.372  14.031  70.760  0.00  0.00    -0.004 A 
ATOM     20  C   UNL     1     -13.176  13.552  71.776  0.00  0.00    -0.000 A 
ATOM     21  C   UNL     1     -13.664  14.487  72.673  0.00  0.00    -0.000 A 
ATOM     22  C   UNL     1     -13.063  15.718  72.768  0.00  0.00    -0.000 A 
ATOM     23  C   UNL     1     -12.030  16.042  71.918  0.00  0.00    -0.004 A 
ENDBRANCH  17  18
ENDBRANCH  15  17
ENDBRANCH   6  14
TORSDOF 4
ENDMDL
MODEL 4
REMARK VINA RESULT:      -6.4      1.604      2.004
REMARK  Name = 
REMARK  4 active torsions:
REMARK  status: ('A' for Active; 'I' for Inactive)
REMARK    1  A    between atoms: CA_6  and  N_7
REMARK    2  A    between atoms: C_8  and  C_10
REMARK    3  A    between atoms: C_10  and  C_11
REMARK    4  A    between atoms: CA_20  and  C_21
REMARK                            x       y       z     vdW  Elec       q    Type
REMARK                         _______ _______ _______ _____ _____    ______ ____
ROOT
ATOM      1  C   UNL     1      -8.619  17.770  67.416  0.00  0.00    +0.013 C 
ATOM      2  C   UNL     1      -9.029  16.584  67.341  0.00  0.00    +0.068 C 
ATOM      3  CA  UNL     1      -9.209  16.222  65.710  0.00  0.00    +0.189 C 
ATOM      4  N   UNL     1      -9.894  14.803  66.002  0.00  0.00    -0.259 N 
ATOM      5  C   UNL     1     -11.276  15.232  66.457  0.00  0.00    +0.153 C 
ATOM      6  CA  UNL     1     -11.404  13.576  66.811  0.00  0.00    +0.200 C 
ATOM      7  C   UNL     1      -9.780  13.665  66.886  0.00  0.00    +0.249 C 
ATOM      8  O   UNL     1      -9.116  12.625  66.786  0.00  0.00    -0.273 OA
ATOM      9  S   UNL     1     -10.495  15.951  68.050  0.00  0.00    -0.118 S 
ATOM     10  C   UNL     1      -7.875  15.636  67.657  0.00  0.00    +0.013 C 
ENDROOT
BRANCH   3  11
ATOM     11  C   UNL     1     -10.611  17.075  65.536  0.00  0.00    +0.383 C 
ATOM     12  OXT UNL     1     -10.505  18.425  65.717  0.00  0.00    -0.244 OA
ATOM     13  O   UNL     1     -11.074  16.726  64.402  0.00  0.00    -0.244 OA
ENDBRANCH   3  11
BRANCH   6  14
ATOM     14  N   UNL     1     -11.610  13.762  68.395  0.00  0.00    -0.195 NA
ATOM     15  C   UNL     1     -12.033  12.559  69.042  0.00  0.00    +0.246 C 
ATOM     16  O   UNL     1     -12.068  11.476  68.393  0.00  0.00    -0.273 OA
BRANCH  15  17
ATOM     17  C   UNL     1     -12.146  12.569  70.520  0.00  0.00    +0.113 C 
BRANCH  17  18
ATOM     18  C   UNL     1     -12.572  13.948  70.926  0.00  0.00    -0.013 A 
ATOM     19  C   UNL     1     -13.853  14.029  71.449  0.00  0.00    -0.004 A 
ATOM     20  C   UNL     1     -14.214  14.945  72.418  0.00  0.00    -0.000 A 
ATOM     21  C   UNL     1     -13.295  15.941  72.700  0.00  0.00    -0.000 A 
ATOM     22  C   UNL     1     -11.982  15.781  72.332  0.00  0.00    -0.000 A 
ATOM     23  C   UNL     1     -11.603  14.668  71.618  0.00  0.00    -0.004 A 
ENDBRANCH  17  18
ENDBRANCH  15  17
ENDBRANCH   6  14
TORSDOF 4
ENDMDL
MODEL 5
REMARK VINA RESULT:      -6.4      4.137      5.361
REMARK  Name = 
REMARK  4 active torsions:
REMARK  status: ('A' for Active; 'I' for Inactive)
REMARK    1  A    between atoms: CA_6  and  N_7
REMARK    2  A    between atoms: C_8  and  C_10
REMARK    3  A    between atoms: C_10  and  C_11
REMARK    4  A    between atoms: CA_20  and  C_21
REMARK                            x       y       z     vdW  Elec       q    Type
REMARK                         _______ _______ _______ _____ _____    ______ ____
ROOT
ATOM      1  C   UNL     1     -10.628  16.453  66.013  0.00  0.00    +0.013 C 
ATOM      2  C   UNL     1     -10.513  15.207  66.131  0.00  0.00    +0.068 C 
ATOM      3  CA  UNL     1     -10.502  14.560  64.580  0.00  0.00    +0.189 C 
ATOM      4  N   UNL     1     -10.549  13.048  65.106  0.00  0.00    -0.259 N 
ATOM      5  C   UNL     1     -11.993  12.939  65.560  0.00  0.00    +0.153 C 
ATOM      6  CA  UNL     1     -11.435  11.449  66.156  0.00  0.00    +0.200 C 
ATOM      7  C   UNL     1      -9.992  12.204  66.139  0.00  0.00    +0.249 C 
ATOM      8  O   UNL     1      -8.957  11.523  66.159  0.00  0.00    -0.273 OA
ATOM      9  S   UNL     1     -11.600  14.147  66.993  0.00  0.00    -0.118 S 
ATOM     10  C   UNL     1      -9.076  14.873  66.525  0.00  0.00    +0.013 C 
ENDROOT
BRANCH   3  11
ATOM     11  C   UNL     1     -12.129  14.730  64.352  0.00  0.00    +0.383 C 
ATOM     12  OXT UNL     1     -12.553  15.994  64.053  0.00  0.00    -0.244 OA
ATOM     13  O   UNL     1     -12.437  13.848  63.486  0.00  0.00    -0.244 OA
ENDBRANCH   3  11
BRANCH   6  14
ATOM     14  N   UNL     1     -11.724  11.773  67.705  0.00  0.00    -0.195 NA
ATOM     15  C   UNL     1     -11.471  10.655  68.559  0.00  0.00    +0.246 C 
ATOM     16  O   UNL     1     -10.935   9.612  68.087  0.00  0.00    -0.273 OA
BRANCH  15  17
ATOM     17  C   UNL     1     -11.588  10.859  70.022  0.00  0.00    +0.113 C 
BRANCH  17  18
ATOM     18  C   UNL     1     -11.459   9.513  70.672  0.00  0.00    -0.013 A 
ATOM     19  C   UNL     1     -10.213   9.250  71.219  0.00  0.00    -0.004 A 
ATOM     20  C   UNL     1     -10.034   8.462  72.340  0.00  0.00    -0.000 A 
ATOM     21  C   UNL     1     -11.139   7.754  72.781  0.00  0.00    -0.000 A 
ATOM     22  C   UNL     1     -12.395   8.128  72.372  0.00  0.00    -0.000 A 
ATOM     23  C   UNL     1     -12.543   9.153  71.467  0.00  0.00    -0.004 A 
ENDBRANCH  17  18
ENDBRANCH  15  17
ENDBRANCH   6  14
TORSDOF 4
ENDMDL
MODEL 6
REMARK VINA RESULT:      -6.3      3.127      6.030
REMARK  Name = 
REMARK  4 active torsions:
REMARK  status: ('A' for Active; 'I' for Inactive)
REMARK    1  A    between atoms: CA_6  and  N_7
REMARK    2  A    between atoms: C_8  and  C_10
REMARK    3  A    between atoms: C_10  and  C_11
REMARK    4  A    between atoms: CA_20  and  C_21
REMARK                            x       y       z     vdW  Elec       q    Type
REMARK                         _______ _______ _______ _____ _____    ______ ____
ROOT
ATOM      1  C   UNL     1     -10.015  12.262  63.983  0.00  0.00    +0.013 C 
ATOM      2  C   UNL     1     -10.255  12.471  65.199  0.00  0.00    +0.068 C 
ATOM      3  CA  UNL     1     -11.863  12.057  65.466  0.00  0.00    +0.189 C 
ATOM      4  N   UNL     1     -11.857  12.615  66.968  0.00  0.00    -0.259 N 
ATOM      5  C   UNL     1     -11.879  14.113  66.725  0.00  0.00    +0.153 C 
ATOM      6  CA  UNL     1     -11.635  14.139  68.406  0.00  0.00    +0.200 C 
ATOM      7  C   UNL     1     -11.019  12.655  68.144  0.00  0.00    +0.249 C 
ATOM      8  O   UNL     1     -10.920  11.869  69.096  0.00  0.00    -0.273 OA
ATOM      9  S   UNL     1     -10.097  13.996  66.037  0.00  0.00    -0.118 S 
ATOM     10  C   UNL     1      -9.598  11.375  66.034  0.00  0.00    +0.013 C 
ENDROOT
BRANCH   3  11
ATOM     11  C   UNL     1     -12.471  13.421  64.761  0.00  0.00    +0.383 C 
ATOM     12  OXT UNL     1     -12.515  13.409  63.396  0.00  0.00    -0.244 OA
ATOM     13  O   UNL     1     -13.596  13.614  65.327  0.00  0.00    -0.244 OA
ENDBRANCH   3  11
BRANCH   6  14
ATOM     14  N   UNL     1     -10.207  14.876  68.354  0.00  0.00    -0.195 NA
ATOM     15  C   UNL     1     -10.255  16.212  68.861  0.00  0.00    +0.246 C 
ATOM     16  O   UNL     1     -11.310  16.636  69.413  0.00  0.00    -0.273 OA
BRANCH  15  17
ATOM     17  C   UNL     1      -8.980  16.958  68.974  0.00  0.00    +0.113 C 
BRANCH  17  18
ATOM     18  C   UNL     1      -9.033  18.085  67.985  0.00  0.00    -0.013 A 
ATOM     19  C   UNL     1      -9.622  17.766  66.772  0.00  0.00    -0.004 A 
ATOM     20  C   UNL     1     -10.333  18.679  66.018  0.00  0.00    -0.000 A 
ATOM     21  C   UNL     1     -10.255  20.003  66.414  0.00  0.00    -0.000 A 
ATOM     22  C   UNL     1      -9.833  20.311  67.684  0.00  0.00    -0.000 A 
ATOM     23  C   UNL     1      -9.418  19.307  68.528  0.00  0.00    -0.004 A 
ENDBRANCH  17  18
ENDBRANCH  15  17
ENDBRANCH   6  14
TORSDOF 4
ENDMDL
MODEL 7
REMARK VINA RESULT:      -6.3      3.689      4.636
REMARK  Name = 
REMARK  4 active torsions:
REMARK  status: ('A' for Active; 'I' for Inactive)
REMARK    1  A    between atoms: CA_6  and  N_7
REMARK    2  A    between atoms: C_8  and  C_10
REMARK    3  A    between atoms: C_10  and  C_11
REMARK    4  A    between atoms: CA_20  and  C_21
REMARK                            x       y       z     vdW  Elec       q    Type
REMARK                         _______ _______ _______ _____ _____    ______ ____
ROOT
ATOM      1  C   UNL     1     -11.240  15.680  64.890  0.00  0.00    +0.013 C 
ATOM      2  C   UNL     1     -10.947  14.669  65.577  0.00  0.00    +0.068 C 
ATOM      3  CA  UNL     1     -10.363  13.501  64.519  0.00  0.00    +0.189 C 
ATOM      4  N   UNL     1     -10.296  12.370  65.652  0.00  0.00    -0.259 N 
ATOM      5  C   UNL     1     -11.766  12.036  65.823  0.00  0.00    +0.153 C 
ATOM      6  CA  UNL     1     -11.156  11.127  67.121  0.00  0.00    +0.200 C 
ATOM      7  C   UNL     1      -9.930  12.196  67.040  0.00  0.00    +0.249 C 
ATOM      8  O   UNL     1      -8.844  11.906  67.561  0.00  0.00    -0.273 OA
ATOM      9  S   UNL     1     -12.036  13.765  66.601  0.00  0.00    -0.118 S 
ATOM     10  C   UNL     1      -9.656  14.944  66.345  0.00  0.00    +0.013 C 
ENDROOT
BRANCH   3  11
ATOM     11  C   UNL     1     -11.852  13.093  63.935  0.00  0.00    +0.383 C 
ATOM     12  OXT UNL     1     -12.529  14.092  63.296  0.00  0.00    -0.244 OA
ATOM     13  O   UNL     1     -11.658  12.049  63.230  0.00  0.00    -0.244 OA
ENDBRANCH   3  11
BRANCH   6  14
ATOM     14  N   UNL     1     -11.943  11.931  68.270  0.00  0.00    -0.195 NA
ATOM     15  C   UNL     1     -11.767  11.355  69.567  0.00  0.00    +0.246 C 
ATOM     16  O   UNL     1     -10.944  10.410  69.727  0.00  0.00    -0.273 OA
BRANCH  15  17
ATOM     17  C   UNL     1     -12.347  12.070  70.728  0.00  0.00    +0.113 C 
BRANCH  17  18
ATOM     18  C   UNL     1     -12.328  13.535  70.406  0.00  0.00    -0.013 A 
ATOM     19  C   UNL     1     -13.163  14.313  71.192  0.00  0.00    -0.004 A 
ATOM     20  C   UNL     1     -12.873  15.621  71.531  0.00  0.00    -0.000 A 
ATOM     21  C   UNL     1     -11.808  16.210  70.871  0.00  0.00    -0.000 A 
ATOM     22  C   UNL     1     -10.880  15.422  70.236  0.00  0.00    -0.000 A 
ATOM     23  C   UNL     1     -11.056  14.058  70.193  0.00  0.00    -0.004 A 
ENDBRANCH  17  18
ENDBRANCH  15  17
ENDBRANCH   6  14
TORSDOF 4
ENDMDL
MODEL 8
REMARK VINA RESULT:      -6.3      3.163      6.365
REMARK  Name = 
REMARK  4 active torsions:
REMARK  status: ('A' for Active; 'I' for Inactive)
REMARK    1  A    between atoms: CA_6  and  N_7
REMARK    2  A    between atoms: C_8  and  C_10
REMARK    3  A    between atoms: C_10  and  C_11
REMARK    4  A    between atoms: CA_20  and  C_21
REMARK                            x       y       z     vdW  Elec       q    Type
REMARK                         _______ _______ _______ _____ _____    ______ ____
ROOT
ATOM      1  C   UNL     1     -10.331  12.272  63.848  0.00  0.00    +0.013 C 
ATOM      2  C   UNL     1     -10.435  12.549  65.070  0.00  0.00    +0.068 C 
ATOM      3  CA  UNL     1     -12.057  12.386  65.480  0.00  0.00    +0.189 C 
ATOM      4  N   UNL     1     -11.843  12.980  66.953  0.00  0.00    -0.259 N 
ATOM      5  C   UNL     1     -11.667  14.457  66.652  0.00  0.00    +0.153 C 
ATOM      6  CA  UNL     1     -11.280  14.495  68.306  0.00  0.00    +0.200 C 
ATOM      7  C   UNL     1     -10.911  12.928  68.057  0.00  0.00    +0.249 C 
ATOM      8  O   UNL     1     -10.847  12.164  69.029  0.00  0.00    -0.273 OA
ATOM      9  S   UNL     1      -9.985  14.056  65.829  0.00  0.00    -0.118 S 
ATOM     10  C   UNL     1      -9.876  11.391  65.894  0.00  0.00    +0.013 C 
ENDROOT
BRANCH   3  11
ATOM     11  C   UNL     1     -12.518  13.804  64.772  0.00  0.00    +0.383 C 
ATOM     12  OXT UNL     1     -12.576  13.790  63.407  0.00  0.00    -0.244 OA
ATOM     13  O   UNL     1     -13.610  14.123  65.346  0.00  0.00    -0.244 OA
ENDBRANCH   3  11
BRANCH   6  14
ATOM     14  N   UNL     1      -9.769  15.009  68.110  0.00  0.00    -0.195 NA
ATOM     15  C   UNL     1      -9.521  16.257  68.762  0.00  0.00    +0.246 C 
ATOM     16  O   UNL     1     -10.403  16.756  69.517  0.00  0.00    -0.273 OA
BRANCH  15  17
ATOM     17  C   UNL     1      -8.135  16.781  68.754  0.00  0.00    +0.113 C 
BRANCH  17  18
ATOM     18  C   UNL     1      -8.209  18.233  68.383  0.00  0.00    -0.013 A 
ATOM     19  C   UNL     1      -7.198  19.019  68.911  0.00  0.00    -0.004 A 
ATOM     20  C   UNL     1      -6.689  20.127  68.261  0.00  0.00    -0.000 A 
ATOM     21  C   UNL     1      -7.383  20.562  67.145  0.00  0.00    -0.000 A 
ATOM     22  C   UNL     1      -8.262  19.715  66.516  0.00  0.00    -0.000 A 
ATOM     23  C   UNL     1      -8.506  18.468  67.044  0.00  0.00    -0.004 A 
ENDBRANCH  17  18
ENDBRANCH  15  17
ENDBRANCH   6  14
TORSDOF 4
ENDMDL
MODEL 9
REMARK VINA RESULT:      -6.1      3.269      5.435
REMARK  Name = 
REMARK  4 active torsions:
REMARK  status: ('A' for Active; 'I' for Inactive)
REMARK    1  A    between atoms: CA_6  and  N_7
REMARK    2  A    between atoms: C_8  and  C_10
REMARK    3  A    between atoms: C_10  and  C_11
REMARK    4  A    between atoms: CA_20  and  C_21
REMARK                            x       y       z     vdW  Elec       q    Type
REMARK                         _______ _______ _______ _____ _____    ______ ____
ROOT
ATOM      1  C   UNL     1      -8.619  19.352  66.198  0.00  0.00    +0.013 C 
ATOM      2  C   UNL     1      -9.232  18.441  66.810  0.00  0.00    +0.068 C 
ATOM      3  CA  UNL     1      -8.748  18.509  68.418  0.00  0.00    +0.189 C 
ATOM      4  N   UNL     1      -9.525  17.164  68.809  0.00  0.00    -0.259 N 
ATOM      5  C   UNL     1      -8.629  16.113  68.180  0.00  0.00    +0.153 C 
ATOM      6  CA  UNL     1      -9.913  15.099  68.639  0.00  0.00    +0.200 C 
ATOM      7  C   UNL     1     -10.774  16.480  68.561  0.00  0.00    +0.249 C 
ATOM      8  O   UNL     1     -11.863  16.543  69.148  0.00  0.00    -0.273 OA
ATOM      9  S   UNL     1      -9.170  16.733  66.451  0.00  0.00    -0.118 S 
ATOM     10  C   UNL     1     -10.690  18.857  66.995  0.00  0.00    +0.013 C 
ENDROOT
BRANCH   3  11
ATOM     11  C   UNL     1      -7.280  17.805  68.146  0.00  0.00    +0.383 C 
ATOM     12  OXT UNL     1      -6.384  18.562  67.445  0.00  0.00    -0.244 OA
ATOM     13  O   UNL     1      -6.873  17.430  69.294  0.00  0.00    -0.244 OA
ENDBRANCH   3  11
BRANCH   6  14
ATOM     14  N   UNL     1     -10.295  14.634  67.147  0.00  0.00    -0.195 NA
ATOM     15  C   UNL     1     -11.319  13.636  67.125  0.00  0.00    +0.246 C 
ATOM     16  O   UNL     1     -11.913  13.322  68.196  0.00  0.00    -0.273 OA
BRANCH  15  17
ATOM     17  C   UNL     1     -11.842  13.207  65.807  0.00  0.00    +0.113 C 
BRANCH  17  18
ATOM     18  C   UNL     1     -10.758  12.424  65.130  0.00  0.00    -0.013 A 
ATOM     19  C   UNL     1     -10.441  11.222  65.741  0.00  0.00    -0.004 A 
ATOM     20  C   UNL     1     -10.010  10.112  65.040  0.00  0.00    -0.000 A 
ATOM     21  C   UNL     1      -9.691  10.307  63.708  0.00  0.00    -0.000 A 
ATOM     22  C   UNL     1     -10.155  11.421  63.052  0.00  0.00    -0.000 A 
ATOM     23  C   UNL     1     -10.867  12.373  63.743  0.00  0.00    -0.004 A 
ENDBRANCH  17  18
ENDBRANCH  15  17
ENDBRANCH   6  14
TORSDOF 4
ENDMDL
