MODEL 1
REMARK VINA RESULT:      -8.8      0.000      0.000
REMARK  Name = 
REMARK  8 active torsions:
REMARK  status: ('A' for Active; 'I' for Inactive)
REMARK    1  A    between atoms: C_2  and  C_4
REMARK    2  A    between atoms: C_9  and  O_10
REMARK    3  A    between atoms: O_10  and  C_11
REMARK    4  A    between atoms: C_11  and  C_12
REMARK    5  A    between atoms: C_12  and  C_14
REMARK    6  A    between atoms: C_14  and  O_15
REMARK    7  A    between atoms: O_15  and  C_16
REMARK    8  A    between atoms: C_22  and  C_23
REMARK                            x       y       z     vdW  Elec       q    Type
REMARK                         _______ _______ _______ _____ _____    ______ ____
ROOT
ATOM      1  C   UNL     1     -10.648  16.146  65.525  0.00  0.00    +0.239 C 
ATOM      2  O   UNL     1     -11.051  17.012  64.529  0.00  0.00    -0.215 OA
ENDROOT
BRANCH   1   3
ATOM      3  C   UNL     1     -11.291  14.802  65.478  0.00  0.00    +0.242 C 
BRANCH   3   4
ATOM      4  O   UNL     1     -12.127  14.535  66.598  0.00  0.00    -0.472 OA
BRANCH   4   9
ATOM      5  C   UNL     1     -12.991  14.305  71.140  0.00  0.00    +0.228 A 
ATOM      6  O   UNL     1     -12.475  13.102  70.958  0.00  0.00    -0.446 OA
ATOM      7  C   UNL     1     -11.883  12.840  69.804  0.00  0.00    +0.152 A 
ATOM      8  C   UNL     1     -11.648  13.838  68.870  0.00  0.00    +0.107 A 
ATOM      9  C   UNL     1     -11.630  13.589  67.503  0.00  0.00    +0.145 A 
ATOM     10  C   UNL     1     -11.313  12.299  67.096  0.00  0.00    +0.037 A 
ATOM     11  C   UNL     1     -11.425  11.285  68.036  0.00  0.00    +0.006 A 
ATOM     12  C   UNL     1     -11.732  15.149  69.318  0.00  0.00    +0.205 A 
ATOM     13  O   UNL     1     -11.524  16.040  68.472  0.00  0.00    -0.286 OA
ATOM     14  C   UNL     1     -11.804  11.535  69.333  0.00  0.00    +0.038 A 
ATOM     15  C   UNL     1     -12.338  15.372  70.548  0.00  0.00    +0.087 A 
BRANCH   5  17
ATOM     16  O   UNL     1     -14.655  13.553  72.649  0.00  0.00    -0.237 OA
ATOM     17  C   UNL     1     -14.145  14.506  72.023  0.00  0.00    +0.422 C 
ATOM     18  O   UNL     1     -14.619  15.779  72.278  0.00  0.00    -0.237 OA
ENDBRANCH   5  17
ENDBRANCH   4   9
ENDBRANCH   3   4
ENDBRANCH   1   3
BRANCH   1  19
ATOM     19  C   UNL     1      -9.169  16.124  65.757  0.00  0.00    +0.242 C 
BRANCH  19  20
ATOM     20  O   UNL     1      -8.955  16.474  67.122  0.00  0.00    -0.472 OA
BRANCH  20  21
ATOM     21  C   UNL     1      -8.799  17.767  67.563  0.00  0.00    +0.145 A 
ATOM     22  C   UNL     1      -7.584  18.140  68.121  0.00  0.00    +0.107 A 
ATOM     23  C   UNL     1      -7.113  19.441  68.046  0.00  0.00    +0.152 A 
ATOM     24  O   UNL     1      -6.110  19.770  68.819  0.00  0.00    -0.446 OA
ATOM     25  C   UNL     1      -5.646  18.989  69.778  0.00  0.00    +0.228 A 
ATOM     26  C   UNL     1      -5.942  17.634  69.814  0.00  0.00    +0.087 A 
ATOM     27  C   UNL     1      -7.847  20.383  67.338  0.00  0.00    +0.038 A 
ATOM     28  C   UNL     1      -9.170  20.100  67.061  0.00  0.00    +0.006 A 
ATOM     29  C   UNL     1      -6.912  17.216  68.910  0.00  0.00    +0.205 A 
ATOM     30  O   UNL     1      -7.318  16.015  68.890  0.00  0.00    -0.286 OA
ATOM     31  C   UNL     1      -9.653  18.808  67.231  0.00  0.00    +0.037 A 
BRANCH  25  32
ATOM     32  C   UNL     1      -5.034  19.619  70.952  0.00  0.00    +0.422 C 
ATOM     33  O   UNL     1      -5.209  20.998  71.084  0.00  0.00    -0.237 OA
ATOM     34  O   UNL     1      -5.076  18.940  72.021  0.00  0.00    -0.237 OA
ENDBRANCH  25  32
ENDBRANCH  20  21
ENDBRANCH  19  20
ENDBRANCH   1  19
TORSDOF 8
ENDMDL
MODEL 2
REMARK VINA RESULT:      -8.8      2.940      4.692
REMARK  Name = 
REMARK  8 active torsions:
REMARK  status: ('A' for Active; 'I' for Inactive)
REMARK    1  A    between atoms: C_2  and  C_4
REMARK    2  A    between atoms: C_9  and  O_10
REMARK    3  A    between atoms: O_10  and  C_11
REMARK    4  A    between atoms: C_11  and  C_12
REMARK    5  A    between atoms: C_12  and  C_14
REMARK    6  A    between atoms: C_14  and  O_15
REMARK    7  A    between atoms: O_15  and  C_16
REMARK    8  A    between atoms: C_22  and  C_23
REMARK                            x       y       z     vdW  Elec       q    Type
REMARK                         _______ _______ _______ _____ _____    ______ ____
ROOT
ATOM      1  C   UNL     1      -9.871  10.559  67.064  0.00  0.00    +0.239 C 
ATOM      2  O   UNL     1      -9.087  11.129  68.046  0.00  0.00    -0.215 OA
ENDROOT
BRANCH   1   3
ATOM      3  C   UNL     1     -11.272  10.262  67.480  0.00  0.00    +0.242 C 
BRANCH   3   4
ATOM      4  O   UNL     1     -11.859  11.293  68.266  0.00  0.00    -0.472 OA
BRANCH   4   9
ATOM      5  C   UNL     1     -13.557  14.081  71.547  0.00  0.00    +0.228 A 
ATOM      6  O   UNL     1     -13.539  12.944  72.220  0.00  0.00    -0.446 OA
ATOM      7  C   UNL     1     -12.899  11.912  71.692  0.00  0.00    +0.152 A 
ATOM      8  C   UNL     1     -12.120  12.051  70.554  0.00  0.00    +0.107 A 
ATOM      9  C   UNL     1     -11.954  11.021  69.636  0.00  0.00    +0.145 A 
ATOM     10  C   UNL     1     -12.108   9.722  70.104  0.00  0.00    +0.037 A 
ATOM     11  C   UNL     1     -12.784   9.548  71.303  0.00  0.00    +0.006 A 
ATOM     12  C   UNL     1     -11.756  13.342  70.196  0.00  0.00    +0.205 A 
ATOM     13  O   UNL     1     -11.061  13.458  69.168  0.00  0.00    -0.286 OA
ATOM     14  C   UNL     1     -13.261  10.613  72.028  0.00  0.00    +0.038 A 
ATOM     15  C   UNL     1     -12.437  14.393  70.796  0.00  0.00    +0.087 A 
BRANCH   5  17
ATOM     16  O   UNL     1     -15.787  14.784  71.165  0.00  0.00    -0.237 OA
ATOM     17  C   UNL     1     -14.676  15.020  71.683  0.00  0.00    +0.422 C 
ATOM     18  O   UNL     1     -14.561  16.135  72.493  0.00  0.00    -0.237 OA
ENDBRANCH   5  17
ENDBRANCH   4   9
ENDBRANCH   3   4
ENDBRANCH   1   3
BRANCH   1  19
ATOM     19  C   UNL     1      -9.743  11.209  65.721  0.00  0.00    +0.242 C 
BRANCH  19  20
ATOM     20  O   UNL     1      -9.569  12.605  65.948  0.00  0.00    -0.472 OA
BRANCH  20  21
ATOM     21  C   UNL     1     -10.561  13.538  65.761  0.00  0.00    +0.145 A 
ATOM     22  C   UNL     1     -10.207  14.875  65.644  0.00  0.00    +0.107 A 
ATOM     23  C   UNL     1     -10.961  15.770  64.903  0.00  0.00    +0.152 A 
ATOM     24  O   UNL     1     -10.721  17.046  65.062  0.00  0.00    -0.446 OA
ATOM     25  C   UNL     1      -9.932  17.524  66.008  0.00  0.00    +0.228 A 
ATOM     26  C   UNL     1      -9.027  16.710  66.674  0.00  0.00    +0.087 A 
ATOM     27  C   UNL     1     -12.068  15.303  64.206  0.00  0.00    +0.038 A 
ATOM     28  C   UNL     1     -12.589  14.075  64.565  0.00  0.00    +0.006 A 
ATOM     29  C   UNL     1      -9.161  15.348  66.426  0.00  0.00    +0.205 A 
ATOM     30  O   UNL     1      -8.438  14.497  67.024  0.00  0.00    -0.286 OA
ATOM     31  C   UNL     1     -11.859  13.226  65.388  0.00  0.00    +0.037 A 
BRANCH  25  32
ATOM     32  C   UNL     1     -10.209  18.865  66.532  0.00  0.00    +0.422 C 
ATOM     33  O   UNL     1     -10.838  18.932  67.777  0.00  0.00    -0.237 OA
ATOM     34  O   UNL     1      -9.318  19.736  66.302  0.00  0.00    -0.237 OA
ENDBRANCH  25  32
ENDBRANCH  20  21
ENDBRANCH  19  20
ENDBRANCH   1  19
TORSDOF 8
ENDMDL
MODEL 3
REMARK VINA RESULT:      -8.7      2.449      8.097
REMARK  Name = 
REMARK  8 active torsions:
REMARK  status: ('A' for Active; 'I' for Inactive)
REMARK    1  A    between atoms: C_2  and  C_4
REMARK    2  A    between atoms: C_9  and  O_10
REMARK    3  A    between atoms: O_10  and  C_11
REMARK    4  A    between atoms: C_11  and  C_12
REMARK    5  A    between atoms: C_12  and  C_14
REMARK    6  A    between atoms: C_14  and  O_15
REMARK    7  A    between atoms: O_15  and  C_16
REMARK    8  A    between atoms: C_22  and  C_23
REMARK                            x       y       z     vdW  Elec       q    Type
REMARK                         _______ _______ _______ _____ _____    ______ ____
ROOT
ATOM      1  C   UNL     1     -10.307  19.278  67.733  0.00  0.00    +0.239 C 
ATOM      2  O   UNL     1     -10.166  20.406  68.514  0.00  0.00    -0.215 OA
ENDROOT
BRANCH   1   3
ATOM      3  C   UNL     1      -9.664  19.366  66.390  0.00  0.00    +0.242 C 
BRANCH   3   4
ATOM      4  O   UNL     1      -8.388  19.997  66.414  0.00  0.00    -0.472 OA
BRANCH   4   9
ATOM      5  C   UNL     1      -5.298  19.767  69.853  0.00  0.00    +0.228 A 
ATOM      6  O   UNL     1      -5.031  18.623  69.247  0.00  0.00    -0.446 OA
ATOM      7  C   UNL     1      -5.564  18.404  68.055  0.00  0.00    +0.152 A 
ATOM      8  C   UNL     1      -6.242  19.402  67.373  0.00  0.00    +0.107 A 
ATOM      9  C   UNL     1      -7.294  19.129  66.506  0.00  0.00    +0.145 A 
ATOM     10  C   UNL     1      -7.318  17.873  65.913  0.00  0.00    +0.037 A 
ATOM     11  C   UNL     1      -6.559  16.871  66.500  0.00  0.00    +0.006 A 
ATOM     12  C   UNL     1      -6.046  20.705  67.809  0.00  0.00    +0.205 A 
ATOM     13  O   UNL     1      -6.664  21.596  67.195  0.00  0.00    -0.286 OA
ATOM     14  C   UNL     1      -5.782  17.106  67.609  0.00  0.00    +0.038 A 
ATOM     15  C   UNL     1      -5.459  20.886  69.054  0.00  0.00    +0.087 A 
BRANCH   5  17
ATOM     16  O   UNL     1      -5.577  20.934  71.895  0.00  0.00    -0.237 OA
ATOM     17  C   UNL     1      -5.314  19.859  71.317  0.00  0.00    +0.422 C 
ATOM     18  O   UNL     1      -5.157  18.725  72.092  0.00  0.00    -0.237 OA
ENDBRANCH   5  17
ENDBRANCH   4   9
ENDBRANCH   3   4
ENDBRANCH   1   3
BRANCH   1  19
ATOM     19  C   UNL     1     -10.059  17.993  68.460  0.00  0.00    +0.242 C 
BRANCH  19  20
ATOM     20  O   UNL     1     -10.181  16.942  67.505  0.00  0.00    -0.472 OA
BRANCH  20  21
ATOM     21  C   UNL     1     -10.977  15.835  67.684  0.00  0.00    +0.145 A 
ATOM     22  C   UNL     1     -10.787  14.735  66.859  0.00  0.00    +0.107 A 
ATOM     23  C   UNL     1     -11.061  13.445  67.284  0.00  0.00    +0.152 A 
ATOM     24  O   UNL     1     -11.118  12.505  66.377  0.00  0.00    -0.446 OA
ATOM     25  C   UNL     1     -11.103  12.748  65.078  0.00  0.00    +0.228 A 
ATOM     26  C   UNL     1     -10.674  13.967  64.576  0.00  0.00    +0.087 A 
ATOM     27  C   UNL     1     -11.478  13.242  68.594  0.00  0.00    +0.038 A 
ATOM     28  C   UNL     1     -11.957  14.329  69.298  0.00  0.00    +0.006 A 
ATOM     29  C   UNL     1     -10.469  14.961  65.527  0.00  0.00    +0.205 A 
ATOM     30  O   UNL     1     -10.140  16.137  65.188  0.00  0.00    -0.286 OA
ATOM     31  C   UNL     1     -11.756  15.615  68.810  0.00  0.00    +0.037 A 
BRANCH  25  32
ATOM     32  C   UNL     1     -11.796  11.811  64.188  0.00  0.00    +0.422 C 
ATOM     33  O   UNL     1     -13.014  12.239  63.656  0.00  0.00    -0.237 OA
ATOM     34  O   UNL     1     -11.049  11.136  63.418  0.00  0.00    -0.237 OA
ENDBRANCH  25  32
ENDBRANCH  20  21
ENDBRANCH  19  20
ENDBRANCH   1  19
TORSDOF 8
ENDMDL
MODEL 4
REMARK VINA RESULT:      -8.6      1.604      2.850
REMARK  Name = 
REMARK  8 active torsions:
REMARK  status: ('A' for Active; 'I' for Inactive)
REMARK    1  A    between atoms: C_2  and  C_4
REMARK    2  A    between atoms: C_9  and  O_10
REMARK    3  A    between atoms: O_10  and  C_11
REMARK    4  A    between atoms: C_11  and  C_12
REMARK    5  A    between atoms: C_12  and  C_14
REMARK    6  A    between atoms: C_14  and  O_15
REMARK    7  A    between atoms: O_15  and  C_16
REMARK    8  A    between atoms: C_22  and  C_23
REMARK                            x       y       z     vdW  Elec       q    Type
REMARK                         _______ _______ _______ _____ _____    ______ ____
ROOT
ATOM      1  C   UNL     1     -11.924  14.077  64.554  0.00  0.00    +0.239 C 
ATOM      2  O   UNL     1     -12.444  13.756  63.317  0.00  0.00    -0.215 OA
ENDROOT
BRANCH   1   3
ATOM      3  C   UNL     1     -12.633  13.453  65.708  0.00  0.00    +0.242 C 
BRANCH   3   4
ATOM      4  O   UNL     1     -12.459  14.163  66.929  0.00  0.00    -0.472 OA
BRANCH   4   9
ATOM      5  C   UNL     1     -12.784  15.124  71.445  0.00  0.00    +0.228 A 
ATOM      6  O   UNL     1     -12.400  13.861  71.521  0.00  0.00    -0.446 OA
ATOM      7  C   UNL     1     -11.977  13.266  70.417  0.00  0.00    +0.152 A 
ATOM      8  C   UNL     1     -11.770  13.979  69.246  0.00  0.00    +0.107 A 
ATOM      9  C   UNL     1     -11.940  13.411  67.989  0.00  0.00    +0.145 A 
ATOM     10  C   UNL     1     -11.788  12.034  67.889  0.00  0.00    +0.037 A 
ATOM     11  C   UNL     1     -11.873  11.292  69.059  0.00  0.00    +0.006 A 
ATOM     12  C   UNL     1     -11.686  15.360  69.358  0.00  0.00    +0.205 A 
ATOM     13  O   UNL     1     -11.506  15.994  68.300  0.00  0.00    -0.286 OA
ATOM     14  C   UNL     1     -12.068  11.886  70.282  0.00  0.00    +0.038 A 
ATOM     15  C   UNL     1     -12.117  15.938  70.545  0.00  0.00    +0.087 A 
BRANCH   5  17
ATOM     16  O   UNL     1     -15.012  15.651  72.054  0.00  0.00    -0.237 OA
ATOM     17  C   UNL     1     -13.800  15.660  72.357  0.00  0.00    +0.422 C 
ATOM     18  O   UNL     1     -13.451  16.077  73.628  0.00  0.00    -0.237 OA
ENDBRANCH   5  17
ENDBRANCH   4   9
ENDBRANCH   3   4
ENDBRANCH   1   3
BRANCH   1  19
ATOM     19  C   UNL     1     -10.430  14.011  64.628  0.00  0.00    +0.242 C 
BRANCH  19  20
ATOM     20  O   UNL     1     -10.016  14.983  65.584  0.00  0.00    -0.472 OA
BRANCH  20  21
ATOM     21  C   UNL     1      -8.984  14.791  66.471  0.00  0.00    +0.145 A 
ATOM     22  C   UNL     1      -8.584  15.851  67.272  0.00  0.00    +0.107 A 
ATOM     23  C   UNL     1      -8.031  15.654  68.526  0.00  0.00    +0.152 A 
ATOM     24  O   UNL     1      -7.437  16.670  69.097  0.00  0.00    -0.446 OA
ATOM     25  C   UNL     1      -7.187  17.808  68.474  0.00  0.00    +0.228 A 
ATOM     26  C   UNL     1      -7.838  18.145  67.296  0.00  0.00    +0.087 A 
ATOM     27  C   UNL     1      -7.932  14.360  69.023  0.00  0.00    +0.038 A 
ATOM     28  C   UNL     1      -8.033  13.313  68.127  0.00  0.00    +0.006 A 
ATOM     29  C   UNL     1      -8.594  17.127  66.725  0.00  0.00    +0.205 A 
ATOM     30  O   UNL     1      -9.183  17.290  65.614  0.00  0.00    -0.286 OA
ATOM     31  C   UNL     1      -8.501  13.544  66.840  0.00  0.00    +0.037 A 
BRANCH  25  32
ATOM     32  C   UNL     1      -6.021  18.590  68.896  0.00  0.00    +0.422 C 
ATOM     33  O   UNL     1      -6.191  19.415  70.009  0.00  0.00    -0.237 OA
ATOM     34  O   UNL     1      -4.903  18.001  68.795  0.00  0.00    -0.237 OA
ENDBRANCH  25  32
ENDBRANCH  20  21
ENDBRANCH  19  20
ENDBRANCH   1  19
TORSDOF 8
ENDMDL
MODEL 5
REMARK VINA RESULT:      -8.6      2.888      7.883
REMARK  Name = 
REMARK  8 active torsions:
REMARK  status: ('A' for Active; 'I' for Inactive)
REMARK    1  A    between atoms: C_2  and  C_4
REMARK    2  A    between atoms: C_9  and  O_10
REMARK    3  A    between atoms: O_10  and  C_11
REMARK    4  A    between atoms: C_11  and  C_12
REMARK    5  A    between atoms: C_12  and  C_14
REMARK    6  A    between atoms: C_14  and  O_15
REMARK    7  A    between atoms: O_15  and  C_16
REMARK    8  A    between atoms: C_22  and  C_23
REMARK                            x       y       z     vdW  Elec       q    Type
REMARK                         _______ _______ _______ _____ _____    ______ ____
ROOT
ATOM      1  C   UNL     1      -8.040  20.268  66.972  0.00  0.00    +0.239 C 
ATOM      2  O   UNL     1      -7.152  21.151  67.551  0.00  0.00    -0.215 OA
ENDROOT
BRANCH   1   3
ATOM      3  C   UNL     1      -7.488  19.495  65.822  0.00  0.00    +0.242 C 
BRANCH   3   4
ATOM      4  O   UNL     1      -6.107  19.180  65.963  0.00  0.00    -0.472 OA
BRANCH   4   9
ATOM      5  C   UNL     1      -4.565  19.245  70.326  0.00  0.00    +0.228 A 
ATOM      6  O   UNL     1      -4.949  17.982  70.253  0.00  0.00    -0.446 OA
ATOM      7  C   UNL     1      -5.258  17.488  69.064  0.00  0.00    +0.152 A 
ATOM      8  C   UNL     1      -5.026  18.206  67.901  0.00  0.00    +0.107 A 
ATOM      9  C   UNL     1      -5.826  18.074  66.773  0.00  0.00    +0.145 A 
ATOM     10  C   UNL     1      -6.504  16.871  66.612  0.00  0.00    +0.037 A 
ATOM     11  C   UNL     1      -6.657  16.067  67.732  0.00  0.00    +0.006 A 
ATOM     12  C   UNL     1      -4.158  19.285  67.992  0.00  0.00    +0.205 A 
ATOM     13  O   UNL     1      -3.959  19.928  66.943  0.00  0.00    -0.286 OA
ATOM     14  C   UNL     1      -6.137  16.418  68.954  0.00  0.00    +0.038 A 
ATOM     15  C   UNL     1      -3.841  19.752  69.261  0.00  0.00    +0.087 A 
BRANCH   5  17
ATOM     16  O   UNL     1      -5.928  20.531  71.775  0.00  0.00    -0.237 OA
ATOM     17  C   UNL     1      -4.806  20.037  71.537  0.00  0.00    +0.422 C 
ATOM     18  O   UNL     1      -3.826  20.154  72.505  0.00  0.00    -0.237 OA
ENDBRANCH   5  17
ENDBRANCH   4   9
ENDBRANCH   3   4
ENDBRANCH   1   3
BRANCH   1  19
ATOM     19  C   UNL     1      -8.824  19.453  67.953  0.00  0.00    +0.242 C 
BRANCH  19  20
ATOM     20  O   UNL     1      -9.629  18.552  67.198  0.00  0.00    -0.472 OA
BRANCH  20  21
ATOM     21  C   UNL     1     -10.151  17.385  67.707  0.00  0.00    +0.145 A 
ATOM     22  C   UNL     1     -10.319  16.302  66.855  0.00  0.00    +0.107 A 
ATOM     23  C   UNL     1     -10.255  14.996  67.311  0.00  0.00    +0.152 A 
ATOM     24  O   UNL     1     -10.689  14.051  66.516  0.00  0.00    -0.446 OA
ATOM     25  C   UNL     1     -11.337  14.292  65.390  0.00  0.00    +0.228 A 
ATOM     26  C   UNL     1     -11.301  15.541  64.787  0.00  0.00    +0.087 A 
ATOM     27  C   UNL     1      -9.951  14.762  68.646  0.00  0.00    +0.038 A 
ATOM     28  C   UNL     1     -10.092  15.810  69.536  0.00  0.00    +0.006 A 
ATOM     29  C   UNL     1     -10.722  16.550  65.550  0.00  0.00    +0.205 A 
ATOM     30  O   UNL     1     -10.688  17.748  65.137  0.00  0.00    -0.286 OA
ATOM     31  C   UNL     1     -10.251  17.106  69.061  0.00  0.00    +0.037 A 
BRANCH  25  32
ATOM     32  C   UNL     1     -12.313  13.301  64.925  0.00  0.00    +0.422 C 
ATOM     33  O   UNL     1     -12.454  13.164  63.543  0.00  0.00    -0.237 OA
ATOM     34  O   UNL     1     -12.377  12.235  65.607  0.00  0.00    -0.237 OA
ENDBRANCH  25  32
ENDBRANCH  20  21
ENDBRANCH  19  20
ENDBRANCH   1  19
TORSDOF 8
ENDMDL
MODEL 6
REMARK VINA RESULT:      -8.6      1.455      2.726
REMARK  Name = 
REMARK  8 active torsions:
REMARK  status: ('A' for Active; 'I' for Inactive)
REMARK    1  A    between atoms: C_2  and  C_4
REMARK    2  A    between atoms: C_9  and  O_10
REMARK    3  A    between atoms: O_10  and  C_11
REMARK    4  A    between atoms: C_11  and  C_12
REMARK    5  A    between atoms: C_12  and  C_14
REMARK    6  A    between atoms: C_14  and  O_15
REMARK    7  A    between atoms: O_15  and  C_16
REMARK    8  A    between atoms: C_22  and  C_23
REMARK                            x       y       z     vdW  Elec       q    Type
REMARK                         _______ _______ _______ _____ _____    ______ ____
ROOT
ATOM      1  C   UNL     1      -8.914  17.456  66.539  0.00  0.00    +0.239 C 
ATOM      2  O   UNL     1      -8.923  18.715  65.977  0.00  0.00    -0.215 OA
ENDROOT
BRANCH   1   3
ATOM      3  C   UNL     1     -10.037  16.574  66.109  0.00  0.00    +0.242 C 
BRANCH   3   4
ATOM      4  O   UNL     1     -10.921  16.227  67.169  0.00  0.00    -0.472 OA
BRANCH   4   9
ATOM      5  C   UNL     1     -12.673  14.528  71.102  0.00  0.00    +0.228 A 
ATOM      6  O   UNL     1     -12.360  13.394  70.499  0.00  0.00    -0.446 OA
ATOM      7  C   UNL     1     -11.614  13.449  69.407  0.00  0.00    +0.152 A 
ATOM      8  C   UNL     1     -11.025  14.634  68.994  0.00  0.00    +0.107 A 
ATOM      9  C   UNL     1     -10.789  14.921  67.654  0.00  0.00    +0.145 A 
ATOM     10  C   UNL     1     -10.640  13.842  66.791  0.00  0.00    +0.037 A 
ATOM     11  C   UNL     1     -11.114  12.610  67.216  0.00  0.00    +0.006 A 
ATOM     12  C   UNL     1     -10.954  15.659  69.927  0.00  0.00    +0.205 A 
ATOM     13  O   UNL     1     -10.429  16.723  69.546  0.00  0.00    -0.286 OA
ATOM     14  C   UNL     1     -11.684  12.439  68.455  0.00  0.00    +0.038 A 
ATOM     15  C   UNL     1     -11.735  15.545  71.070  0.00  0.00    +0.087 A 
BRANCH   5  17
ATOM     16  O   UNL     1     -14.604  15.701  71.816  0.00  0.00    -0.237 OA
ATOM     17  C   UNL     1     -13.920  14.658  71.865  0.00  0.00    +0.422 C 
ATOM     18  O   UNL     1     -14.430  13.578  72.562  0.00  0.00    -0.237 OA
ENDBRANCH   5  17
ENDBRANCH   4   9
ENDBRANCH   3   4
ENDBRANCH   1   3
BRANCH   1  19
ATOM     19  C   UNL     1      -7.569  16.797  66.546  0.00  0.00    +0.242 C 
BRANCH  19  20
ATOM     20  O   UNL     1      -6.637  17.756  67.037  0.00  0.00    -0.472 OA
BRANCH  20  21
ATOM     21  C   UNL     1      -5.721  17.493  68.028  0.00  0.00    +0.145 A 
ATOM     22  C   UNL     1      -5.669  18.334  69.130  0.00  0.00    +0.107 A 
ATOM     23  C   UNL     1      -5.267  17.883  70.377  0.00  0.00    +0.152 A 
ATOM     24  O   UNL     1      -4.985  18.780  71.287  0.00  0.00    -0.446 OA
ATOM     25  C   UNL     1      -4.895  20.072  71.028  0.00  0.00    +0.228 A 
ATOM     26  C   UNL     1      -5.431  20.618  69.871  0.00  0.00    +0.087 A 
ATOM     27  C   UNL     1      -4.969  16.537  70.543  0.00  0.00    +0.038 A 
ATOM     28  C   UNL     1      -4.722  15.784  69.411  0.00  0.00    +0.006 A 
ATOM     29  C   UNL     1      -5.870  19.693  68.929  0.00  0.00    +0.205 A 
ATOM     30  O   UNL     1      -6.319  20.064  67.803  0.00  0.00    -0.286 OA
ATOM     31  C   UNL     1      -5.043  16.290  68.158  0.00  0.00    +0.037 A 
BRANCH  25  32
ATOM     32  C   UNL     1      -3.990  20.884  71.848  0.00  0.00    +0.422 C 
ATOM     33  O   UNL     1      -4.474  22.121  72.278  0.00  0.00    -0.237 OA
ATOM     34  O   UNL     1      -3.275  20.240  72.673  0.00  0.00    -0.237 OA
ENDBRANCH  25  32
ENDBRANCH  20  21
ENDBRANCH  19  20
ENDBRANCH   1  19
TORSDOF 8
ENDMDL
MODEL 7
REMARK VINA RESULT:      -8.4      2.604      4.324
REMARK  Name = 
REMARK  8 active torsions:
REMARK  status: ('A' for Active; 'I' for Inactive)
REMARK    1  A    between atoms: C_2  and  C_4
REMARK    2  A    between atoms: C_9  and  O_10
REMARK    3  A    between atoms: O_10  and  C_11
REMARK    4  A    between atoms: C_11  and  C_12
REMARK    5  A    between atoms: C_12  and  C_14
REMARK    6  A    between atoms: C_14  and  O_15
REMARK    7  A    between atoms: O_15  and  C_16
REMARK    8  A    between atoms: C_22  and  C_23
REMARK                            x       y       z     vdW  Elec       q    Type
REMARK                         _______ _______ _______ _____ _____    ______ ____
ROOT
ATOM      1  C   UNL     1      -8.326  12.743  67.634  0.00  0.00    +0.239 C 
ATOM      2  O   UNL     1      -6.993  12.919  67.327  0.00  0.00    -0.215 OA
ENDROOT
BRANCH   1   3
ATOM      3  C   UNL     1      -8.690  11.360  68.057  0.00  0.00    +0.242 C 
BRANCH   3   4
ATOM      4  O   UNL     1     -10.060  11.043  67.837  0.00  0.00    -0.472 OA
BRANCH   4   9
ATOM      5  C   UNL     1     -11.422  14.444  65.009  0.00  0.00    +0.228 A 
ATOM      6  O   UNL     1     -11.190  13.500  64.113  0.00  0.00    -0.446 OA
ATOM      7  C   UNL     1     -10.984  12.265  64.542  0.00  0.00    +0.152 A 
ATOM      8  C   UNL     1     -11.174  11.921  65.871  0.00  0.00    +0.107 A 
ATOM      9  C   UNL     1     -10.437  10.921  66.494  0.00  0.00    +0.145 A 
ATOM     10  C   UNL     1      -9.909   9.923  65.685  0.00  0.00    +0.037 A 
ATOM     11  C   UNL     1      -9.808  10.185  64.326  0.00  0.00    +0.006 A 
ATOM     12  C   UNL     1     -11.908  12.805  66.650  0.00  0.00    +0.205 A 
ATOM     13  O   UNL     1     -12.070  12.491  67.845  0.00  0.00    -0.286 OA
ATOM     14  C   UNL     1     -10.239  11.371  63.782  0.00  0.00    +0.038 A 
ATOM     15  C   UNL     1     -12.122  14.082  66.147  0.00  0.00    +0.087 A 
BRANCH   5  17
ATOM     16  O   UNL     1     -10.016  16.335  65.250  0.00  0.00    -0.237 OA
ATOM     17  C   UNL     1     -11.047  15.838  64.750  0.00  0.00    +0.422 C 
ATOM     18  O   UNL     1     -11.763  16.601  63.846  0.00  0.00    -0.237 OA
ENDBRANCH   5  17
ENDBRANCH   4   9
ENDBRANCH   3   4
ENDBRANCH   1   3
BRANCH   1  19
ATOM     19  C   UNL     1      -8.910  13.830  68.483  0.00  0.00    +0.242 C 
BRANCH  19  20
ATOM     20  O   UNL     1      -8.233  15.036  68.140  0.00  0.00    -0.472 OA
BRANCH  20  21
ATOM     21  C   UNL     1      -8.612  16.279  68.589  0.00  0.00    +0.145 A 
ATOM     22  C   UNL     1      -7.629  17.225  68.846  0.00  0.00    +0.107 A 
ATOM     23  C   UNL     1      -7.870  18.583  68.718  0.00  0.00    +0.152 A 
ATOM     24  O   UNL     1      -6.994  19.408  69.232  0.00  0.00    -0.446 OA
ATOM     25  C   UNL     1      -5.999  19.017  70.008  0.00  0.00    +0.228 A 
ATOM     26  C   UNL     1      -5.594  17.691  70.053  0.00  0.00    +0.087 A 
ATOM     27  C   UNL     1      -9.111  19.007  68.260  0.00  0.00    +0.038 A 
ATOM     28  C   UNL     1     -10.160  18.110  68.306  0.00  0.00    +0.006 A 
ATOM     29  C   UNL     1      -6.431  16.794  69.398  0.00  0.00    +0.205 A 
ATOM     30  O   UNL     1      -6.205  15.547  69.422  0.00  0.00    -0.286 OA
ATOM     31  C   UNL     1      -9.910  16.762  68.530  0.00  0.00    +0.037 A 
BRANCH  25  32
ATOM     32  C   UNL     1      -5.501  19.951  71.023  0.00  0.00    +0.422 C 
ATOM     33  O   UNL     1      -4.598  19.438  71.956  0.00  0.00    -0.237 OA
ATOM     34  O   UNL     1      -5.284  21.132  70.618  0.00  0.00    -0.237 OA
ENDBRANCH  25  32
ENDBRANCH  20  21
ENDBRANCH  19  20
ENDBRANCH   1  19
TORSDOF 8
ENDMDL
MODEL 8
REMARK VINA RESULT:      -8.4      1.882      3.036
REMARK  Name = 
REMARK  8 active torsions:
REMARK  status: ('A' for Active; 'I' for Inactive)
REMARK    1  A    between atoms: C_2  and  C_4
REMARK    2  A    between atoms: C_9  and  O_10
REMARK    3  A    between atoms: O_10  and  C_11
REMARK    4  A    between atoms: C_11  and  C_12
REMARK    5  A    between atoms: C_12  and  C_14
REMARK    6  A    between atoms: C_14  and  O_15
REMARK    7  A    between atoms: O_15  and  C_16
REMARK    8  A    between atoms: C_22  and  C_23
REMARK                            x       y       z     vdW  Elec       q    Type
REMARK                         _______ _______ _______ _____ _____    ______ ____
ROOT
ATOM      1  C   UNL     1     -10.021  18.891  66.798  0.00  0.00    +0.239 C 
ATOM      2  O   UNL     1     -11.126  19.476  67.379  0.00  0.00    -0.215 OA
ENDROOT
BRANCH   1   3
ATOM      3  C   UNL     1     -10.331  17.834  65.793  0.00  0.00    +0.242 C 
BRANCH   3   4
ATOM      4  O   UNL     1      -9.496  16.686  65.902  0.00  0.00    -0.472 OA
BRANCH   4   9
ATOM      5  C   UNL     1     -11.455  15.149  69.803  0.00  0.00    +0.228 A 
ATOM      6  O   UNL     1     -12.007  14.312  68.942  0.00  0.00    -0.446 OA
ATOM      7  C   UNL     1     -11.529  14.276  67.708  0.00  0.00    +0.152 A 
ATOM      8  C   UNL     1     -10.375  14.960  67.360  0.00  0.00    +0.107 A 
ATOM      9  C   UNL     1     -10.169  15.473  66.084  0.00  0.00    +0.145 A 
ATOM     10  C   UNL     1     -10.841  14.856  65.036  0.00  0.00    +0.037 A 
ATOM     11  C   UNL     1     -11.937  14.066  65.353  0.00  0.00    +0.006 A 
ATOM     12  C   UNL     1      -9.561  15.388  68.400  0.00  0.00    +0.205 A 
ATOM     13  O   UNL     1      -8.528  16.007  68.079  0.00  0.00    -0.286 OA
ATOM     14  C   UNL     1     -12.335  13.866  66.653  0.00  0.00    +0.038 A 
ATOM     15  C   UNL     1     -10.096  15.383  69.681  0.00  0.00    +0.087 A 
BRANCH   5  17
ATOM     16  O   UNL     1     -11.687  16.367  71.822  0.00  0.00    -0.237 OA
ATOM     17  C   UNL     1     -12.236  15.718  70.908  0.00  0.00    +0.422 C 
ATOM     18  O   UNL     1     -13.616  15.650  70.898  0.00  0.00    -0.237 OA
ENDBRANCH   5  17
ENDBRANCH   4   9
ENDBRANCH   3   4
ENDBRANCH   1   3
BRANCH   1  19
ATOM     19  C   UNL     1      -8.963  19.863  66.376  0.00  0.00    +0.242 C 
BRANCH  19  20
ATOM     20  O   UNL     1      -7.730  19.403  66.924  0.00  0.00    -0.472 OA
BRANCH  20  21
ATOM     21  C   UNL     1      -6.629  20.205  67.108  0.00  0.00    +0.145 A 
ATOM     22  C   UNL     1      -5.844  20.015  68.237  0.00  0.00    +0.107 A 
ATOM     23  C   UNL     1      -4.489  20.299  68.242  0.00  0.00    +0.152 A 
ATOM     24  O   UNL     1      -3.883  20.354  69.400  0.00  0.00    -0.446 OA
ATOM     25  C   UNL     1      -4.523  20.326  70.556  0.00  0.00    +0.228 A 
ATOM     26  C   UNL     1      -5.836  19.887  70.646  0.00  0.00    +0.087 A 
ATOM     27  C   UNL     1      -3.885  20.727  67.067  0.00  0.00    +0.038 A 
ATOM     28  C   UNL     1      -4.698  21.206  66.058  0.00  0.00    +0.006 A 
ATOM     29  C   UNL     1      -6.477  19.685  69.428  0.00  0.00    +0.205 A 
ATOM     30  O   UNL     1      -7.698  19.348  69.376  0.00  0.00    -0.286 OA
ATOM     31  C   UNL     1      -6.071  20.995  66.114  0.00  0.00    +0.037 A 
BRANCH  25  32
ATOM     32  C   UNL     1      -3.920  21.017  71.701  0.00  0.00    +0.422 C 
ATOM     33  O   UNL     1      -4.521  22.213  72.096  0.00  0.00    -0.237 OA
ATOM     34  O   UNL     1      -3.492  20.267  72.627  0.00  0.00    -0.237 OA
ENDBRANCH  25  32
ENDBRANCH  20  21
ENDBRANCH  19  20
ENDBRANCH   1  19
TORSDOF 8
ENDMDL
MODEL 9
REMARK VINA RESULT:      -8.4      1.307      1.730
REMARK  Name = 
REMARK  8 active torsions:
REMARK  status: ('A' for Active; 'I' for Inactive)
REMARK    1  A    between atoms: C_2  and  C_4
REMARK    2  A    between atoms: C_9  and  O_10
REMARK    3  A    between atoms: O_10  and  C_11
REMARK    4  A    between atoms: C_11  and  C_12
REMARK    5  A    between atoms: C_12  and  C_14
REMARK    6  A    between atoms: C_14  and  O_15
REMARK    7  A    between atoms: O_15  and  C_16
REMARK    8  A    between atoms: C_22  and  C_23
REMARK                            x       y       z     vdW  Elec       q    Type
REMARK                         _______ _______ _______ _____ _____    ______ ____
ROOT
ATOM      1  C   UNL     1     -11.274  14.733  64.997  0.00  0.00    +0.239 C 
ATOM      2  O   UNL     1     -10.171  14.002  64.608  0.00  0.00    -0.215 OA
ENDROOT
BRANCH   1   3
ATOM      3  C   UNL     1     -11.884  14.301  66.287  0.00  0.00    +0.242 C 
BRANCH   3   4
ATOM      4  O   UNL     1     -11.039  14.513  67.412  0.00  0.00    -0.472 OA
BRANCH   4   9
ATOM      5  C   UNL     1     -13.052  14.948  71.557  0.00  0.00    +0.228 A 
ATOM      6  O   UNL     1     -12.925  13.633  71.517  0.00  0.00    -0.446 OA
ATOM      7  C   UNL     1     -12.178  13.103  70.562  0.00  0.00    +0.152 A 
ATOM      8  C   UNL     1     -11.403  13.895  69.728  0.00  0.00    +0.107 A 
ATOM      9  C   UNL     1     -11.121  13.539  68.414  0.00  0.00    +0.145 A 
ATOM     10  C   UNL     1     -11.147  12.185  68.104  0.00  0.00    +0.037 A 
ATOM     11  C   UNL     1     -11.816  11.339  68.977  0.00  0.00    +0.006 A 
ATOM     12  C   UNL     1     -11.169  15.199  70.140  0.00  0.00    +0.205 A 
ATOM     13  O   UNL     1     -10.477  15.906  69.382  0.00  0.00    -0.286 OA
ATOM     14  C   UNL     1     -12.408  11.804  70.126  0.00  0.00    +0.038 A 
ATOM     15  C   UNL     1     -11.961  15.703  71.164  0.00  0.00    +0.087 A 
BRANCH   5  17
ATOM     16  O   UNL     1     -14.225  16.262  73.142  0.00  0.00    -0.237 OA
ATOM     17  C   UNL     1     -14.263  15.573  72.101  0.00  0.00    +0.422 C 
ATOM     18  O   UNL     1     -15.455  15.513  71.405  0.00  0.00    -0.237 OA
ENDBRANCH   5  17
ENDBRANCH   4   9
ENDBRANCH   3   4
ENDBRANCH   1   3
BRANCH   1  19
ATOM     19  C   UNL     1     -11.113  16.214  64.848  0.00  0.00    +0.242 C 
BRANCH  19  20
ATOM     20  O   UNL     1      -9.843  16.554  65.399  0.00  0.00    -0.472 OA
BRANCH  20  21
ATOM     21  C   UNL     1      -9.660  17.530  66.350  0.00  0.00    +0.145 A 
ATOM     22  C   UNL     1      -8.399  17.692  66.905  0.00  0.00    +0.107 A 
ATOM     23  C   UNL     1      -7.956  18.919  67.371  0.00  0.00    +0.152 A 
ATOM     24  O   UNL     1      -6.882  18.936  68.118  0.00  0.00    -0.446 OA
ATOM     25  C   UNL     1      -6.309  17.843  68.589  0.00  0.00    +0.228 A 
ATOM     26  C   UNL     1      -6.581  16.594  68.049  0.00  0.00    +0.087 A 
ATOM     27  C   UNL     1      -8.774  20.032  67.220  0.00  0.00    +0.038 A 
ATOM     28  C   UNL     1     -10.115  19.820  66.964  0.00  0.00    +0.006 A 
ATOM     29  C   UNL     1      -7.635  16.557  67.142  0.00  0.00    +0.205 A 
ATOM     30  O   UNL     1      -8.023  15.465  66.630  0.00  0.00    -0.286 OA
ATOM     31  C   UNL     1     -10.559  18.558  66.588  0.00  0.00    +0.037 A 
BRANCH  25  32
ATOM     32  C   UNL     1      -5.586  17.930  69.861  0.00  0.00    +0.422 C 
ATOM     33  O   UNL     1      -5.468  16.748  70.596  0.00  0.00    -0.237 OA
ATOM     34  O   UNL     1      -4.580  18.701  69.867  0.00  0.00    -0.237 OA
ENDBRANCH  25  32
ENDBRANCH  20  21
ENDBRANCH  19  20
ENDBRANCH   1  19
TORSDOF 8
ENDMDL
