MODEL 1
REMARK VINA RESULT:      -5.7      0.000      0.000
REMARK  Name = 
REMARK  7 active torsions:
REMARK  status: ('A' for Active; 'I' for Inactive)
REMARK    1  A    between atoms: C_2  and  O_4
REMARK    2  A    between atoms: O_4  and  C_5
REMARK    3  A    between atoms: C_5  and  C_6
REMARK    4  A    between atoms: C_6  and  C_7
REMARK    5  A    between atoms: C_6  and  C_12
REMARK    6  A    between atoms: C_7  and  O_8
REMARK    7  A    between atoms: O_8  and  C_9
REMARK                            x       y       z     vdW  Elec       q    Type
REMARK                         _______ _______ _______ _____ _____    ______ ____
ROOT
ATOM      1  C   UNL     1     -11.736  15.538  69.070  0.00  0.00    +0.110 C 
ENDROOT
BRANCH   1   2
ATOM      2  C   UNL     1     -11.911  15.063  70.458  0.00  0.00    -0.015 A 
ATOM      3  C   UNL     1     -11.775  15.964  71.509  0.00  0.00    -0.004 A 
ATOM      4  C   UNL     1     -12.610  15.915  72.620  0.00  0.00    -0.000 A 
ATOM      5  C   UNL     1     -13.459  14.828  72.795  0.00  0.00    -0.000 A 
ATOM      6  C   UNL     1     -13.208  13.734  71.977  0.00  0.00    -0.000 A 
ATOM      7  C   UNL     1     -12.490  13.857  70.797  0.00  0.00    -0.004 A 
ENDBRANCH   1   2
BRANCH   1   8
ATOM      8  C   UNL     1     -11.310  14.432  68.154  0.00  0.00    +0.218 C 
BRANCH   8   9
ATOM      9  O   UNL     1     -11.840  14.726  66.862  0.00  0.00    -0.432 OA
BRANCH   9  11
ATOM     10  N   UNL     1     -12.029  12.303  66.412  0.00  0.00    -0.048 NA
ATOM     11  C   UNL     1     -12.308  13.670  66.082  0.00  0.00    +0.441 C 
ATOM     12  O   UNL     1     -13.164  13.936  65.185  0.00  0.00    -0.223 OA
ENDBRANCH   9  11
ENDBRANCH   8   9
ENDBRANCH   1   8
BRANCH   1  13
ATOM     13  C   UNL     1     -10.722  16.654  69.101  0.00  0.00    +0.218 C 
BRANCH  13  14
ATOM     14  O   UNL     1     -10.972  17.641  68.109  0.00  0.00    -0.432 OA
BRANCH  14  15
ATOM     15  C   UNL     1     -10.047  17.823  67.079  0.00  0.00    +0.441 C 
ATOM     16  O   UNL     1      -8.849  17.498  67.316  0.00  0.00    -0.223 OA
ATOM     17  N   UNL     1     -10.427  17.843  65.710  0.00  0.00    -0.048 NA
ENDBRANCH  14  15
ENDBRANCH  13  14
ENDBRANCH   1  13
TORSDOF 7
ENDMDL
MODEL 2
REMARK VINA RESULT:      -5.7      2.487      5.336
REMARK  Name = 
REMARK  7 active torsions:
REMARK  status: ('A' for Active; 'I' for Inactive)
REMARK    1  A    between atoms: C_2  and  O_4
REMARK    2  A    between atoms: O_4  and  C_5
REMARK    3  A    between atoms: C_5  and  C_6
REMARK    4  A    between atoms: C_6  and  C_7
REMARK    5  A    between atoms: C_6  and  C_12
REMARK    6  A    between atoms: C_7  and  O_8
REMARK    7  A    between atoms: O_8  and  C_9
REMARK                            x       y       z     vdW  Elec       q    Type
REMARK                         _______ _______ _______ _____ _____    ______ ____
ROOT
ATOM      1  C   UNL     1     -11.455  16.021  68.037  0.00  0.00    +0.110 C 
ENDROOT
BRANCH   1   2
ATOM      2  C   UNL     1     -10.554  17.149  67.723  0.00  0.00    -0.015 A 
ATOM      3  C   UNL     1     -10.446  17.590  66.408  0.00  0.00    -0.004 A 
ATOM      4  C   UNL     1     -10.347  18.942  66.101  0.00  0.00    -0.000 A 
ATOM      5  C   UNL     1     -10.140  19.866  67.119  0.00  0.00    -0.000 A 
ATOM      6  C   UNL     1      -9.774  19.331  68.348  0.00  0.00    -0.000 A 
ATOM      7  C   UNL     1     -10.025  18.005  68.668  0.00  0.00    -0.004 A 
ENDBRANCH   1   2
BRANCH   1   8
ATOM      8  C   UNL     1     -11.277  15.546  69.446  0.00  0.00    +0.218 C 
BRANCH   8   9
ATOM      9  O   UNL     1     -12.375  16.054  70.204  0.00  0.00    -0.432 OA
BRANCH   9  11
ATOM     10  N   UNL     1     -14.218  15.593  71.784  0.00  0.00    -0.048 NA
ATOM     11  C   UNL     1     -13.078  15.173  71.023  0.00  0.00    +0.441 C 
ATOM     12  O   UNL     1     -12.815  13.937  70.920  0.00  0.00    -0.223 OA
ENDBRANCH   9  11
ENDBRANCH   8   9
ENDBRANCH   1   8
BRANCH   1  13
ATOM     13  C   UNL     1     -11.167  14.926  67.041  0.00  0.00    +0.218 C 
BRANCH  13  14
ATOM     14  O   UNL     1     -12.348  14.262  66.612  0.00  0.00    -0.432 OA
BRANCH  14  15
ATOM     15  C   UNL     1     -12.468  13.881  65.273  0.00  0.00    +0.441 C 
ATOM     16  O   UNL     1     -13.014  12.766  65.039  0.00  0.00    -0.223 OA
ATOM     17  N   UNL     1     -12.505  14.827  64.213  0.00  0.00    -0.048 NA
ENDBRANCH  14  15
ENDBRANCH  13  14
ENDBRANCH   1  13
TORSDOF 7
ENDMDL
MODEL 3
REMARK VINA RESULT:      -5.7      1.047      3.554
REMARK  Name = 
REMARK  7 active torsions:
REMARK  status: ('A' for Active; 'I' for Inactive)
REMARK    1  A    between atoms: C_2  and  O_4
REMARK    2  A    between atoms: O_4  and  C_5
REMARK    3  A    between atoms: C_5  and  C_6
REMARK    4  A    between atoms: C_6  and  C_7
REMARK    5  A    between atoms: C_6  and  C_12
REMARK    6  A    between atoms: C_7  and  O_8
REMARK    7  A    between atoms: O_8  and  C_9
REMARK                            x       y       z     vdW  Elec       q    Type
REMARK                         _______ _______ _______ _____ _____    ______ ____
ROOT
ATOM      1  C   UNL     1     -11.154  14.897  69.318  0.00  0.00    +0.110 C 
ENDROOT
BRANCH   1   2
ATOM      2  C   UNL     1     -11.706  14.653  70.667  0.00  0.00    -0.015 A 
ATOM      3  C   UNL     1     -11.693  15.679  71.605  0.00  0.00    -0.004 A 
ATOM      4  C   UNL     1     -12.759  15.882  72.475  0.00  0.00    -0.000 A 
ATOM      5  C   UNL     1     -13.766  14.929  72.563  0.00  0.00    -0.000 A 
ATOM      6  C   UNL     1     -13.486  13.705  71.967  0.00  0.00    -0.000 A 
ATOM      7  C   UNL     1     -12.507  13.577  70.993  0.00  0.00    -0.004 A 
ENDBRANCH   1   2
BRANCH   1   8
ATOM      8  C   UNL     1     -11.523  16.255  68.806  0.00  0.00    +0.218 C 
BRANCH   8   9
ATOM      9  O   UNL     1     -10.326  16.859  68.315  0.00  0.00    -0.432 OA
BRANCH   9  11
ATOM     10  N   UNL     1     -10.169  17.456  65.922  0.00  0.00    -0.048 NA
ATOM     11  C   UNL     1     -10.430  17.798  67.290  0.00  0.00    +0.441 C 
ATOM     12  O   UNL     1     -10.966  18.913  67.566  0.00  0.00    -0.223 OA
ENDBRANCH   9  11
ENDBRANCH   8   9
ENDBRANCH   1   8
BRANCH   1  13
ATOM     13  C   UNL     1     -11.673  13.804  68.417  0.00  0.00    +0.218 C 
BRANCH  13  14
ATOM     14  O   UNL     1     -12.051  14.293  67.137  0.00  0.00    -0.432 OA
BRANCH  14  15
ATOM     15  C   UNL     1     -12.241  13.388  66.090  0.00  0.00    +0.441 C 
ATOM     16  O   UNL     1     -12.117  12.160  66.360  0.00  0.00    -0.223 OA
ATOM     17  N   UNL     1     -13.033  13.698  64.951  0.00  0.00    -0.048 NA
ENDBRANCH  14  15
ENDBRANCH  13  14
ENDBRANCH   1  13
TORSDOF 7
ENDMDL
MODEL 4
REMARK VINA RESULT:      -5.6      1.679      1.806
REMARK  Name = 
REMARK  7 active torsions:
REMARK  status: ('A' for Active; 'I' for Inactive)
REMARK    1  A    between atoms: C_2  and  O_4
REMARK    2  A    between atoms: O_4  and  C_5
REMARK    3  A    between atoms: C_5  and  C_6
REMARK    4  A    between atoms: C_6  and  C_7
REMARK    5  A    between atoms: C_6  and  C_12
REMARK    6  A    between atoms: C_7  and  O_8
REMARK    7  A    between atoms: O_8  and  C_9
REMARK                            x       y       z     vdW  Elec       q    Type
REMARK                         _______ _______ _______ _____ _____    ______ ____
ROOT
ATOM      1  C   UNL     1     -11.990  14.143  68.330  0.00  0.00    +0.110 C 
ENDROOT
BRANCH   1   2
ATOM      2  C   UNL     1     -12.190  14.174  69.794  0.00  0.00    -0.015 A 
ATOM      3  C   UNL     1     -12.544  15.370  70.409  0.00  0.00    -0.004 A 
ATOM      4  C   UNL     1     -13.462  15.407  71.451  0.00  0.00    -0.000 A 
ATOM      5  C   UNL     1     -13.884  14.221  72.040  0.00  0.00    -0.000 A 
ATOM      6  C   UNL     1     -13.139  13.093  71.714  0.00  0.00    -0.000 A 
ATOM      7  C   UNL     1     -12.344  13.050  70.579  0.00  0.00    -0.004 A 
ENDBRANCH   1   2
BRANCH   1   8
ATOM      8  C   UNL     1     -11.226  12.929  67.901  0.00  0.00    +0.218 C 
BRANCH   8   9
ATOM      9  O   UNL     1     -12.037  12.232  66.956  0.00  0.00    -0.432 OA
BRANCH   9  11
ATOM     10  N   UNL     1     -12.994  13.192  64.889  0.00  0.00    -0.048 NA
ATOM     11  C   UNL     1     -11.922  12.568  65.608  0.00  0.00    +0.441 C 
ATOM     12  O   UNL     1     -10.770  12.500  65.082  0.00  0.00    -0.223 OA
ENDBRANCH   9  11
ENDBRANCH   8   9
ENDBRANCH   1   8
BRANCH   1  13
ATOM     13  C   UNL     1     -11.274  15.414  67.948  0.00  0.00    +0.218 C 
BRANCH  13  14
ATOM     14  O   UNL     1     -10.211  15.181  67.033  0.00  0.00    -0.432 OA
BRANCH  14  15
ATOM     15  C   UNL     1     -10.025  16.063  65.965  0.00  0.00    +0.441 C 
ATOM     16  O   UNL     1      -8.861  16.522  65.794  0.00  0.00    -0.223 OA
ATOM     17  N   UNL     1     -10.867  16.059  64.820  0.00  0.00    -0.048 NA
ENDBRANCH  14  15
ENDBRANCH  13  14
ENDBRANCH   1  13
TORSDOF 7
ENDMDL
MODEL 5
REMARK VINA RESULT:      -5.5      2.525      3.582
REMARK  Name = 
REMARK  7 active torsions:
REMARK  status: ('A' for Active; 'I' for Inactive)
REMARK    1  A    between atoms: C_2  and  O_4
REMARK    2  A    between atoms: O_4  and  C_5
REMARK    3  A    between atoms: C_5  and  C_6
REMARK    4  A    between atoms: C_6  and  C_7
REMARK    5  A    between atoms: C_6  and  C_12
REMARK    6  A    between atoms: C_7  and  O_8
REMARK    7  A    between atoms: O_8  and  C_9
REMARK                            x       y       z     vdW  Elec       q    Type
REMARK                         _______ _______ _______ _____ _____    ______ ____
ROOT
ATOM      1  C   UNL     1     -11.688  12.748  66.803  0.00  0.00    +0.110 C 
ENDROOT
BRANCH   1   2
ATOM      2  C   UNL     1     -11.496  12.585  68.259  0.00  0.00    -0.015 A 
ATOM      3  C   UNL     1     -11.493  13.710  69.077  0.00  0.00    -0.004 A 
ATOM      4  C   UNL     1     -12.095  13.699  70.330  0.00  0.00    -0.000 A 
ATOM      5  C   UNL     1     -12.527  12.496  70.875  0.00  0.00    -0.000 A 
ATOM      6  C   UNL     1     -12.073  11.350  70.234  0.00  0.00    -0.000 A 
ATOM      7  C   UNL     1     -11.613  11.382  68.926  0.00  0.00    -0.004 A 
ENDBRANCH   1   2
BRANCH   1   8
ATOM      8  C   UNL     1     -10.485  12.298  66.032  0.00  0.00    +0.218 C 
BRANCH   8   9
ATOM      9  O   UNL     1     -10.913  11.257  65.154  0.00  0.00    -0.432 OA
BRANCH   9  11
ATOM     10  N   UNL     1     -12.430  11.865  63.301  0.00  0.00    -0.048 NA
ATOM     11  C   UNL     1     -11.124  11.567  63.812  0.00  0.00    +0.441 C 
ATOM     12  O   UNL     1     -10.104  11.786  63.091  0.00  0.00    -0.223 OA
ENDBRANCH   9  11
ENDBRANCH   8   9
ENDBRANCH   1   8
BRANCH   1  13
ATOM     13  C   UNL     1     -11.996  14.203  66.551  0.00  0.00    +0.218 C 
BRANCH  13  14
ATOM     14  O   UNL     1     -11.073  14.803  65.652  0.00  0.00    -0.432 OA
BRANCH  14  15
ATOM     15  C   UNL     1     -11.556  15.494  64.538  0.00  0.00    +0.441 C 
ATOM     16  O   UNL     1     -12.606  15.047  63.994  0.00  0.00    -0.223 OA
ATOM     17  N   UNL     1     -11.277  16.869  64.316  0.00  0.00    -0.048 NA
ENDBRANCH  14  15
ENDBRANCH  13  14
ENDBRANCH   1  13
TORSDOF 7
ENDMDL
MODEL 6
REMARK VINA RESULT:      -5.4      2.725      5.601
REMARK  Name = 
REMARK  7 active torsions:
REMARK  status: ('A' for Active; 'I' for Inactive)
REMARK    1  A    between atoms: C_2  and  O_4
REMARK    2  A    between atoms: O_4  and  C_5
REMARK    3  A    between atoms: C_5  and  C_6
REMARK    4  A    between atoms: C_6  and  C_7
REMARK    5  A    between atoms: C_6  and  C_12
REMARK    6  A    between atoms: C_7  and  O_8
REMARK    7  A    between atoms: O_8  and  C_9
REMARK                            x       y       z     vdW  Elec       q    Type
REMARK                         _______ _______ _______ _____ _____    ______ ____
ROOT
ATOM      1  C   UNL     1     -11.441  16.130  68.400  0.00  0.00    +0.110 C 
ENDROOT
BRANCH   1   2
ATOM      2  C   UNL     1     -11.175  15.095  67.380  0.00  0.00    -0.015 A 
ATOM      3  C   UNL     1     -12.164  14.166  67.076  0.00  0.00    -0.004 A 
ATOM      4  C   UNL     1     -12.388  13.742  65.771  0.00  0.00    -0.000 A 
ATOM      5  C   UNL     1     -11.482  14.082  64.773  0.00  0.00    -0.000 A 
ATOM      6  C   UNL     1     -10.269  14.597  65.214  0.00  0.00    -0.000 A 
ATOM      7  C   UNL     1     -10.129  15.145  66.481  0.00  0.00    -0.004 A 
ENDBRANCH   1   2
BRANCH   1   8
ATOM      8  C   UNL     1     -10.431  17.235  68.346  0.00  0.00    +0.218 C 
BRANCH   8   9
ATOM      9  O   UNL     1     -11.088  18.380  67.805  0.00  0.00    -0.432 OA
BRANCH   9  11
ATOM     10  N   UNL     1      -9.566  20.141  66.973  0.00  0.00    -0.048 NA
ATOM     11  C   UNL     1     -10.478  19.058  66.750  0.00  0.00    +0.441 C 
ATOM     12  O   UNL     1     -10.586  18.557  65.590  0.00  0.00    -0.223 OA
ENDBRANCH   9  11
ENDBRANCH   8   9
ENDBRANCH   1   8
BRANCH   1  13
ATOM     13  C   UNL     1     -11.443  15.445  69.744  0.00  0.00    +0.218 C 
BRANCH  13  14
ATOM     14  O   UNL     1     -12.734  15.422  70.337  0.00  0.00    -0.432 OA
BRANCH  14  15
ATOM     15  C   UNL     1     -12.869  15.735  71.692  0.00  0.00    +0.441 C 
ATOM     16  O   UNL     1     -11.945  16.417  72.220  0.00  0.00    -0.223 OA
ATOM     17  N   UNL     1     -14.134  15.796  72.337  0.00  0.00    -0.048 NA
ENDBRANCH  14  15
ENDBRANCH  13  14
ENDBRANCH   1  13
TORSDOF 7
ENDMDL
MODEL 7
REMARK VINA RESULT:      -5.3      2.632      4.947
REMARK  Name = 
REMARK  7 active torsions:
REMARK  status: ('A' for Active; 'I' for Inactive)
REMARK    1  A    between atoms: C_2  and  O_4
REMARK    2  A    between atoms: O_4  and  C_5
REMARK    3  A    between atoms: C_5  and  C_6
REMARK    4  A    between atoms: C_6  and  C_7
REMARK    5  A    between atoms: C_6  and  C_12
REMARK    6  A    between atoms: C_7  and  O_8
REMARK    7  A    between atoms: O_8  and  C_9
REMARK                            x       y       z     vdW  Elec       q    Type
REMARK                         _______ _______ _______ _____ _____    ______ ____
ROOT
ATOM      1  C   UNL     1     -11.675  15.537  68.800  0.00  0.00    +0.110 C 
ENDROOT
BRANCH   1   2
ATOM      2  C   UNL     1     -11.970  14.185  68.285  0.00  0.00    -0.015 A 
ATOM      3  C   UNL     1     -12.120  13.994  66.915  0.00  0.00    -0.004 A 
ATOM      4  C   UNL     1     -11.622  12.863  66.280  0.00  0.00    -0.000 A 
ATOM      5  C   UNL     1     -11.150  11.799  67.040  0.00  0.00    -0.000 A 
ATOM      6  C   UNL     1     -11.468  11.841  68.392  0.00  0.00    -0.000 A 
ATOM      7  C   UNL     1     -11.822  13.026  69.020  0.00  0.00    -0.004 A 
ENDBRANCH   1   2
BRANCH   1   8
ATOM      8  C   UNL     1     -10.354  16.043  68.306  0.00  0.00    +0.218 C 
BRANCH   8   9
ATOM      9  O   UNL     1     -10.606  17.255  67.596  0.00  0.00    -0.432 OA
BRANCH   9  11
ATOM     10  N   UNL     1      -9.560  16.244  65.598  0.00  0.00    -0.048 NA
ATOM     11  C   UNL     1     -10.199  17.340  66.266  0.00  0.00    +0.441 C 
ATOM     12  O   UNL     1     -10.594  18.339  65.593  0.00  0.00    -0.223 OA
ENDBRANCH   9  11
ENDBRANCH   8   9
ENDBRANCH   1   8
BRANCH   1  13
ATOM     13  C   UNL     1     -11.712  15.461  70.306  0.00  0.00    +0.218 C 
BRANCH  13  14
ATOM     14  O   UNL     1     -12.897  16.030  70.847  0.00  0.00    -0.432 OA
BRANCH  14  15
ATOM     15  C   UNL     1     -13.524  15.402  71.926  0.00  0.00    +0.441 C 
ATOM     16  O   UNL     1     -14.544  15.970  72.409  0.00  0.00    -0.223 OA
ATOM     17  N   UNL     1     -13.424  14.003  72.155  0.00  0.00    -0.048 NA
ENDBRANCH  14  15
ENDBRANCH  13  14
ENDBRANCH   1  13
TORSDOF 7
ENDMDL
MODEL 8
REMARK VINA RESULT:      -5.3      2.500      3.353
REMARK  Name = 
REMARK  7 active torsions:
REMARK  status: ('A' for Active; 'I' for Inactive)
REMARK    1  A    between atoms: C_2  and  O_4
REMARK    2  A    between atoms: O_4  and  C_5
REMARK    3  A    between atoms: C_5  and  C_6
REMARK    4  A    between atoms: C_6  and  C_7
REMARK    5  A    between atoms: C_6  and  C_12
REMARK    6  A    between atoms: C_7  and  O_8
REMARK    7  A    between atoms: O_8  and  C_9
REMARK                            x       y       z     vdW  Elec       q    Type
REMARK                         _______ _______ _______ _____ _____    ______ ____
ROOT
ATOM      1  C   UNL     1     -11.433  12.947  67.894  0.00  0.00    +0.110 C 
ENDROOT
BRANCH   1   2
ATOM      2  C   UNL     1     -11.326  12.130  69.120  0.00  0.00    -0.015 A 
ATOM      3  C   UNL     1     -12.058  12.491  70.246  0.00  0.00    -0.004 A 
ATOM      4  C   UNL     1     -12.661  11.537  71.058  0.00  0.00    -0.000 A 
ATOM      5  C   UNL     1     -12.363  10.191  70.875  0.00  0.00    -0.000 A 
ATOM      6  C   UNL     1     -11.267   9.925  70.064  0.00  0.00    -0.000 A 
ATOM      7  C   UNL     1     -10.787  10.860  69.160  0.00  0.00    -0.004 A 
ENDBRANCH   1   2
BRANCH   1   8
ATOM      8  C   UNL     1     -11.142  12.143  66.664  0.00  0.00    +0.218 C 
BRANCH   8   9
ATOM      9  O   UNL     1     -12.359  12.051  65.923  0.00  0.00    -0.432 OA
BRANCH   9  11
ATOM     10  N   UNL     1     -12.425  12.643  63.525  0.00  0.00    -0.048 NA
ATOM     11  C   UNL     1     -12.588  12.979  64.909  0.00  0.00    +0.441 C 
ATOM     12  O   UNL     1     -13.148  14.072  65.227  0.00  0.00    -0.223 OA
ENDBRANCH   9  11
ENDBRANCH   8   9
ENDBRANCH   1   8
BRANCH   1  13
ATOM     13  C   UNL     1     -10.474  14.103  68.040  0.00  0.00    +0.218 C 
BRANCH  13  14
ATOM     14  O   UNL     1     -11.070  15.346  67.694  0.00  0.00    -0.432 OA
BRANCH  14  15
ATOM     15  C   UNL     1     -11.225  16.326  68.678  0.00  0.00    +0.441 C 
ATOM     16  O   UNL     1     -11.040  17.526  68.329  0.00  0.00    -0.223 OA
ATOM     17  N   UNL     1     -12.041  16.130  69.825  0.00  0.00    -0.048 NA
ENDBRANCH  14  15
ENDBRANCH  13  14
ENDBRANCH   1  13
TORSDOF 7
ENDMDL
MODEL 9
REMARK VINA RESULT:      -5.2      2.626      5.226
REMARK  Name = 
REMARK  7 active torsions:
REMARK  status: ('A' for Active; 'I' for Inactive)
REMARK    1  A    between atoms: C_2  and  O_4
REMARK    2  A    between atoms: O_4  and  C_5
REMARK    3  A    between atoms: C_5  and  C_6
REMARK    4  A    between atoms: C_6  and  C_7
REMARK    5  A    between atoms: C_6  and  C_12
REMARK    6  A    between atoms: C_7  and  O_8
REMARK    7  A    between atoms: O_8  and  C_9
REMARK                            x       y       z     vdW  Elec       q    Type
REMARK                         _______ _______ _______ _____ _____    ______ ____
ROOT
ATOM      1  C   UNL     1     -11.772  15.684  68.794  0.00  0.00    +0.110 C 
ENDROOT
BRANCH   1   2
ATOM      2  C   UNL     1     -10.551  16.340  68.284  0.00  0.00    -0.015 A 
ATOM      3  C   UNL     1     -10.621  17.651  67.825  0.00  0.00    -0.004 A 
ATOM      4  C   UNL     1      -9.606  18.566  68.080  0.00  0.00    -0.000 A 
ATOM      5  C   UNL     1      -8.402  18.126  68.617  0.00  0.00    -0.000 A 
ATOM      6  C   UNL     1      -8.208  16.750  68.605  0.00  0.00    -0.000 A 
ATOM      7  C   UNL     1      -9.272  15.866  68.494  0.00  0.00    -0.004 A 
ENDBRANCH   1   2
BRANCH   1   8
ATOM      8  C   UNL     1     -11.816  15.679  70.290  0.00  0.00    +0.218 C 
BRANCH   8   9
ATOM      9  O   UNL     1     -13.168  15.925  70.674  0.00  0.00    -0.432 OA
BRANCH   9  11
ATOM     10  N   UNL     1     -13.339  13.932  72.124  0.00  0.00    -0.048 NA
ATOM     11  C   UNL     1     -13.659  15.295  71.816  0.00  0.00    +0.441 C 
ATOM     12  O   UNL     1     -14.228  16.018  72.688  0.00  0.00    -0.223 OA
ENDBRANCH   9  11
ENDBRANCH   8   9
ENDBRANCH   1   8
BRANCH   1  13
ATOM     13  C   UNL     1     -11.797  14.283  68.233  0.00  0.00    +0.218 C 
BRANCH  13  14
ATOM     14  O   UNL     1     -12.167  14.257  66.861  0.00  0.00    -0.432 OA
BRANCH  14  15
ATOM     15  C   UNL     1     -12.192  13.035  66.184  0.00  0.00    +0.441 C 
ATOM     16  O   UNL     1     -11.987  11.993  66.869  0.00  0.00    -0.223 OA
ATOM     17  N   UNL     1     -12.911  12.852  64.972  0.00  0.00    -0.048 NA
ENDBRANCH  14  15
ENDBRANCH  13  14
ENDBRANCH   1  13
TORSDOF 7
ENDMDL
