MODEL 1
REMARK VINA RESULT:      -6.4      0.000      0.000
REMARK  Name = 
REMARK  8 active torsions:
REMARK  status: ('A' for Active; 'I' for Inactive)
REMARK    1  A    between atoms: O_2  and  C_3
REMARK    2  A    between atoms: C_6  and  C_7
REMARK    3  A    between atoms: C_7  and  C_8
REMARK    4  A    between atoms: C_8  and  N_10
REMARK    5  A    between atoms: N_10  and  C_11
REMARK    6  A    between atoms: C_11  and  C_12
REMARK    7  A    between atoms: C_12  and  C_14
REMARK    8  A    between atoms: C_19  and  N_20
REMARK                            x       y       z     vdW  Elec       q    Type
REMARK                         _______ _______ _______ _____ _____    ______ ____
ROOT
ATOM      1  C   UNL     1      -9.309  16.622  66.029  0.00  0.00    +0.126 C 
ENDROOT
BRANCH   1   2
ATOM      2  C   UNL     1     -10.955  16.438  65.957  0.00  0.00    +0.192 C 
ATOM      3  O   UNL     1     -10.989  16.952  64.517  0.00  0.00    -0.217 OA
BRANCH   2   4
ATOM      4  C   UNL     1     -10.811  14.891  65.466  0.00  0.00    +0.011 A 
ATOM      5  C   UNL     1     -12.070  14.307  65.389  0.00  0.00    +0.018 A 
ATOM      6  C   UNL     1     -12.170  12.939  65.472  0.00  0.00    +0.112 A 
ATOM      7  C   UNL     1     -11.273  12.236  66.266  0.00  0.00    +0.211 A 
ATOM      8  O   UNL     1     -11.521  10.949  66.687  0.00  0.00    -0.285 OA
ATOM      9  C   UNL     1     -10.065  12.849  66.571  0.00  0.00    +0.043 A 
ATOM     10  C   UNL     1      -9.944  14.184  66.294  0.00  0.00    +0.002 A 
BRANCH   6  11
ATOM     11  N   UNL     1     -13.067  12.188  64.646  0.00  0.00    -0.168 NA
ATOM     12  C   UNL     1     -12.592  11.928  63.329  0.00  0.00    +0.325 C 
ATOM     13  O   UNL     1     -11.476  11.376  63.242  0.00  0.00    -0.263 OA
ENDBRANCH   6  11
ENDBRANCH   2   4
ENDBRANCH   1   2
BRANCH   1  14
ATOM     14  N   UNL     1      -9.048  17.465  67.141  0.00  0.00    -0.216 NA
BRANCH  14  15
ATOM     15  C   UNL     1     -10.376  17.621  67.975  0.00  0.00    +0.077 C 
ATOM     16  C   UNL     1      -9.821  18.929  68.814  0.00  0.00    +0.019 C 
BRANCH  15  17
ATOM     17  C   UNL     1      -9.826  16.606  69.139  0.00  0.00    +0.044 C 
BRANCH  17  21
ATOM     18  C   UNL     1     -12.776  14.332  71.080  0.00  0.00    +0.139 A 
ATOM     19  C   UNL     1     -12.202  13.937  69.882  0.00  0.00    +0.037 A 
ATOM     20  C   UNL     1     -11.154  14.694  69.444  0.00  0.00    -0.001 A 
ATOM     21  C   UNL     1     -10.956  16.020  69.829  0.00  0.00    -0.021 A 
ATOM     22  C   UNL     1     -11.530  16.371  71.012  0.00  0.00    -0.001 A 
ATOM     23  C   UNL     1     -12.345  15.489  71.717  0.00  0.00    +0.037 A 
BRANCH  18  25
ATOM     24  C   UNL     1     -13.233  12.374  71.965  0.00  0.00    +0.252 C 
ATOM     25  O   UNL     1     -13.473  13.344  71.781  0.00  0.00    -0.471 OA
ENDBRANCH  18  25
ENDBRANCH  17  21
ENDBRANCH  15  17
ENDBRANCH  14  15
ENDBRANCH   1  14
TORSDOF 8
ENDMDL
MODEL 2
REMARK VINA RESULT:      -6.3      1.967      2.901
REMARK  Name = 
REMARK  8 active torsions:
REMARK  status: ('A' for Active; 'I' for Inactive)
REMARK    1  A    between atoms: O_2  and  C_3
REMARK    2  A    between atoms: C_6  and  C_7
REMARK    3  A    between atoms: C_7  and  C_8
REMARK    4  A    between atoms: C_8  and  N_10
REMARK    5  A    between atoms: N_10  and  C_11
REMARK    6  A    between atoms: C_11  and  C_12
REMARK    7  A    between atoms: C_12  and  C_14
REMARK    8  A    between atoms: C_19  and  N_20
REMARK                            x       y       z     vdW  Elec       q    Type
REMARK                         _______ _______ _______ _____ _____    ______ ____
ROOT
ATOM      1  C   UNL     1     -10.983  15.513  68.576  0.00  0.00    +0.126 C 
ENDROOT
BRANCH   1   2
ATOM      2  C   UNL     1     -10.515  16.369  67.236  0.00  0.00    +0.192 C 
ATOM      3  O   UNL     1      -9.047  16.302  67.658  0.00  0.00    -0.217 OA
BRANCH   2   4
ATOM      4  C   UNL     1     -10.385  15.006  66.350  0.00  0.00    +0.011 A 
ATOM      5  C   UNL     1     -11.645  14.451  66.163  0.00  0.00    +0.018 A 
ATOM      6  C   UNL     1     -11.740  13.108  65.886  0.00  0.00    +0.112 A 
ATOM      7  C   UNL     1     -10.817  12.231  66.438  0.00  0.00    +0.211 A 
ATOM      8  O   UNL     1     -11.049  10.876  66.512  0.00  0.00    -0.285 OA
ATOM      9  C   UNL     1      -9.599  12.753  66.854  0.00  0.00    +0.043 A 
ATOM     10  C   UNL     1      -9.490  14.115  66.934  0.00  0.00    +0.002 A 
BRANCH   6  11
ATOM     11  N   UNL     1     -12.663  12.591  64.921  0.00  0.00    -0.168 NA
ATOM     12  C   UNL     1     -12.274  12.773  63.562  0.00  0.00    +0.325 C 
ATOM     13  O   UNL     1     -11.146  12.342  63.248  0.00  0.00    -0.263 OA
ENDBRANCH   6  11
ENDBRANCH   2   4
ENDBRANCH   1   2
BRANCH   1  14
ATOM     14  N   UNL     1     -12.007  16.273  69.199  0.00  0.00    -0.216 NA
BRANCH  14  15
ATOM     15  C   UNL     1     -12.649  15.404  70.346  0.00  0.00    +0.077 C 
ATOM     16  C   UNL     1     -11.619  15.976  71.502  0.00  0.00    +0.019 C 
BRANCH  15  17
ATOM     17  C   UNL     1     -11.642  14.149  70.032  0.00  0.00    +0.044 C 
BRANCH  17  21
ATOM     18  C   UNL     1     -12.913  10.293  71.106  0.00  0.00    +0.139 A 
ATOM     19  C   UNL     1     -12.112  10.529  70.000  0.00  0.00    +0.037 A 
ATOM     20  C   UNL     1     -11.653  11.808  69.857  0.00  0.00    -0.001 A 
ATOM     21  C   UNL     1     -12.287  12.914  70.424  0.00  0.00    -0.021 A 
ATOM     22  C   UNL     1     -13.061  12.644  71.511  0.00  0.00    -0.001 A 
ATOM     23  C   UNL     1     -13.282  11.339  71.943  0.00  0.00    +0.037 A 
BRANCH  18  25
ATOM     24  C   UNL     1     -13.769   8.411  71.849  0.00  0.00    +0.252 C 
ATOM     25  O   UNL     1     -12.976   8.967  71.545  0.00  0.00    -0.471 OA
ENDBRANCH  18  25
ENDBRANCH  17  21
ENDBRANCH  15  17
ENDBRANCH  14  15
ENDBRANCH   1  14
TORSDOF 8
ENDMDL
MODEL 3
REMARK VINA RESULT:      -6.3      2.379      5.063
REMARK  Name = 
REMARK  8 active torsions:
REMARK  status: ('A' for Active; 'I' for Inactive)
REMARK    1  A    between atoms: O_2  and  C_3
REMARK    2  A    between atoms: C_6  and  C_7
REMARK    3  A    between atoms: C_7  and  C_8
REMARK    4  A    between atoms: C_8  and  N_10
REMARK    5  A    between atoms: N_10  and  C_11
REMARK    6  A    between atoms: C_11  and  C_12
REMARK    7  A    between atoms: C_12  and  C_14
REMARK    8  A    between atoms: C_19  and  N_20
REMARK                            x       y       z     vdW  Elec       q    Type
REMARK                         _______ _______ _______ _____ _____    ______ ____
ROOT
ATOM      1  C   UNL     1     -11.006   9.921  67.755  0.00  0.00    +0.126 C 
ENDROOT
BRANCH   1   2
ATOM      2  C   UNL     1      -9.524   9.864  67.012  0.00  0.00    +0.192 C 
ATOM      3  O   UNL     1     -10.033   8.849  65.988  0.00  0.00    -0.217 OA
BRANCH   2   4
ATOM      4  C   UNL     1      -9.906  11.121  66.046  0.00  0.00    +0.011 A 
ATOM      5  C   UNL     1     -11.023  11.775  66.552  0.00  0.00    +0.018 A 
ATOM      6  C   UNL     1     -11.794  12.524  65.696  0.00  0.00    +0.112 A 
ATOM      7  C   UNL     1     -11.929  12.124  64.373  0.00  0.00    +0.211 A 
ATOM      8  O   UNL     1     -12.944  12.590  63.568  0.00  0.00    -0.285 OA
ATOM      9  C   UNL     1     -10.954  11.284  63.851  0.00  0.00    +0.043 A 
ATOM     10  C   UNL     1     -10.081  10.704  64.730  0.00  0.00    +0.002 A 
BRANCH   6  11
ATOM     11  N   UNL     1     -12.341  13.793  66.073  0.00  0.00    -0.168 NA
ATOM     12  C   UNL     1     -11.378  14.821  66.283  0.00  0.00    +0.325 C 
ATOM     13  O   UNL     1     -10.584  15.036  65.345  0.00  0.00    -0.263 OA
ENDBRANCH   6  11
ENDBRANCH   2   4
ENDBRANCH   1   2
BRANCH   1  14
ATOM     14  N   UNL     1     -10.867   9.216  68.979  0.00  0.00    -0.216 NA
BRANCH  14  15
ATOM     15  C   UNL     1     -10.558  10.255  70.123  0.00  0.00    +0.077 C 
ATOM     16  C   UNL     1     -10.328   9.086  71.266  0.00  0.00    +0.019 C 
BRANCH  15  17
ATOM     17  C   UNL     1     -12.145  10.369  70.520  0.00  0.00    +0.044 C 
BRANCH  17  21
ATOM     18  C   UNL     1     -13.092  14.333  71.536  0.00  0.00    +0.139 A 
ATOM     19  C   UNL     1     -13.629  13.246  72.207  0.00  0.00    +0.037 A 
ATOM     20  C   UNL     1     -13.119  12.025  71.870  0.00  0.00    -0.001 A 
ATOM     21  C   UNL     1     -12.502  11.766  70.646  0.00  0.00    -0.021 A 
ATOM     22  C   UNL     1     -11.982  12.857  70.018  0.00  0.00    -0.001 A 
ATOM     23  C   UNL     1     -12.161  14.143  70.522  0.00  0.00    +0.037 A 
BRANCH  18  25
ATOM     24  C   UNL     1     -13.101  15.816  73.157  0.00  0.00    +0.252 C 
ATOM     25  O   UNL     1     -13.211  15.569  72.178  0.00  0.00    -0.471 OA
ENDBRANCH  18  25
ENDBRANCH  17  21
ENDBRANCH  15  17
ENDBRANCH  14  15
ENDBRANCH   1  14
TORSDOF 8
ENDMDL
MODEL 4
REMARK VINA RESULT:      -6.2      2.394      5.310
REMARK  Name = 
REMARK  8 active torsions:
REMARK  status: ('A' for Active; 'I' for Inactive)
REMARK    1  A    between atoms: O_2  and  C_3
REMARK    2  A    between atoms: C_6  and  C_7
REMARK    3  A    between atoms: C_7  and  C_8
REMARK    4  A    between atoms: C_8  and  N_10
REMARK    5  A    between atoms: N_10  and  C_11
REMARK    6  A    between atoms: C_11  and  C_12
REMARK    7  A    between atoms: C_12  and  C_14
REMARK    8  A    between atoms: C_19  and  N_20
REMARK                            x       y       z     vdW  Elec       q    Type
REMARK                         _______ _______ _______ _____ _____    ______ ____
ROOT
ATOM      1  C   UNL     1     -11.048  14.682  66.334  0.00  0.00    +0.126 C 
ENDROOT
BRANCH   1   2
ATOM      2  C   UNL     1      -9.659  15.321  65.692  0.00  0.00    +0.192 C 
ATOM      3  O   UNL     1     -10.459  16.303  64.836  0.00  0.00    -0.217 OA
BRANCH   2   4
ATOM      4  C   UNL     1      -9.531  16.395  66.912  0.00  0.00    +0.011 A 
ATOM      5  C   UNL     1      -8.998  17.585  66.431  0.00  0.00    +0.018 A 
ATOM      6  C   UNL     1      -8.366  18.429  67.312  0.00  0.00    +0.112 A 
ATOM      7  C   UNL     1      -7.668  17.895  68.387  0.00  0.00    +0.211 A 
ATOM      8  O   UNL     1      -6.729  18.623  69.083  0.00  0.00    -0.285 OA
ATOM      9  C   UNL     1      -7.998  16.610  68.796  0.00  0.00    +0.043 A 
ATOM     10  C   UNL     1      -8.792  15.866  67.967  0.00  0.00    +0.002 A 
BRANCH   6  11
ATOM     11  N   UNL     1      -8.530  19.851  67.258  0.00  0.00    -0.168 NA
ATOM     12  C   UNL     1      -9.875  20.304  67.370  0.00  0.00    +0.325 C 
ATOM     13  O   UNL     1     -10.511  19.907  68.367  0.00  0.00    -0.263 OA
ENDBRANCH   6  11
ENDBRANCH   2   4
ENDBRANCH   1   2
BRANCH   1  14
ATOM     14  N   UNL     1     -10.830  13.285  66.448  0.00  0.00    -0.216 NA
BRANCH  14  15
ATOM     15  C   UNL     1     -10.681  12.924  67.975  0.00  0.00    +0.077 C 
ATOM     16  C   UNL     1     -11.585  11.549  67.847  0.00  0.00    +0.019 C 
BRANCH  15  17
ATOM     17  C   UNL     1     -12.015  13.795  68.365  0.00  0.00    +0.044 C 
BRANCH  17  21
ATOM     18  C   UNL     1     -12.124  15.365  72.259  0.00  0.00    +0.139 A 
ATOM     19  C   UNL     1     -11.625  16.083  71.183  0.00  0.00    +0.037 A 
ATOM     20  C   UNL     1     -11.789  15.508  69.955  0.00  0.00    -0.001 A 
ATOM     21  C   UNL     1     -11.963  14.136  69.771  0.00  0.00    -0.021 A 
ATOM     22  C   UNL     1     -12.459  13.466  70.848  0.00  0.00    -0.001 A 
ATOM     23  C   UNL     1     -12.665  14.100  72.070  0.00  0.00    +0.037 A 
BRANCH  18  25
ATOM     24  C   UNL     1     -12.507  15.817  74.375  0.00  0.00    +0.252 C 
ATOM     25  O   UNL     1     -12.420  16.108  73.405  0.00  0.00    -0.471 OA
ENDBRANCH  18  25
ENDBRANCH  17  21
ENDBRANCH  15  17
ENDBRANCH  14  15
ENDBRANCH   1  14
TORSDOF 8
ENDMDL
MODEL 5
REMARK VINA RESULT:      -6.2      2.416      4.832
REMARK  Name = 
REMARK  8 active torsions:
REMARK  status: ('A' for Active; 'I' for Inactive)
REMARK    1  A    between atoms: O_2  and  C_3
REMARK    2  A    between atoms: C_6  and  C_7
REMARK    3  A    between atoms: C_7  and  C_8
REMARK    4  A    between atoms: C_8  and  N_10
REMARK    5  A    between atoms: N_10  and  C_11
REMARK    6  A    between atoms: C_11  and  C_12
REMARK    7  A    between atoms: C_12  and  C_14
REMARK    8  A    between atoms: C_19  and  N_20
REMARK                            x       y       z     vdW  Elec       q    Type
REMARK                         _______ _______ _______ _____ _____    ______ ____
ROOT
ATOM      1  C   UNL     1      -9.765  13.073  67.742  0.00  0.00    +0.126 C 
ENDROOT
BRANCH   1   2
ATOM      2  C   UNL     1      -8.655  14.169  68.304  0.00  0.00    +0.192 C 
ATOM      3  O   UNL     1      -7.495  13.322  67.782  0.00  0.00    -0.217 OA
BRANCH   2   4
ATOM      4  C   UNL     1      -8.730  15.028  66.921  0.00  0.00    +0.011 A 
ATOM      5  C   UNL     1      -9.184  16.314  67.195  0.00  0.00    +0.018 A 
ATOM      6  C   UNL     1      -9.772  17.035  66.184  0.00  0.00    +0.112 A 
ATOM      7  C   UNL     1     -10.514  16.373  65.215  0.00  0.00    +0.211 A 
ATOM      8  O   UNL     1     -11.414  17.030  64.407  0.00  0.00    -0.285 OA
ATOM      9  C   UNL     1     -10.267  15.019  65.028  0.00  0.00    +0.043 A 
ATOM     10  C   UNL     1      -9.511  14.377  65.971  0.00  0.00    +0.002 A 
BRANCH   6  11
ATOM     11  N   UNL     1      -9.521  18.433  65.998  0.00  0.00    -0.168 NA
ATOM     12  C   UNL     1     -10.570  19.293  66.433  0.00  0.00    +0.325 C 
ATOM     13  O   UNL     1     -10.949  19.150  67.614  0.00  0.00    -0.263 OA
ENDBRANCH   6  11
ENDBRANCH   2   4
ENDBRANCH   1   2
BRANCH   1  14
ATOM     14  N   UNL     1     -10.105  12.246  68.844  0.00  0.00    -0.216 NA
BRANCH  14  15
ATOM     15  C   UNL     1     -11.634  11.879  68.743  0.00  0.00    +0.077 C 
ATOM     16  C   UNL     1     -11.648  11.938  67.094  0.00  0.00    +0.019 C 
BRANCH  15  17
ATOM     17  C   UNL     1     -12.072  13.456  68.830  0.00  0.00    +0.044 C 
BRANCH  17  21
ATOM     18  C   UNL     1     -12.398  15.214  72.631  0.00  0.00    +0.139 A 
ATOM     19  C   UNL     1     -11.654  15.785  71.610  0.00  0.00    +0.037 A 
ATOM     20  C   UNL     1     -11.759  15.185  70.387  0.00  0.00    -0.001 A 
ATOM     21  C   UNL     1     -12.139  13.854  70.220  0.00  0.00    -0.021 A 
ATOM     22  C   UNL     1     -12.871  13.328  71.241  0.00  0.00    -0.001 A 
ATOM     23  C   UNL     1     -13.118  14.047  72.408  0.00  0.00    +0.037 A 
BRANCH  18  25
ATOM     24  C   UNL     1     -12.482  15.962  74.695  0.00  0.00    +0.252 C 
ATOM     25  O   UNL     1     -12.703  16.051  73.707  0.00  0.00    -0.471 OA
ENDBRANCH  18  25
ENDBRANCH  17  21
ENDBRANCH  15  17
ENDBRANCH  14  15
ENDBRANCH   1  14
TORSDOF 8
ENDMDL
MODEL 6
REMARK VINA RESULT:      -6.1      3.431      5.692
REMARK  Name = 
REMARK  8 active torsions:
REMARK  status: ('A' for Active; 'I' for Inactive)
REMARK    1  A    between atoms: O_2  and  C_3
REMARK    2  A    between atoms: C_6  and  C_7
REMARK    3  A    between atoms: C_7  and  C_8
REMARK    4  A    between atoms: C_8  and  N_10
REMARK    5  A    between atoms: N_10  and  C_11
REMARK    6  A    between atoms: C_11  and  C_12
REMARK    7  A    between atoms: C_12  and  C_14
REMARK    8  A    between atoms: C_19  and  N_20
REMARK                            x       y       z     vdW  Elec       q    Type
REMARK                         _______ _______ _______ _____ _____    ______ ____
ROOT
ATOM      1  C   UNL     1     -10.533  17.550  67.678  0.00  0.00    +0.126 C 
ENDROOT
BRANCH   1   2
ATOM      2  C   UNL     1     -10.394  16.503  68.957  0.00  0.00    +0.192 C 
ATOM      3  O   UNL     1     -11.913  16.408  69.095  0.00  0.00    -0.217 OA
BRANCH   2   4
ATOM      4  C   UNL     1     -10.343  15.215  67.959  0.00  0.00    +0.011 A 
ATOM      5  C   UNL     1     -11.582  15.047  67.352  0.00  0.00    +0.018 A 
ATOM      6  C   UNL     1     -11.919  13.804  66.873  0.00  0.00    +0.112 A 
ATOM      7  C   UNL     1     -11.458  12.671  67.530  0.00  0.00    +0.211 A 
ATOM      8  O   UNL     1     -12.032  11.433  67.345  0.00  0.00    -0.285 OA
ATOM      9  C   UNL     1     -10.336  12.806  68.338  0.00  0.00    +0.043 A 
ATOM     10  C   UNL     1      -9.921  14.075  68.637  0.00  0.00    +0.002 A 
BRANCH   6  11
ATOM     11  N   UNL     1     -12.601  13.626  65.626  0.00  0.00    -0.168 NA
ATOM     12  C   UNL     1     -11.863  14.029  64.477  0.00  0.00    +0.325 C 
ATOM     13  O   UNL     1     -10.730  13.525  64.342  0.00  0.00    -0.263 OA
ENDBRANCH   6  11
ENDBRANCH   2   4
ENDBRANCH   1   2
BRANCH   1  14
ATOM     14  N   UNL     1     -10.579  18.856  68.233  0.00  0.00    -0.216 NA
BRANCH  14  15
ATOM     15  C   UNL     1     -10.031  19.875  67.163  0.00  0.00    +0.077 C 
ATOM     16  C   UNL     1     -10.601  19.001  65.884  0.00  0.00    +0.019 C 
BRANCH  15  17
ATOM     17  C   UNL     1      -8.589  19.099  67.086  0.00  0.00    +0.044 C 
BRANCH  17  21
ATOM     18  C   UNL     1      -5.455  20.830  69.281  0.00  0.00    +0.139 A 
ATOM     19  C   UNL     1      -6.301  19.875  69.822  0.00  0.00    +0.037 A 
ATOM     20  C   UNL     1      -7.178  19.292  68.952  0.00  0.00    -0.001 A 
ATOM     21  C   UNL     1      -7.586  19.894  67.762  0.00  0.00    -0.021 A 
ATOM     22  C   UNL     1      -6.727  20.823  67.258  0.00  0.00    -0.001 A 
ATOM     23  C   UNL     1      -5.584  21.211  67.951  0.00  0.00    +0.037 A 
BRANCH  18  25
ATOM     24  C   UNL     1      -4.118  21.389  70.933  0.00  0.00    +0.252 C 
ATOM     25  O   UNL     1      -4.268  21.064  69.982  0.00  0.00    -0.471 OA
ENDBRANCH  18  25
ENDBRANCH  17  21
ENDBRANCH  15  17
ENDBRANCH  14  15
ENDBRANCH   1  14
TORSDOF 8
ENDMDL
MODEL 7
REMARK VINA RESULT:      -6.1      2.094      4.806
REMARK  Name = 
REMARK  8 active torsions:
REMARK  status: ('A' for Active; 'I' for Inactive)
REMARK    1  A    between atoms: O_2  and  C_3
REMARK    2  A    between atoms: C_6  and  C_7
REMARK    3  A    between atoms: C_7  and  C_8
REMARK    4  A    between atoms: C_8  and  N_10
REMARK    5  A    between atoms: N_10  and  C_11
REMARK    6  A    between atoms: C_11  and  C_12
REMARK    7  A    between atoms: C_12  and  C_14
REMARK    8  A    between atoms: C_19  and  N_20
REMARK                            x       y       z     vdW  Elec       q    Type
REMARK                         _______ _______ _______ _____ _____    ______ ____
ROOT
ATOM      1  C   UNL     1     -11.752  12.568  66.891  0.00  0.00    +0.126 C 
ENDROOT
BRANCH   1   2
ATOM      2  C   UNL     1     -11.510  11.963  65.366  0.00  0.00    +0.192 C 
ATOM      3  O   UNL     1     -12.855  12.515  64.891  0.00  0.00    -0.217 OA
BRANCH   2   4
ATOM      4  C   UNL     1     -10.724  13.314  64.902  0.00  0.00    +0.011 A 
ATOM      5  C   UNL     1     -10.001  13.823  65.975  0.00  0.00    +0.018 A 
ATOM      6  C   UNL     1      -9.670  15.157  65.973  0.00  0.00    +0.112 A 
ATOM      7  C   UNL     1     -10.536  16.075  65.393  0.00  0.00    +0.211 A 
ATOM      8  O   UNL     1     -10.464  17.422  65.666  0.00  0.00    -0.285 OA
ATOM      9  C   UNL     1     -11.446  15.600  64.458  0.00  0.00    +0.043 A 
ATOM     10  C   UNL     1     -11.606  14.244  64.362  0.00  0.00    +0.002 A 
BRANCH   6  11
ATOM     11  N   UNL     1      -8.388  15.626  66.408  0.00  0.00    -0.168 NA
ATOM     12  C   UNL     1      -8.358  16.143  67.735  0.00  0.00    +0.325 C 
ATOM     13  O   UNL     1      -8.789  15.390  68.632  0.00  0.00    -0.263 OA
ENDBRANCH   6  11
ENDBRANCH   2   4
ENDBRANCH   1   2
BRANCH   1  14
ATOM     14  N   UNL     1     -11.902  11.446  67.747  0.00  0.00    -0.216 NA
BRANCH  14  15
ATOM     15  C   UNL     1     -10.888  11.591  68.945  0.00  0.00    +0.077 C 
ATOM     16  C   UNL     1     -10.596   9.969  69.034  0.00  0.00    +0.019 C 
BRANCH  15  17
ATOM     17  C   UNL     1     -12.093  11.462  70.049  0.00  0.00    +0.044 C 
BRANCH  17  21
ATOM     18  C   UNL     1     -12.915  14.951  72.238  0.00  0.00    +0.139 A 
ATOM     19  C   UNL     1     -13.615  13.771  72.432  0.00  0.00    +0.037 A 
ATOM     20  C   UNL     1     -13.143  12.679  71.761  0.00  0.00    -0.001 A 
ATOM     21  C   UNL     1     -12.372  12.771  70.602  0.00  0.00    -0.021 A 
ATOM     22  C   UNL     1     -11.696  13.942  70.448  0.00  0.00    -0.001 A 
ATOM     23  C   UNL     1     -11.861  15.003  71.335  0.00  0.00    +0.037 A 
BRANCH  18  25
ATOM     24  C   UNL     1     -12.591  15.982  74.151  0.00  0.00    +0.252 C 
ATOM     25  O   UNL     1     -13.044  15.912  73.245  0.00  0.00    -0.471 OA
ENDBRANCH  18  25
ENDBRANCH  17  21
ENDBRANCH  15  17
ENDBRANCH  14  15
ENDBRANCH   1  14
TORSDOF 8
ENDMDL
MODEL 8
REMARK VINA RESULT:      -6.0      2.463      5.088
REMARK  Name = 
REMARK  8 active torsions:
REMARK  status: ('A' for Active; 'I' for Inactive)
REMARK    1  A    between atoms: O_2  and  C_3
REMARK    2  A    between atoms: C_6  and  C_7
REMARK    3  A    between atoms: C_7  and  C_8
REMARK    4  A    between atoms: C_8  and  N_10
REMARK    5  A    between atoms: N_10  and  C_11
REMARK    6  A    between atoms: C_11  and  C_12
REMARK    7  A    between atoms: C_12  and  C_14
REMARK    8  A    between atoms: C_19  and  N_20
REMARK                            x       y       z     vdW  Elec       q    Type
REMARK                         _______ _______ _______ _____ _____    ______ ____
ROOT
ATOM      1  C   UNL     1     -10.039  10.439  65.353  0.00  0.00    +0.126 C 
ENDROOT
BRANCH   1   2
ATOM      2  C   UNL     1      -9.151  11.035  64.085  0.00  0.00    +0.192 C 
ATOM      3  O   UNL     1      -9.937  10.187  63.085  0.00  0.00    -0.217 OA
BRANCH   2   4
ATOM      4  C   UNL     1     -10.166  12.298  63.905  0.00  0.00    +0.011 A 
ATOM      5  C   UNL     1     -10.152  13.075  65.057  0.00  0.00    +0.018 A 
ATOM      6  C   UNL     1     -11.236  13.875  65.327  0.00  0.00    +0.112 A 
ATOM      7  C   UNL     1     -12.505  13.457  64.948  0.00  0.00    +0.211 A 
ATOM      8  O   UNL     1     -13.647  14.002  65.489  0.00  0.00    -0.285 OA
ATOM      9  C   UNL     1     -12.595  12.509  63.937  0.00  0.00    +0.043 A 
ATOM     10  C   UNL     1     -11.445  11.866  63.567  0.00  0.00    +0.002 A 
BRANCH   6  11
ATOM     11  N   UNL     1     -11.095  15.203  65.846  0.00  0.00    -0.168 NA
ATOM     12  C   UNL     1     -10.798  16.198  64.872  0.00  0.00    +0.325 C 
ATOM     13  O   UNL     1     -11.580  16.273  63.902  0.00  0.00    -0.263 OA
ENDBRANCH   6  11
ENDBRANCH   2   4
ENDBRANCH   1   2
BRANCH   1  14
ATOM     14  N   UNL     1      -9.223   9.470  65.992  0.00  0.00    -0.216 NA
BRANCH  14  15
ATOM     15  C   UNL     1      -9.642   9.383  67.509  0.00  0.00    +0.077 C 
ATOM     16  C   UNL     1     -10.592   8.054  67.280  0.00  0.00    +0.019 C 
BRANCH  15  17
ATOM     17  C   UNL     1     -10.924  10.375  67.265  0.00  0.00    +0.044 C 
BRANCH  17  21
ATOM     18  C   UNL     1     -12.363  12.582  70.536  0.00  0.00    +0.139 A 
ATOM     19  C   UNL     1     -11.964  13.184  69.353  0.00  0.00    +0.037 A 
ATOM     20  C   UNL     1     -11.662  12.336  68.325  0.00  0.00    -0.001 A 
ATOM     21  C   UNL     1     -11.278  11.009  68.518  0.00  0.00    -0.021 A 
ATOM     22  C   UNL     1     -11.690  10.451  69.689  0.00  0.00    -0.001 A 
ATOM     23  C   UNL     1     -12.351  11.199  70.661  0.00  0.00    +0.037 A 
BRANCH  18  25
ATOM     24  C   UNL     1     -13.052  13.522  72.399  0.00  0.00    +0.252 C 
ATOM     25  O   UNL     1     -13.129  13.373  71.397  0.00  0.00    -0.471 OA
ENDBRANCH  18  25
ENDBRANCH  17  21
ENDBRANCH  15  17
ENDBRANCH  14  15
ENDBRANCH   1  14
TORSDOF 8
ENDMDL
MODEL 9
REMARK VINA RESULT:      -6.0      2.217      5.186
REMARK  Name = 
REMARK  8 active torsions:
REMARK  status: ('A' for Active; 'I' for Inactive)
REMARK    1  A    between atoms: O_2  and  C_3
REMARK    2  A    between atoms: C_6  and  C_7
REMARK    3  A    between atoms: C_7  and  C_8
REMARK    4  A    between atoms: C_8  and  N_10
REMARK    5  A    between atoms: N_10  and  C_11
REMARK    6  A    between atoms: C_11  and  C_12
REMARK    7  A    between atoms: C_12  and  C_14
REMARK    8  A    between atoms: C_19  and  N_20
REMARK                            x       y       z     vdW  Elec       q    Type
REMARK                         _______ _______ _______ _____ _____    ______ ____
ROOT
ATOM      1  C   UNL     1     -11.256  11.690  67.088  0.00  0.00    +0.126 C 
ENDROOT
BRANCH   1   2
ATOM      2  C   UNL     1      -9.660  11.981  67.428  0.00  0.00    +0.192 C 
ATOM      3  O   UNL     1      -9.242  11.561  66.019  0.00  0.00    -0.217 OA
BRANCH   2   4
ATOM      4  C   UNL     1      -9.800  13.544  66.986  0.00  0.00    +0.011 A 
ATOM      5  C   UNL     1      -9.022  14.336  67.823  0.00  0.00    +0.018 A 
ATOM      6  C   UNL     1      -9.343  15.665  67.959  0.00  0.00    +0.112 A 
ATOM      7  C   UNL     1     -10.673  16.057  67.893  0.00  0.00    +0.211 A 
ATOM      8  O   UNL     1     -11.102  17.274  68.372  0.00  0.00    -0.285 OA
ATOM      9  C   UNL     1     -11.565  15.205  67.253  0.00  0.00    +0.043 A 
ATOM     10  C   UNL     1     -11.134  13.939  66.965  0.00  0.00    +0.002 A 
BRANCH   6  11
ATOM     11  N   UNL     1      -8.343  16.690  68.010  0.00  0.00    -0.168 NA
ATOM     12  C   UNL     1      -7.593  16.856  66.810  0.00  0.00    +0.325 C 
ATOM     13  O   UNL     1      -8.252  17.048  65.768  0.00  0.00    -0.263 OA
ENDBRANCH   6  11
ENDBRANCH   2   4
ENDBRANCH   1   2
BRANCH   1  14
ATOM     14  N   UNL     1     -11.712  10.766  68.064  0.00  0.00    -0.216 NA
BRANCH  14  15
ATOM     15  C   UNL     1     -10.907  11.007  69.397  0.00  0.00    +0.077 C 
ATOM     16  C   UNL     1     -10.699   9.396  69.688  0.00  0.00    +0.019 C 
BRANCH  15  17
ATOM     17  C   UNL     1     -12.284  11.017  70.288  0.00  0.00    +0.044 C 
BRANCH  17  21
ATOM     18  C   UNL     1     -13.072  14.691  72.164  0.00  0.00    +0.139 A 
ATOM     19  C   UNL     1     -13.762  13.532  72.482  0.00  0.00    +0.037 A 
ATOM     20  C   UNL     1     -13.300  12.384  71.903  0.00  0.00    -0.001 A 
ATOM     21  C   UNL     1     -12.556  12.371  70.723  0.00  0.00    -0.021 A 
ATOM     22  C   UNL     1     -11.888  13.525  70.446  0.00  0.00    -0.001 A 
ATOM     23  C   UNL     1     -12.039  14.662  71.235  0.00  0.00    +0.037 A 
BRANCH  18  25
ATOM     24  C   UNL     1     -12.512  16.103  73.751  0.00  0.00    +0.252 C 
ATOM     25  O   UNL     1     -13.183  15.741  73.080  0.00  0.00    -0.471 OA
ENDBRANCH  18  25
ENDBRANCH  17  21
ENDBRANCH  15  17
ENDBRANCH  14  15
ENDBRANCH   1  14
TORSDOF 8
ENDMDL
