MODEL 1
REMARK VINA RESULT:      -7.6      0.000      0.000
REMARK  Name = 
REMARK  9 active torsions:
REMARK  status: ('A' for Active; 'I' for Inactive)
REMARK    1  A    between atoms: C_2  and  O_3
REMARK    2  A    between atoms: O_3  and  C_4
REMARK    3  A    between atoms: C_4  and  O_6
REMARK    4  A    between atoms: O_6  and  C_7
REMARK    5  A    between atoms: C_7  and  C_8
REMARK    6  A    between atoms: C_8  and  C_10
REMARK    7  A    between atoms: C_10  and  O_11
REMARK    8  A    between atoms: O_11  and  C_12
REMARK    9  A    between atoms: C_12  and  C_14
REMARK                            x       y       z     vdW  Elec       q    Type
REMARK                         _______ _______ _______ _____ _____    ______ ____
ROOT
ATOM      1  C   UNL     1     -10.553  14.957  68.167  0.00  0.00    +0.193 C 
ATOM      2  C   UNL     1      -9.632  16.009  67.628  0.00  0.00    +0.043 C 
ATOM      3  C   UNL     1      -8.651  16.055  68.938  0.00  0.00    +0.004 C 
ATOM      4  C   UNL     1      -7.353  16.732  68.051  0.00  0.00    +0.003 C 
ATOM      5  C   UNL     1      -8.046  18.273  68.089  0.00  0.00    +0.038 C 
ATOM      6  C   UNL     1      -8.853  17.983  66.586  0.00  0.00    +0.153 C 
ATOM      7  O   UNL     1      -9.492  19.382  66.604  0.00  0.00    -0.223 OA
ATOM      8  C   UNL     1      -6.781  18.975  67.387  0.00  0.00    +0.036 C 
ATOM      9  C   UNL     1      -5.701  19.075  68.387  0.00  0.00    -0.038 C 
ATOM     10  C   UNL     1      -4.779  20.016  68.183  0.00  0.00    +0.034 C 
ATOM     11  C   UNL     1      -4.900  20.923  67.034  0.00  0.00    +0.195 C 
ATOM     12  C   UNL     1      -6.246  21.099  66.477  0.00  0.00    +0.038 C 
ATOM     13  O   UNL     1      -3.925  21.621  66.625  0.00  0.00    -0.287 OA
ATOM     14  C   UNL     1      -5.281  17.787  69.023  0.00  0.00    +0.022 C 
ATOM     15  C   UNL     1      -6.355  18.184  66.215  0.00  0.00    +0.009 C 
ATOM     16  C   UNL     1      -7.191  20.354  67.010  0.00  0.00    -0.020 C 
ATOM     17  C   UNL     1      -6.511  17.006  69.407  0.00  0.00    +0.004 C 
ATOM     18  C   UNL     1      -8.198  14.508  68.620  0.00  0.00    +0.004 C 
ATOM     19  C   UNL     1      -8.865  15.375  66.523  0.00  0.00    +0.004 C 
ATOM     20  C   UNL     1     -10.172  17.345  67.401  0.00  0.00    +0.037 C 
ATOM     21  C   UNL     1      -9.572  13.861  68.454  0.00  0.00    +0.048 C 
ENDROOT
BRANCH   1  22
ATOM     22  C   UNL     1     -11.354  15.383  69.326  0.00  0.00    +0.230 C 
ATOM     23  O   UNL     1     -12.226  16.240  69.180  0.00  0.00    -0.288 OA
BRANCH  22  24
ATOM     24  C   UNL     1     -11.642  14.454  70.469  0.00  0.00    +0.276 C 
BRANCH  24  25
ATOM     25  O   UNL     1     -13.056  14.414  70.643  0.00  0.00    -0.440 OA
BRANCH  25  26
ATOM     26  C   UNL     1     -13.495  14.444  71.972  0.00  0.00    +0.317 C 
ATOM     27  O   UNL     1     -13.833  13.362  72.537  0.00  0.00    -0.250 OA
BRANCH  26  28
ATOM     28  C   UNL     1     -13.241  15.681  72.736  0.00  0.00    +0.110 C 
ATOM     29  C   UNL     1     -12.461  15.407  73.999  0.00  0.00    +0.012 C 
ENDBRANCH  26  28
ENDBRANCH  25  26
ENDBRANCH  24  25
ENDBRANCH  22  24
ENDBRANCH   1  22
BRANCH   1  30
ATOM     30  O   UNL     1     -11.446  14.677  67.105  0.00  0.00    -0.418 OA
BRANCH  30  31
ATOM     31  C   UNL     1     -11.676  13.427  66.591  0.00  0.00    +0.512 C 
ATOM     32  O   UNL     1     -12.298  12.630  67.339  0.00  0.00    -0.203 OA
BRANCH  31  33
ATOM     33  O   UNL     1     -11.223  13.142  65.328  0.00  0.00    -0.418 OA
BRANCH  33  35
ATOM     34  C   UNL     1     -12.274  12.161  63.490  0.00  0.00    +0.051 C 
ATOM     35  C   UNL     1     -12.081  13.459  64.233  0.00  0.00    +0.212 C 
ENDBRANCH  33  35
ENDBRANCH  31  33
ENDBRANCH  30  31
ENDBRANCH   1  30
TORSDOF 9
ENDMDL
MODEL 2
REMARK VINA RESULT:      -7.1      1.686      5.044
REMARK  Name = 
REMARK  9 active torsions:
REMARK  status: ('A' for Active; 'I' for Inactive)
REMARK    1  A    between atoms: C_2  and  O_3
REMARK    2  A    between atoms: O_3  and  C_4
REMARK    3  A    between atoms: C_4  and  O_6
REMARK    4  A    between atoms: O_6  and  C_7
REMARK    5  A    between atoms: C_7  and  C_8
REMARK    6  A    between atoms: C_8  and  C_10
REMARK    7  A    between atoms: C_10  and  O_11
REMARK    8  A    between atoms: O_11  and  C_12
REMARK    9  A    between atoms: C_12  and  C_14
REMARK                            x       y       z     vdW  Elec       q    Type
REMARK                         _______ _______ _______ _____ _____    ______ ____
ROOT
ATOM      1  C   UNL     1      -9.722  16.304  67.319  0.00  0.00    +0.193 C 
ATOM      2  C   UNL     1      -8.511  17.086  67.730  0.00  0.00    +0.043 C 
ATOM      3  C   UNL     1      -8.311  17.846  66.294  0.00  0.00    +0.004 C 
ATOM      4  C   UNL     1      -7.395  19.112  66.992  0.00  0.00    +0.003 C 
ATOM      5  C   UNL     1      -6.006  18.153  67.066  0.00  0.00    +0.038 C 
ATOM      6  C   UNL     1      -6.411  17.634  68.667  0.00  0.00    +0.153 C 
ATOM      7  O   UNL     1      -5.151  16.756  68.753  0.00  0.00    -0.223 OA
ATOM      8  C   UNL     1      -5.075  19.356  67.586  0.00  0.00    +0.036 C 
ATOM      9  C   UNL     1      -4.799  20.246  66.443  0.00  0.00    -0.038 C 
ATOM     10  C   UNL     1      -3.702  21.002  66.521  0.00  0.00    +0.034 C 
ATOM     11  C   UNL     1      -2.813  20.883  67.683  0.00  0.00    +0.195 C 
ATOM     12  C   UNL     1      -2.873  19.621  68.429  0.00  0.00    +0.038 C 
ATOM     13  O   UNL     1      -1.942  21.763  67.955  0.00  0.00    -0.287 OA
ATOM     14  C   UNL     1      -6.000  20.798  65.742  0.00  0.00    +0.022 C 
ATOM     15  C   UNL     1      -5.754  20.081  68.678  0.00  0.00    +0.009 C 
ATOM     16  C   UNL     1      -3.786  18.761  68.031  0.00  0.00    -0.020 C 
ATOM     17  C   UNL     1      -6.997  19.689  65.531  0.00  0.00    +0.004 C 
ATOM     18  C   UNL     1      -9.745  18.613  66.530  0.00  0.00    +0.004 C 
ATOM     19  C   UNL     1      -8.976  18.105  68.709  0.00  0.00    +0.004 C 
ATOM     20  C   UNL     1      -7.291  16.350  68.044  0.00  0.00    +0.037 C 
ATOM     21  C   UNL     1     -10.627  17.417  66.886  0.00  0.00    +0.048 C 
ENDROOT
BRANCH   1  22
ATOM     22  C   UNL     1      -9.468  15.282  66.291  0.00  0.00    +0.230 C 
ATOM     23  O   UNL     1      -8.976  14.202  66.616  0.00  0.00    -0.288 OA
BRANCH  22  24
ATOM     24  C   UNL     1     -10.310  15.185  65.052  0.00  0.00    +0.276 C 
BRANCH  24  25
ATOM     25  O   UNL     1     -10.789  13.846  64.964  0.00  0.00    -0.440 OA
BRANCH  25  26
ATOM     26  C   UNL     1     -11.962  13.680  64.218  0.00  0.00    +0.317 C 
ATOM     27  O   UNL     1     -12.678  14.693  63.957  0.00  0.00    -0.250 OA
BRANCH  26  28
ATOM     28  C   UNL     1     -12.135  12.396  63.511  0.00  0.00    +0.110 C 
ATOM     29  C   UNL     1     -10.910  11.523  63.633  0.00  0.00    +0.012 C 
ENDBRANCH  26  28
ENDBRANCH  25  26
ENDBRANCH  24  25
ENDBRANCH  22  24
ENDBRANCH   1  22
BRANCH   1  30
ATOM     30  O   UNL     1     -10.140  15.638  68.496  0.00  0.00    -0.418 OA
BRANCH  30  31
ATOM     31  C   UNL     1     -11.447  15.401  68.833  0.00  0.00    +0.512 C 
ATOM     32  O   UNL     1     -12.001  14.433  68.251  0.00  0.00    -0.203 OA
BRANCH  31  33
ATOM     33  O   UNL     1     -12.044  16.216  69.761  0.00  0.00    -0.418 OA
BRANCH  33  35
ATOM     34  C   UNL     1     -11.988  16.015  72.085  0.00  0.00    +0.051 C 
ATOM     35  C   UNL     1     -12.732  15.591  70.844  0.00  0.00    +0.212 C 
ENDBRANCH  33  35
ENDBRANCH  31  33
ENDBRANCH  30  31
ENDBRANCH   1  30
TORSDOF 9
ENDMDL
MODEL 3
REMARK VINA RESULT:      -7.0      2.025      2.535
REMARK  Name = 
REMARK  9 active torsions:
REMARK  status: ('A' for Active; 'I' for Inactive)
REMARK    1  A    between atoms: C_2  and  O_3
REMARK    2  A    between atoms: O_3  and  C_4
REMARK    3  A    between atoms: C_4  and  O_6
REMARK    4  A    between atoms: O_6  and  C_7
REMARK    5  A    between atoms: C_7  and  C_8
REMARK    6  A    between atoms: C_8  and  C_10
REMARK    7  A    between atoms: C_10  and  O_11
REMARK    8  A    between atoms: O_11  and  C_12
REMARK    9  A    between atoms: C_12  and  C_14
REMARK                            x       y       z     vdW  Elec       q    Type
REMARK                         _______ _______ _______ _____ _____    ______ ____
ROOT
ATOM      1  C   UNL     1     -11.094  14.053  67.118  0.00  0.00    +0.193 C 
ATOM      2  C   UNL     1     -10.206  15.260  67.144  0.00  0.00    +0.043 C 
ATOM      3  C   UNL     1      -8.956  14.528  67.906  0.00  0.00    +0.004 C 
ATOM      4  C   UNL     1      -7.824  15.685  67.348  0.00  0.00    +0.003 C 
ATOM      5  C   UNL     1      -8.313  16.816  68.503  0.00  0.00    +0.038 C 
ATOM      6  C   UNL     1      -9.466  17.490  67.403  0.00  0.00    +0.153 C 
ATOM      7  O   UNL     1      -9.923  18.529  68.442  0.00  0.00    -0.223 OA
ATOM      8  C   UNL     1      -7.169  17.874  68.106  0.00  0.00    +0.036 C 
ATOM      9  C   UNL     1      -5.887  17.384  68.647  0.00  0.00    -0.038 C 
ATOM     10  C   UNL     1      -4.935  18.295  68.854  0.00  0.00    +0.034 C 
ATOM     11  C   UNL     1      -5.209  19.713  68.591  0.00  0.00    +0.195 C 
ATOM     12  C   UNL     1      -6.618  20.124  68.617  0.00  0.00    +0.038 C 
ATOM     13  O   UNL     1      -4.280  20.568  68.481  0.00  0.00    -0.287 OA
ATOM     14  C   UNL     1      -5.481  16.009  68.218  0.00  0.00    +0.022 C 
ATOM     15  C   UNL     1      -7.110  18.021  66.638  0.00  0.00    +0.009 C 
ATOM     16  C   UNL     1      -7.496  19.158  68.782  0.00  0.00    -0.020 C 
ATOM     17  C   UNL     1      -6.672  15.092  68.320  0.00  0.00    +0.004 C 
ATOM     18  C   UNL     1      -8.763  13.554  66.598  0.00  0.00    +0.004 C 
ATOM     19  C   UNL     1      -9.785  15.507  65.739  0.00  0.00    +0.004 C 
ATOM     20  C   UNL     1     -10.630  16.409  67.937  0.00  0.00    +0.037 C 
ATOM     21  C   UNL     1     -10.203  13.078  66.409  0.00  0.00    +0.048 C 
ENDROOT
BRANCH   1  22
ATOM     22  C   UNL     1     -11.560  13.610  68.441  0.00  0.00    +0.230 C 
ATOM     23  O   UNL     1     -12.450  14.238  69.014  0.00  0.00    -0.288 OA
BRANCH  22  24
ATOM     24  C   UNL     1     -11.516  12.166  68.849  0.00  0.00    +0.276 C 
BRANCH  24  25
ATOM     25  O   UNL     1     -12.064  12.075  70.162  0.00  0.00    -0.440 OA
BRANCH  25  26
ATOM     26  C   UNL     1     -12.233  10.774  70.649  0.00  0.00    +0.317 C 
ATOM     27  O   UNL     1     -11.402   9.876  70.317  0.00  0.00    -0.250 OA
BRANCH  26  28
ATOM     28  C   UNL     1     -13.180  10.591  71.766  0.00  0.00    +0.110 C 
ATOM     29  C   UNL     1     -13.249   9.149  72.208  0.00  0.00    +0.012 C 
ENDBRANCH  26  28
ENDBRANCH  25  26
ENDBRANCH  24  25
ENDBRANCH  22  24
ENDBRANCH   1  22
BRANCH   1  30
ATOM     30  O   UNL     1     -12.229  14.453  66.372  0.00  0.00    -0.418 OA
BRANCH  30  31
ATOM     31  C   UNL     1     -12.566  13.954  65.141  0.00  0.00    +0.512 C 
ATOM     32  O   UNL     1     -12.628  14.791  64.204  0.00  0.00    -0.203 OA
BRANCH  31  33
ATOM     33  O   UNL     1     -12.804  12.608  65.021  0.00  0.00    -0.418 OA
BRANCH  33  35
ATOM     34  C   UNL     1     -11.334  11.529  63.567  0.00  0.00    +0.051 C 
ATOM     35  C   UNL     1     -12.744  12.042  63.713  0.00  0.00    +0.212 C 
ENDBRANCH  33  35
ENDBRANCH  31  33
ENDBRANCH  30  31
ENDBRANCH   1  30
TORSDOF 9
ENDMDL
MODEL 4
REMARK VINA RESULT:      -7.0      3.574      7.260
REMARK  Name = 
REMARK  9 active torsions:
REMARK  status: ('A' for Active; 'I' for Inactive)
REMARK    1  A    between atoms: C_2  and  O_3
REMARK    2  A    between atoms: O_3  and  C_4
REMARK    3  A    between atoms: C_4  and  O_6
REMARK    4  A    between atoms: O_6  and  C_7
REMARK    5  A    between atoms: C_7  and  C_8
REMARK    6  A    between atoms: C_8  and  C_10
REMARK    7  A    between atoms: C_10  and  O_11
REMARK    8  A    between atoms: O_11  and  C_12
REMARK    9  A    between atoms: C_12  and  C_14
REMARK                            x       y       z     vdW  Elec       q    Type
REMARK                         _______ _______ _______ _____ _____    ______ ____
ROOT
ATOM      1  C   UNL     1     -10.554  14.783  67.854  0.00  0.00    +0.193 C 
ATOM      2  C   UNL     1      -9.722  13.597  67.471  0.00  0.00    +0.043 C 
ATOM      3  C   UNL     1     -10.794  12.472  67.984  0.00  0.00    +0.004 C 
ATOM      4  C   UNL     1     -10.124  11.253  66.986  0.00  0.00    +0.003 C 
ATOM      5  C   UNL     1      -8.834  11.003  68.048  0.00  0.00    +0.038 C 
ATOM      6  C   UNL     1      -7.867  12.158  67.196  0.00  0.00    +0.153 C 
ATOM      7  O   UNL     1      -6.681  11.943  68.153  0.00  0.00    -0.223 OA
ATOM      8  C   UNL     1      -8.252   9.756  67.216  0.00  0.00    +0.036 C 
ATOM      9  C   UNL     1      -9.120   8.591  67.473  0.00  0.00    -0.038 C 
ATOM     10  C   UNL     1      -8.578   7.386  67.289  0.00  0.00    +0.034 C 
ATOM     11  C   UNL     1      -7.167   7.270  66.899  0.00  0.00    +0.195 C 
ATOM     12  C   UNL     1      -6.301   8.408  67.227  0.00  0.00    +0.038 C 
ATOM     13  O   UNL     1      -6.688   6.196  66.426  0.00  0.00    -0.287 OA
ATOM     14  C   UNL     1     -10.572   8.779  67.162  0.00  0.00    +0.022 C 
ATOM     15  C   UNL     1      -8.212  10.087  65.778  0.00  0.00    +0.009 C 
ATOM     16  C   UNL     1      -6.900   9.453  67.755  0.00  0.00    -0.020 C 
ATOM     17  C   UNL     1     -11.021  10.110  67.704  0.00  0.00    +0.004 C 
ATOM     18  C   UNL     1     -11.845  12.984  66.829  0.00  0.00    +0.004 C 
ATOM     19  C   UNL     1      -9.709  13.552  65.984  0.00  0.00    +0.004 C 
ATOM     20  C   UNL     1      -8.457  13.390  68.167  0.00  0.00    +0.037 C 
ATOM     21  C   UNL     1     -11.810  14.489  67.092  0.00  0.00    +0.048 C 
ENDROOT
BRANCH   1  22
ATOM     22  C   UNL     1     -10.741  14.954  69.304  0.00  0.00    +0.230 C 
ATOM     23  O   UNL     1      -9.875  15.527  69.965  0.00  0.00    -0.288 OA
BRANCH  22  24
ATOM     24  C   UNL     1     -12.107  15.072  69.914  0.00  0.00    +0.276 C 
BRANCH  24  25
ATOM     25  O   UNL     1     -12.187  14.121  70.973  0.00  0.00    -0.440 OA
BRANCH  25  26
ATOM     26  C   UNL     1     -12.808  14.579  72.140  0.00  0.00    +0.317 C 
ATOM     27  O   UNL     1     -13.732  13.886  72.663  0.00  0.00    -0.250 OA
BRANCH  26  28
ATOM     28  C   UNL     1     -12.145  15.677  72.870  0.00  0.00    +0.110 C 
ATOM     29  C   UNL     1     -12.469  15.644  74.343  0.00  0.00    +0.012 C 
ENDBRANCH  26  28
ENDBRANCH  25  26
ENDBRANCH  24  25
ENDBRANCH  22  24
ENDBRANCH   1  22
BRANCH   1  30
ATOM     30  O   UNL     1      -9.832  15.903  67.377  0.00  0.00    -0.418 OA
BRANCH  30  31
ATOM     31  C   UNL     1     -10.405  17.033  66.854  0.00  0.00    +0.512 C 
ATOM     32  O   UNL     1     -10.401  17.124  65.600  0.00  0.00    -0.203 OA
BRANCH  31  33
ATOM     33  O   UNL     1     -10.932  17.962  67.716  0.00  0.00    -0.418 OA
BRANCH  33  35
ATOM     34  C   UNL     1      -9.944  20.074  67.732  0.00  0.00    +0.051 C 
ATOM     35  C   UNL     1     -10.017  18.759  68.466  0.00  0.00    +0.212 C 
ENDBRANCH  33  35
ENDBRANCH  31  33
ENDBRANCH  30  31
ENDBRANCH   1  30
TORSDOF 9
ENDMDL
MODEL 5
REMARK VINA RESULT:      -7.0      4.594      9.486
REMARK  Name = 
REMARK  9 active torsions:
REMARK  status: ('A' for Active; 'I' for Inactive)
REMARK    1  A    between atoms: C_2  and  O_3
REMARK    2  A    between atoms: O_3  and  C_4
REMARK    3  A    between atoms: C_4  and  O_6
REMARK    4  A    between atoms: O_6  and  C_7
REMARK    5  A    between atoms: C_7  and  C_8
REMARK    6  A    between atoms: C_8  and  C_10
REMARK    7  A    between atoms: C_10  and  O_11
REMARK    8  A    between atoms: O_11  and  C_12
REMARK    9  A    between atoms: C_12  and  C_14
REMARK                            x       y       z     vdW  Elec       q    Type
REMARK                         _______ _______ _______ _____ _____    ______ ____
ROOT
ATOM      1  C   UNL     1     -10.134  13.060  67.833  0.00  0.00    +0.193 C 
ATOM      2  C   UNL     1      -9.968  11.703  68.448  0.00  0.00    +0.043 C 
ATOM      3  C   UNL     1     -10.314  10.863  67.086  0.00  0.00    +0.004 C 
ATOM      4  C   UNL     1      -9.517   9.456  67.648  0.00  0.00    +0.003 C 
ATOM      5  C   UNL     1     -10.817   9.040  68.644  0.00  0.00    +0.038 C 
ATOM      6  C   UNL     1     -10.118   9.902  69.971  0.00  0.00    +0.153 C 
ATOM      7  O   UNL     1     -11.293   9.532  70.893  0.00  0.00    -0.223 OA
ATOM      8  C   UNL     1     -10.167   7.637  69.085  0.00  0.00    +0.036 C 
ATOM      9  C   UNL     1     -10.303   6.696  67.957  0.00  0.00    -0.038 C 
ATOM     10  C   UNL     1     -10.278   5.396  68.253  0.00  0.00    +0.034 C 
ATOM     11  C   UNL     1     -10.172   4.966  69.653  0.00  0.00    +0.195 C 
ATOM     12  C   UNL     1     -10.612   5.929  70.669  0.00  0.00    +0.038 C 
ATOM     13  O   UNL     1      -9.848   3.782  69.969  0.00  0.00    -0.287 OA
ATOM     14  C   UNL     1      -9.710   7.147  66.659  0.00  0.00    +0.022 C 
ATOM     15  C   UNL     1      -8.751   7.834  69.452  0.00  0.00    +0.009 C 
ATOM     16  C   UNL     1     -10.969   7.114  70.223  0.00  0.00    -0.020 C 
ATOM     17  C   UNL     1     -10.098   8.581  66.415  0.00  0.00    +0.004 C 
ATOM     18  C   UNL     1      -8.958  11.480  66.393  0.00  0.00    +0.004 C 
ATOM     19  C   UNL     1      -8.516  11.534  68.717  0.00  0.00    +0.004 C 
ATOM     20  C   UNL     1     -10.904  11.304  69.494  0.00  0.00    +0.037 C 
ATOM     21  C   UNL     1      -9.157  12.964  66.701  0.00  0.00    +0.048 C 
ENDROOT
BRANCH   1  22
ATOM     22  C   UNL     1     -11.511  13.384  67.431  0.00  0.00    +0.230 C 
ATOM     23  O   UNL     1     -12.308  13.802  68.272  0.00  0.00    -0.288 OA
BRANCH  22  24
ATOM     24  C   UNL     1     -11.838  13.851  66.042  0.00  0.00    +0.276 C 
BRANCH  24  25
ATOM     25  O   UNL     1     -12.603  12.825  65.414  0.00  0.00    -0.440 OA
BRANCH  25  26
ATOM     26  C   UNL     1     -12.336  12.631  64.054  0.00  0.00    +0.317 C 
ATOM     27  O   UNL     1     -12.563  13.574  63.238  0.00  0.00    -0.250 OA
BRANCH  26  28
ATOM     28  C   UNL     1     -11.515  11.460  63.689  0.00  0.00    +0.110 C 
ATOM     29  C   UNL     1     -10.161  11.870  63.163  0.00  0.00    +0.012 C 
ENDBRANCH  26  28
ENDBRANCH  25  26
ENDBRANCH  24  25
ENDBRANCH  22  24
ENDBRANCH   1  22
BRANCH   1  30
ATOM     30  O   UNL     1      -9.756  13.969  68.852  0.00  0.00    -0.418 OA
BRANCH  30  31
ATOM     31  C   UNL     1      -9.056  15.128  68.640  0.00  0.00    +0.512 C 
ATOM     32  O   UNL     1      -7.907  15.179  69.149  0.00  0.00    -0.203 OA
BRANCH  31  33
ATOM     33  O   UNL     1      -9.644  16.125  67.903  0.00  0.00    -0.418 OA
BRANCH  33  35
ATOM     34  C   UNL     1      -9.868  18.342  68.593  0.00  0.00    +0.051 C 
ATOM     35  C   UNL     1     -10.549  16.997  68.578  0.00  0.00    +0.212 C 
ENDBRANCH  33  35
ENDBRANCH  31  33
ENDBRANCH  30  31
ENDBRANCH   1  30
TORSDOF 9
ENDMDL
MODEL 6
REMARK VINA RESULT:      -6.9      4.204      8.263
REMARK  Name = 
REMARK  9 active torsions:
REMARK  status: ('A' for Active; 'I' for Inactive)
REMARK    1  A    between atoms: C_2  and  O_3
REMARK    2  A    between atoms: O_3  and  C_4
REMARK    3  A    between atoms: C_4  and  O_6
REMARK    4  A    between atoms: O_6  and  C_7
REMARK    5  A    between atoms: C_7  and  C_8
REMARK    6  A    between atoms: C_8  and  C_10
REMARK    7  A    between atoms: C_10  and  O_11
REMARK    8  A    between atoms: O_11  and  C_12
REMARK    9  A    between atoms: C_12  and  C_14
REMARK                            x       y       z     vdW  Elec       q    Type
REMARK                         _______ _______ _______ _____ _____    ______ ____
ROOT
ATOM      1  C   UNL     1     -10.199  13.343  67.516  0.00  0.00    +0.193 C 
ATOM      2  C   UNL     1     -10.059  11.909  67.931  0.00  0.00    +0.043 C 
ATOM      3  C   UNL     1     -10.909  12.056  69.322  0.00  0.00    +0.004 C 
ATOM      4  C   UNL     1     -11.246  10.379  69.395  0.00  0.00    +0.003 C 
ATOM      5  C   UNL     1      -9.699  10.028  69.977  0.00  0.00    +0.038 C 
ATOM      6  C   UNL     1      -9.113   9.787  68.367  0.00  0.00    +0.153 C 
ATOM      7  O   UNL     1      -7.698   9.464  68.879  0.00  0.00    -0.223 OA
ATOM      8  C   UNL     1     -10.021   8.469  70.199  0.00  0.00    +0.036 C 
ATOM      9  C   UNL     1     -10.862   8.343  71.404  0.00  0.00    -0.038 C 
ATOM     10  C   UNL     1     -10.845   7.165  72.029  0.00  0.00    +0.034 C 
ATOM     11  C   UNL     1      -9.976   6.088  71.537  0.00  0.00    +0.195 C 
ATOM     12  C   UNL     1      -8.817   6.497  70.734  0.00  0.00    +0.038 C 
ATOM     13  O   UNL     1     -10.134   4.882  71.892  0.00  0.00    -0.287 OA
ATOM     14  C   UNL     1     -12.135   9.130  71.395  0.00  0.00    +0.022 C 
ATOM     15  C   UNL     1     -10.704   7.924  69.009  0.00  0.00    +0.009 C 
ATOM     16  C   UNL     1      -8.729   7.781  70.463  0.00  0.00    -0.020 C 
ATOM     17  C   UNL     1     -11.848  10.521  70.892  0.00  0.00    +0.004 C 
ATOM     18  C   UNL     1     -12.250  12.392  68.435  0.00  0.00    +0.004 C 
ATOM     19  C   UNL     1     -10.886  11.112  66.987  0.00  0.00    +0.004 C 
ATOM     20  C   UNL     1      -8.723  11.413  68.249  0.00  0.00    +0.037 C 
ATOM     21  C   UNL     1     -11.692  13.477  67.514  0.00  0.00    +0.048 C 
ENDROOT
BRANCH   1  22
ATOM     22  C   UNL     1      -9.497  14.301  68.385  0.00  0.00    +0.230 C 
ATOM     23  O   UNL     1      -8.272  14.398  68.316  0.00  0.00    -0.288 OA
BRANCH  22  24
ATOM     24  C   UNL     1     -10.153  15.566  68.855  0.00  0.00    +0.276 C 
BRANCH  24  25
ATOM     25  O   UNL     1     -10.340  15.455  70.264  0.00  0.00    -0.440 OA
BRANCH  25  26
ATOM     26  C   UNL     1     -11.670  15.513  70.695  0.00  0.00    +0.317 C 
ATOM     27  O   UNL     1     -12.556  15.970  69.911  0.00  0.00    -0.250 OA
BRANCH  26  28
ATOM     28  C   UNL     1     -12.017  14.753  71.911  0.00  0.00    +0.110 C 
ATOM     29  C   UNL     1     -13.357  14.070  71.779  0.00  0.00    +0.012 C 
ENDBRANCH  26  28
ENDBRANCH  25  26
ENDBRANCH  24  25
ENDBRANCH  22  24
ENDBRANCH   1  22
BRANCH   1  30
ATOM     30  O   UNL     1      -9.607  13.409  66.232  0.00  0.00    -0.418 OA
BRANCH  30  31
ATOM     31  C   UNL     1     -10.155  14.056  65.155  0.00  0.00    +0.512 C 
ATOM     32  O   UNL     1     -10.154  15.313  65.208  0.00  0.00    -0.203 OA
BRANCH  31  33
ATOM     33  O   UNL     1     -10.652  13.305  64.121  0.00  0.00    -0.418 OA
BRANCH  33  35
ATOM     34  C   UNL     1     -12.432  11.945  63.472  0.00  0.00    +0.051 C 
ATOM     35  C   UNL     1     -12.060  13.344  63.894  0.00  0.00    +0.212 C 
ENDBRANCH  33  35
ENDBRANCH  31  33
ENDBRANCH  30  31
ENDBRANCH   1  30
TORSDOF 9
ENDMDL
MODEL 7
REMARK VINA RESULT:      -6.9      2.456      5.530
REMARK  Name = 
REMARK  9 active torsions:
REMARK  status: ('A' for Active; 'I' for Inactive)
REMARK    1  A    between atoms: C_2  and  O_3
REMARK    2  A    between atoms: O_3  and  C_4
REMARK    3  A    between atoms: C_4  and  O_6
REMARK    4  A    between atoms: O_6  and  C_7
REMARK    5  A    between atoms: C_7  and  C_8
REMARK    6  A    between atoms: C_8  and  C_10
REMARK    7  A    between atoms: C_10  and  O_11
REMARK    8  A    between atoms: O_11  and  C_12
REMARK    9  A    between atoms: C_12  and  C_14
REMARK                            x       y       z     vdW  Elec       q    Type
REMARK                         _______ _______ _______ _____ _____    ______ ____
ROOT
ATOM      1  C   UNL     1     -10.559  12.363  67.847  0.00  0.00    +0.193 C 
ATOM      2  C   UNL     1      -9.968  13.717  68.106  0.00  0.00    +0.043 C 
ATOM      3  C   UNL     1     -10.406  14.365  66.669  0.00  0.00    +0.004 C 
ATOM      4  C   UNL     1     -10.296  15.968  67.260  0.00  0.00    +0.003 C 
ATOM      5  C   UNL     1      -8.611  15.967  67.134  0.00  0.00    +0.038 C 
ATOM      6  C   UNL     1      -8.457  15.410  68.765  0.00  0.00    +0.153 C 
ATOM      7  O   UNL     1      -6.922  15.405  68.669  0.00  0.00    -0.223 OA
ATOM      8  C   UNL     1      -8.474  17.515  67.546  0.00  0.00    +0.036 C 
ATOM      9  C   UNL     1      -8.890  18.333  66.390  0.00  0.00    -0.038 C 
ATOM     10  C   UNL     1      -8.416  19.579  66.335  0.00  0.00    +0.034 C 
ATOM     11  C   UNL     1      -7.487  20.055  67.367  0.00  0.00    +0.195 C 
ATOM     12  C   UNL     1      -6.731  19.028  68.093  0.00  0.00    +0.038 C 
ATOM     13  O   UNL     1      -7.245  21.288  67.535  0.00  0.00    -0.287 OA
ATOM     14  C   UNL     1     -10.265  18.066  65.864  0.00  0.00    +0.022 C 
ATOM     15  C   UNL     1      -9.310  17.796  68.729  0.00  0.00    +0.009 C 
ATOM     16  C   UNL     1      -7.034  17.781  67.805  0.00  0.00    -0.020 C 
ATOM     17  C   UNL     1     -10.472  16.577  65.769  0.00  0.00    +0.004 C 
ATOM     18  C   UNL     1     -11.981  14.202  67.105  0.00  0.00    +0.004 C 
ATOM     19  C   UNL     1     -10.809  14.352  69.154  0.00  0.00    +0.004 C 
ATOM     20  C   UNL     1      -8.519  13.819  68.244  0.00  0.00    +0.037 C 
ATOM     21  C   UNL     1     -11.980  12.741  67.555  0.00  0.00    +0.048 C 
ENDROOT
BRANCH   1  22
ATOM     22  C   UNL     1      -9.894  11.602  66.777  0.00  0.00    +0.230 C 
ATOM     23  O   UNL     1      -8.715  11.271  66.910  0.00  0.00    -0.288 OA
BRANCH  22  24
ATOM     24  C   UNL     1     -10.658  10.675  65.878  0.00  0.00    +0.276 C 
BRANCH  24  25
ATOM     25  O   UNL     1      -9.925  10.558  64.661  0.00  0.00    -0.440 OA
BRANCH  25  26
ATOM     26  C   UNL     1     -10.296  11.454  63.652  0.00  0.00    +0.317 C 
ATOM     27  O   UNL     1      -9.445  11.783  62.773  0.00  0.00    -0.250 OA
BRANCH  26  28
ATOM     28  C   UNL     1     -11.739  11.719  63.485  0.00  0.00    +0.110 C 
ATOM     29  C   UNL     1     -12.046  13.195  63.551  0.00  0.00    +0.012 C 
ENDBRANCH  26  28
ENDBRANCH  25  26
ENDBRANCH  24  25
ENDBRANCH  22  24
ENDBRANCH   1  22
BRANCH   1  30
ATOM     30  O   UNL     1     -10.382  11.652  69.058  0.00  0.00    -0.418 OA
BRANCH  30  31
ATOM     31  C   UNL     1     -11.110  10.550  69.426  0.00  0.00    +0.512 C 
ATOM     32  O   UNL     1     -10.502   9.450  69.391  0.00  0.00    -0.203 OA
BRANCH  31  33
ATOM     33  O   UNL     1     -12.419  10.723  69.800  0.00  0.00    -0.418 OA
BRANCH  33  35
ATOM     34  C   UNL     1     -13.174   9.795  71.802  0.00  0.00    +0.051 C 
ATOM     35  C   UNL     1     -12.677  11.065  71.160  0.00  0.00    +0.212 C 
ENDBRANCH  33  35
ENDBRANCH  31  33
ENDBRANCH  30  31
ENDBRANCH   1  30
TORSDOF 9
ENDMDL
MODEL 8
REMARK VINA RESULT:      -6.8      5.700      8.322
REMARK  Name = 
REMARK  9 active torsions:
REMARK  status: ('A' for Active; 'I' for Inactive)
REMARK    1  A    between atoms: C_2  and  O_3
REMARK    2  A    between atoms: O_3  and  C_4
REMARK    3  A    between atoms: C_4  and  O_6
REMARK    4  A    between atoms: O_6  and  C_7
REMARK    5  A    between atoms: C_7  and  C_8
REMARK    6  A    between atoms: C_8  and  C_10
REMARK    7  A    between atoms: C_10  and  O_11
REMARK    8  A    between atoms: O_11  and  C_12
REMARK    9  A    between atoms: C_12  and  C_14
REMARK                            x       y       z     vdW  Elec       q    Type
REMARK                         _______ _______ _______ _____ _____    ______ ____
ROOT
ATOM      1  C   UNL     1      -9.441   7.490  69.135  0.00  0.00    +0.193 C 
ATOM      2  C   UNL     1      -9.479   8.709  68.262  0.00  0.00    +0.043 C 
ATOM      3  C   UNL     1     -10.659   9.473  69.100  0.00  0.00    +0.004 C 
ATOM      4  C   UNL     1     -10.215  11.010  68.490  0.00  0.00    +0.003 C 
ATOM      5  C   UNL     1     -10.982  10.718  67.013  0.00  0.00    +0.038 C 
ATOM      6  C   UNL     1      -9.517  10.086  66.342  0.00  0.00    +0.153 C 
ATOM      7  O   UNL     1     -10.198   9.814  64.989  0.00  0.00    -0.223 OA
ATOM      8  C   UNL     1     -10.712  12.202  66.458  0.00  0.00    +0.036 C 
ATOM      9  C   UNL     1     -11.647  13.120  67.137  0.00  0.00    -0.038 C 
ATOM     10  C   UNL     1     -11.926  14.264  66.511  0.00  0.00    +0.034 C 
ATOM     11  C   UNL     1     -11.351  14.534  65.187  0.00  0.00    +0.195 C 
ATOM     12  C   UNL     1     -10.936  13.365  64.403  0.00  0.00    +0.038 C 
ATOM     13  O   UNL     1     -11.335  15.698  64.687  0.00  0.00    -0.287 OA
ATOM     14  C   UNL     1     -11.592  13.117  68.633  0.00  0.00    +0.022 C 
ATOM     15  C   UNL     1      -9.308  12.585  66.709  0.00  0.00    +0.009 C 
ATOM     16  C   UNL     1     -11.038  12.201  65.007  0.00  0.00    -0.020 C 
ATOM     17  C   UNL     1     -11.544  11.692  69.118  0.00  0.00    +0.004 C 
ATOM     18  C   UNL     1      -9.643   9.575  70.386  0.00  0.00    +0.004 C 
ATOM     19  C   UNL     1      -8.211   9.446  68.507  0.00  0.00    +0.004 C 
ATOM     20  C   UNL     1      -9.915   8.550  66.878  0.00  0.00    +0.037 C 
ATOM     21  C   UNL     1      -9.175   8.122  70.467  0.00  0.00    +0.048 C 
ENDROOT
BRANCH   1  22
ATOM     22  C   UNL     1     -10.655   6.661  69.079  0.00  0.00    +0.230 C 
ATOM     23  O   UNL     1     -10.856   5.942  68.099  0.00  0.00    -0.288 OA
BRANCH  22  24
ATOM     24  C   UNL     1     -11.310   6.139  70.324  0.00  0.00    +0.276 C 
BRANCH  24  25
ATOM     25  O   UNL     1     -12.538   6.845  70.490  0.00  0.00    -0.440 OA
BRANCH  25  26
ATOM     26  C   UNL     1     -12.677   7.521  71.707  0.00  0.00    +0.317 C 
ATOM     27  O   UNL     1     -11.751   7.440  72.569  0.00  0.00    -0.250 OA
BRANCH  26  28
ATOM     28  C   UNL     1     -13.741   8.540  71.794  0.00  0.00    +0.110 C 
ATOM     29  C   UNL     1     -13.173   9.936  71.861  0.00  0.00    +0.012 C 
ENDBRANCH  26  28
ENDBRANCH  25  26
ENDBRANCH  24  25
ENDBRANCH  22  24
ENDBRANCH   1  22
BRANCH   1  30
ATOM     30  O   UNL     1      -8.366   6.717  68.632  0.00  0.00    -0.418 OA
BRANCH  30  31
ATOM     31  C   UNL     1      -7.477   6.023  69.410  0.00  0.00    +0.512 C 
ATOM     32  O   UNL     1      -6.340   6.544  69.546  0.00  0.00    -0.203 OA
BRANCH  31  33
ATOM     33  O   UNL     1      -7.881   4.840  69.973  0.00  0.00    -0.418 OA
BRANCH  33  35
ATOM     34  C   UNL     1      -9.315   3.015  69.733  0.00  0.00    +0.051 C 
ATOM     35  C   UNL     1      -8.167   3.754  69.093  0.00  0.00    +0.212 C 
ENDBRANCH  33  35
ENDBRANCH  31  33
ENDBRANCH  30  31
ENDBRANCH   1  30
TORSDOF 9
ENDMDL
MODEL 9
REMARK VINA RESULT:      -6.8      2.687      8.139
REMARK  Name = 
REMARK  9 active torsions:
REMARK  status: ('A' for Active; 'I' for Inactive)
REMARK    1  A    between atoms: C_2  and  O_3
REMARK    2  A    between atoms: O_3  and  C_4
REMARK    3  A    between atoms: C_4  and  O_6
REMARK    4  A    between atoms: O_6  and  C_7
REMARK    5  A    between atoms: C_7  and  C_8
REMARK    6  A    between atoms: C_8  and  C_10
REMARK    7  A    between atoms: C_10  and  O_11
REMARK    8  A    between atoms: O_11  and  C_12
REMARK    9  A    between atoms: C_12  and  C_14
REMARK                            x       y       z     vdW  Elec       q    Type
REMARK                         _______ _______ _______ _____ _____    ______ ____
ROOT
ATOM      1  C   UNL     1      -6.215  19.211  67.978  0.00  0.00    +0.193 C 
ATOM      2  C   UNL     1      -6.959  17.990  67.527  0.00  0.00    +0.043 C 
ATOM      3  C   UNL     1      -8.167  18.121  68.624  0.00  0.00    +0.004 C 
ATOM      4  C   UNL     1      -9.234  17.160  67.691  0.00  0.00    +0.003 C 
ATOM      5  C   UNL     1      -8.480  15.730  68.184  0.00  0.00    +0.038 C 
ATOM      6  C   UNL     1      -7.417  15.782  66.819  0.00  0.00    +0.153 C 
ATOM      7  O   UNL     1      -6.719  14.481  67.252  0.00  0.00    -0.223 OA
ATOM      8  C   UNL     1      -9.547  14.786  67.441  0.00  0.00    +0.036 C 
ATOM      9  C   UNL     1     -10.791  14.792  68.234  0.00  0.00    -0.038 C 
ATOM     10  C   UNL     1     -11.606  13.747  68.081  0.00  0.00    +0.034 C 
ATOM     11  C   UNL     1     -11.220  12.641  67.195  0.00  0.00    +0.195 C 
ATOM     12  C   UNL     1      -9.785  12.481  66.935  0.00  0.00    +0.038 C 
ATOM     13  O   UNL     1     -12.060  11.786  66.784  0.00  0.00    -0.287 OA
ATOM     14  C   UNL     1     -11.394  16.137  68.492  0.00  0.00    +0.022 C 
ATOM     15  C   UNL     1      -9.784  15.278  66.069  0.00  0.00    +0.009 C 
ATOM     16  C   UNL     1      -9.000  13.403  67.449  0.00  0.00    -0.020 C 
ATOM     17  C   UNL     1     -10.303  17.091  68.906  0.00  0.00    +0.004 C 
ATOM     18  C   UNL     1      -8.634  19.522  67.903  0.00  0.00    +0.004 C 
ATOM     19  C   UNL     1      -7.533  18.312  66.194  0.00  0.00    +0.004 C 
ATOM     20  C   UNL     1      -6.314  16.692  67.693  0.00  0.00    +0.037 C 
ATOM     21  C   UNL     1      -7.290  20.247  67.843  0.00  0.00    +0.048 C 
ENDROOT
BRANCH   1  22
ATOM     22  C   UNL     1      -5.628  19.106  69.323  0.00  0.00    +0.230 C 
ATOM     23  O   UNL     1      -4.534  18.559  69.468  0.00  0.00    -0.288 OA
BRANCH  22  24
ATOM     24  C   UNL     1      -5.911  20.125  70.388  0.00  0.00    +0.276 C 
BRANCH  24  25
ATOM     25  O   UNL     1      -5.133  21.283  70.091  0.00  0.00    -0.440 OA
BRANCH  25  26
ATOM     26  C   UNL     1      -4.120  21.573  71.012  0.00  0.00    +0.317 C 
ATOM     27  O   UNL     1      -4.434  21.871  72.203  0.00  0.00    -0.250 OA
BRANCH  26  28
ATOM     28  C   UNL     1      -2.741  21.212  70.632  0.00  0.00    +0.110 C 
ATOM     29  C   UNL     1      -1.980  20.620  71.792  0.00  0.00    +0.012 C 
ENDBRANCH  26  28
ENDBRANCH  25  26
ENDBRANCH  24  25
ENDBRANCH  22  24
ENDBRANCH   1  22
BRANCH   1  30
ATOM     30  O   UNL     1      -5.152  19.351  67.053  0.00  0.00    -0.418 OA
BRANCH  30  31
ATOM     31  C   UNL     1      -4.771  20.536  66.479  0.00  0.00    +0.512 C 
ATOM     32  O   UNL     1      -3.944  21.224  67.132  0.00  0.00    -0.203 OA
BRANCH  31  33
ATOM     33  O   UNL     1      -5.304  20.878  65.262  0.00  0.00    -0.418 OA
BRANCH  33  35
ATOM     34  C   UNL     1      -5.608  19.619  63.322  0.00  0.00    +0.051 C 
ATOM     35  C   UNL     1      -4.610  20.446  64.093  0.00  0.00    +0.212 C 
ENDBRANCH  33  35
ENDBRANCH  31  33
ENDBRANCH  30  31
ENDBRANCH   1  30
TORSDOF 9
ENDMDL
