MODEL 1
REMARK VINA RESULT:      -7.9      0.000      0.000
REMARK  Name = 
REMARK  7 active torsions:
REMARK  status: ('A' for Active; 'I' for Inactive)
REMARK    1  A    between atoms: C_4  and  N_5
REMARK    2  A    between atoms: N_12  and  C_13
REMARK    3  A    between atoms: C_18  and  S_19
REMARK    4  A    between atoms: S_19  and  C_22
REMARK    5  A    between atoms: C_26  and  O_27
REMARK    6  A    between atoms: O_27  and  C_28
REMARK    7  A    between atoms: C_32  and  C_33
REMARK                            x       y       z     vdW  Elec       q    Type
REMARK                         _______ _______ _______ _____ _____    ______ ____
ROOT
ATOM      1  N   UNL     1     -11.055  17.034  68.578  0.00  0.00    -0.175 NA
ATOM      2  C   UNL     1      -9.667  17.040  68.223  0.00  0.00    +0.242 A 
ATOM      3  N   UNL     1      -8.906  18.102  68.583  0.00  0.00    -0.194 NA
ATOM      4  C   UNL     1      -7.607  17.898  68.906  0.00  0.00    +0.167 A 
ATOM      5  N   UNL     1      -6.679  18.979  69.051  0.00  0.00    -0.192 NA
ATOM      6  C   UNL     1      -7.062  16.622  68.975  0.00  0.00    +0.110 A 
ATOM      7 CL   UNL     1      -5.889  16.293  70.245  0.00  0.00    -0.078 Cl
ATOM      8  C   UNL     1      -7.779  15.609  68.355  0.00  0.00    +0.116 A 
ATOM      9  N   UNL     1      -9.019  15.899  67.891  0.00  0.00    -0.210 NA
ENDROOT
BRANCH   1  15
ATOM     10  C   UNL     1     -12.048  12.953  66.049  0.00  0.00    +0.031 C 
ATOM     11  C   UNL     1     -11.783  13.668  67.335  0.00  0.00    -0.024 A 
ATOM     12  C   UNL     1     -11.688  13.001  68.536  0.00  0.00    -0.023 A 
ATOM     13  C   UNL     1     -11.947  13.714  69.685  0.00  0.00    +0.034 A 
ATOM     14  C   UNL     1     -12.026  15.101  69.640  0.00  0.00    +0.153 A 
ATOM     15  C   UNL     1     -11.805  15.817  68.470  0.00  0.00    +0.107 A 
ATOM     16  C   UNL     1     -11.686  15.053  67.318  0.00  0.00    +0.015 A 
BRANCH  12  17
ATOM     17  C   UNL     1     -11.310  11.577  68.521  0.00  0.00    +0.025 C 
ATOM     18  C   UNL     1      -9.894  11.320  68.178  0.00  0.00    +0.023 C 
ATOM     19  C   UNL     1      -9.135  10.458  69.135  0.00  0.00    +0.089 C 
ATOM     20  N   UNL     1      -9.957   9.273  69.371  0.00  0.00    -0.218 NA
ATOM     21  C   UNL     1     -11.042   9.725  70.215  0.00  0.00    +0.089 C 
ATOM     22  C   UNL     1     -11.911  10.758  69.594  0.00  0.00    +0.023 C 
ENDBRANCH  12  17
BRANCH  14  23
ATOM     23  O   UNL     1     -12.486  15.837  70.727  0.00  0.00    -0.478 OA
BRANCH  23  24
ATOM     24  C   UNL     1     -13.070  15.120  71.811  0.00  0.00    +0.166 C 
ATOM     25  C   UNL     1     -14.592  15.180  71.750  0.00  0.00    +0.047 C 
ATOM     26  C   UNL     1     -12.624  15.799  73.088  0.00  0.00    +0.047 C 
ENDBRANCH  23  24
ENDBRANCH  14  23
ENDBRANCH   1  15
BRANCH   5  27
ATOM     27  C   UNL     1      -5.592  19.175  68.143  0.00  0.00    +0.089 A 
ATOM     28  C   UNL     1      -4.314  19.158  68.686  0.00  0.00    +0.121 A 
ATOM     29  C   UNL     1      -3.254  18.857  67.841  0.00  0.00    +0.020 A 
ATOM     30  C   UNL     1      -3.427  18.608  66.494  0.00  0.00    +0.001 A 
ATOM     31  C   UNL     1      -4.637  18.970  65.917  0.00  0.00    +0.001 A 
ATOM     32  C   UNL     1      -5.726  19.040  66.776  0.00  0.00    +0.018 A 
BRANCH  28  33
ATOM     33  S   UNL     1      -4.045  19.970  70.199  0.00  0.00    +0.008 S 
ATOM     34  O   UNL     1      -4.893  21.222  70.224  0.00  0.00    -0.169 OA
ATOM     35  O   UNL     1      -4.467  19.142  71.372  0.00  0.00    -0.169 OA
BRANCH  33  36
ATOM     36  C   UNL     1      -2.345  20.427  70.396  0.00  0.00    +0.134 C 
ATOM     37  C   UNL     1      -1.946  21.562  69.495  0.00  0.00    +0.026 C 
ATOM     38  C   UNL     1      -2.007  20.777  71.823  0.00  0.00    +0.026 C 
ENDBRANCH  33  36
ENDBRANCH  28  33
ENDBRANCH   5  27
TORSDOF 7
ENDMDL
MODEL 2
REMARK VINA RESULT:      -7.8      1.362      1.644
REMARK  Name = 
REMARK  7 active torsions:
REMARK  status: ('A' for Active; 'I' for Inactive)
REMARK    1  A    between atoms: C_4  and  N_5
REMARK    2  A    between atoms: N_12  and  C_13
REMARK    3  A    between atoms: C_18  and  S_19
REMARK    4  A    between atoms: S_19  and  C_22
REMARK    5  A    between atoms: C_26  and  O_27
REMARK    6  A    between atoms: O_27  and  C_28
REMARK    7  A    between atoms: C_32  and  C_33
REMARK                            x       y       z     vdW  Elec       q    Type
REMARK                         _______ _______ _______ _____ _____    ______ ____
ROOT
ATOM      1  N   UNL     1     -11.394  16.179  68.720  0.00  0.00    -0.175 NA
ATOM      2  C   UNL     1     -10.187  16.622  68.089  0.00  0.00    +0.242 A 
ATOM      3  N   UNL     1      -9.547  17.705  68.594  0.00  0.00    -0.194 NA
ATOM      4  C   UNL     1      -8.194  17.751  68.540  0.00  0.00    +0.167 A 
ATOM      5  N   UNL     1      -7.462  18.951  68.815  0.00  0.00    -0.192 NA
ATOM      6  C   UNL     1      -7.443  16.679  68.076  0.00  0.00    +0.110 A 
ATOM      7 CL   UNL     1      -5.920  16.328  68.883  0.00  0.00    -0.078 Cl
ATOM      8  C   UNL     1      -8.124  15.721  67.338  0.00  0.00    +0.116 A 
ATOM      9  N   UNL     1      -9.475  15.806  67.276  0.00  0.00    -0.210 NA
ENDROOT
BRANCH   1  15
ATOM     10  C   UNL     1     -12.443  12.836  65.290  0.00  0.00    +0.031 C 
ATOM     11  C   UNL     1     -11.906  13.214  66.634  0.00  0.00    -0.024 A 
ATOM     12  C   UNL     1     -11.325  12.292  67.474  0.00  0.00    -0.023 A 
ATOM     13  C   UNL     1     -11.320  12.569  68.823  0.00  0.00    +0.034 A 
ATOM     14  C   UNL     1     -11.640  13.845  69.271  0.00  0.00    +0.153 A 
ATOM     15  C   UNL     1     -11.926  14.887  68.397  0.00  0.00    +0.107 A 
ATOM     16  C   UNL     1     -12.053  14.526  67.063  0.00  0.00    +0.015 A 
BRANCH  12  17
ATOM     17  C   UNL     1     -10.739  11.075  66.885  0.00  0.00    +0.025 C 
ATOM     18  C   UNL     1      -9.409  11.270  66.267  0.00  0.00    +0.023 C 
ATOM     19  C   UNL     1      -8.334  10.335  66.719  0.00  0.00    +0.089 C 
ATOM     20  N   UNL     1      -8.888   8.986  66.625  0.00  0.00    -0.218 NA
ATOM     21  C   UNL     1      -9.820   8.879  67.725  0.00  0.00    +0.089 C 
ATOM     22  C   UNL     1     -10.956   9.835  67.660  0.00  0.00    +0.023 C 
ENDBRANCH  12  17
BRANCH  14  23
ATOM     23  O   UNL     1     -11.847  14.109  70.621  0.00  0.00    -0.478 OA
BRANCH  23  24
ATOM     24  C   UNL     1     -13.192  14.203  71.077  0.00  0.00    +0.166 C 
ATOM     25  C   UNL     1     -13.432  15.519  71.808  0.00  0.00    +0.047 C 
ATOM     26  C   UNL     1     -13.412  13.074  72.060  0.00  0.00    +0.047 C 
ENDBRANCH  23  24
ENDBRANCH  14  23
ENDBRANCH   1  15
BRANCH   5  27
ATOM     27  C   UNL     1      -6.728  19.643  67.802  0.00  0.00    +0.089 A 
ATOM     28  C   UNL     1      -5.349  19.698  67.957  0.00  0.00    +0.121 A 
ATOM     29  C   UNL     1      -4.576  19.904  66.823  0.00  0.00    +0.020 A 
ATOM     30  C   UNL     1      -5.129  20.083  65.570  0.00  0.00    +0.001 A 
ATOM     31  C   UNL     1      -6.486  20.372  65.496  0.00  0.00    +0.001 A 
ATOM     32  C   UNL     1      -7.262  19.942  66.564  0.00  0.00    +0.018 A 
BRANCH  28  33
ATOM     33  S   UNL     1      -4.705  20.003  69.542  0.00  0.00    +0.008 S 
ATOM     34  O   UNL     1      -5.335  21.271  70.075  0.00  0.00    -0.169 OA
ATOM     35  O   UNL     1      -5.043  18.915  70.513  0.00  0.00    -0.169 OA
BRANCH  33  36
ATOM     36  C   UNL     1      -2.947  20.214  69.498  0.00  0.00    +0.134 C 
ATOM     37  C   UNL     1      -2.470  21.276  70.449  0.00  0.00    +0.026 C 
ATOM     38  C   UNL     1      -2.208  18.927  69.770  0.00  0.00    +0.026 C 
ENDBRANCH  33  36
ENDBRANCH  28  33
ENDBRANCH   5  27
TORSDOF 7
ENDMDL
MODEL 3
REMARK VINA RESULT:      -7.5      4.616      8.162
REMARK  Name = 
REMARK  7 active torsions:
REMARK  status: ('A' for Active; 'I' for Inactive)
REMARK    1  A    between atoms: C_4  and  N_5
REMARK    2  A    between atoms: N_12  and  C_13
REMARK    3  A    between atoms: C_18  and  S_19
REMARK    4  A    between atoms: S_19  and  C_22
REMARK    5  A    between atoms: C_26  and  O_27
REMARK    6  A    between atoms: O_27  and  C_28
REMARK    7  A    between atoms: C_32  and  C_33
REMARK                            x       y       z     vdW  Elec       q    Type
REMARK                         _______ _______ _______ _____ _____    ______ ____
ROOT
ATOM      1  N   UNL     1     -10.417   9.055  70.499  0.00  0.00    -0.175 NA
ATOM      2  C   UNL     1     -10.660   9.788  69.293  0.00  0.00    +0.242 A 
ATOM      3  N   UNL     1     -10.376  11.113  69.266  0.00  0.00    -0.194 NA
ATOM      4  C   UNL     1      -9.928  11.664  68.112  0.00  0.00    +0.167 A 
ATOM      5  N   UNL     1      -9.846  13.082  67.927  0.00  0.00    -0.192 NA
ATOM      6  C   UNL     1      -9.658  10.892  66.989  0.00  0.00    +0.110 A 
ATOM      7 CL   UNL     1      -8.268  11.330  66.003  0.00  0.00    -0.078 Cl
ATOM      8  C   UNL     1     -10.202   9.616  66.970  0.00  0.00    +0.116 A 
ATOM      9  N   UNL     1     -10.795   9.160  68.100  0.00  0.00    -0.210 NA
ENDROOT
BRANCH   1  15
ATOM     10  C   UNL     1      -7.900   4.852  70.661  0.00  0.00    +0.031 C 
ATOM     11  C   UNL     1      -9.068   5.698  71.055  0.00  0.00    -0.024 A 
ATOM     12  C   UNL     1     -10.016   5.262  71.953  0.00  0.00    -0.023 A 
ATOM     13  C   UNL     1     -11.268   5.832  71.888  0.00  0.00    +0.034 A 
ATOM     14  C   UNL     1     -11.470   6.983  71.136  0.00  0.00    +0.153 A 
ATOM     15  C   UNL     1     -10.432   7.622  70.469  0.00  0.00    +0.107 A 
ATOM     16  C   UNL     1      -9.225   6.937  70.450  0.00  0.00    +0.015 A 
BRANCH  12  17
ATOM     17  C   UNL     1      -9.636   4.224  72.928  0.00  0.00    +0.025 C 
ATOM     18  C   UNL     1      -9.356   4.733  74.289  0.00  0.00    +0.023 C 
ATOM     19  C   UNL     1     -10.094   4.064  75.403  0.00  0.00    +0.089 C 
ATOM     20  N   UNL     1      -9.920   2.625  75.213  0.00  0.00    -0.218 NA
ATOM     21  C   UNL     1     -10.762   2.285  74.087  0.00  0.00    +0.089 C 
ATOM     22  C   UNL     1     -10.383   2.954  72.816  0.00  0.00    +0.023 C 
ENDBRANCH  12  17
BRANCH  14  23
ATOM     23  O   UNL     1     -12.748   7.466  70.879  0.00  0.00    -0.478 OA
BRANCH  23  24
ATOM     24  C   UNL     1     -13.540   7.866  71.994  0.00  0.00    +0.166 C 
ATOM     25  C   UNL     1     -14.991   7.435  71.817  0.00  0.00    +0.047 C 
ATOM     26  C   UNL     1     -13.503   9.378  72.049  0.00  0.00    +0.047 C 
ENDBRANCH  23  24
ENDBRANCH  14  23
ENDBRANCH   1  15
BRANCH   5  27
ATOM     27  C   UNL     1     -10.683  13.777  66.999  0.00  0.00    +0.089 A 
ATOM     28  C   UNL     1     -10.052  14.650  66.121  0.00  0.00    +0.121 A 
ATOM     29  C   UNL     1     -10.702  14.958  64.934  0.00  0.00    +0.020 A 
ATOM     30  C   UNL     1     -11.949  14.455  64.618  0.00  0.00    +0.001 A 
ATOM     31  C   UNL     1     -12.696  13.884  65.640  0.00  0.00    +0.001 A 
ATOM     32  C   UNL     1     -11.976  13.383  66.717  0.00  0.00    +0.018 A 
BRANCH  28  33
ATOM     33  S   UNL     1      -8.783  15.667  66.733  0.00  0.00    +0.008 S 
ATOM     34  O   UNL     1      -7.584  14.797  67.041  0.00  0.00    -0.169 OA
ATOM     35  O   UNL     1      -8.332  16.681  65.729  0.00  0.00    -0.169 OA
BRANCH  33  36
ATOM     36  C   UNL     1      -9.278  16.501  68.215  0.00  0.00    +0.134 C 
ATOM     37  C   UNL     1      -8.261  17.506  68.678  0.00  0.00    +0.026 C 
ATOM     38  C   UNL     1     -10.621  17.173  68.073  0.00  0.00    +0.026 C 
ENDBRANCH  33  36
ENDBRANCH  28  33
ENDBRANCH   5  27
TORSDOF 7
ENDMDL
MODEL 4
REMARK VINA RESULT:      -7.4      2.072      2.603
REMARK  Name = 
REMARK  7 active torsions:
REMARK  status: ('A' for Active; 'I' for Inactive)
REMARK    1  A    between atoms: C_4  and  N_5
REMARK    2  A    between atoms: N_12  and  C_13
REMARK    3  A    between atoms: C_18  and  S_19
REMARK    4  A    between atoms: S_19  and  C_22
REMARK    5  A    between atoms: C_26  and  O_27
REMARK    6  A    between atoms: O_27  and  C_28
REMARK    7  A    between atoms: C_32  and  C_33
REMARK                            x       y       z     vdW  Elec       q    Type
REMARK                         _______ _______ _______ _____ _____    ______ ____
ROOT
ATOM      1  N   UNL     1     -11.218  15.839  65.681  0.00  0.00    -0.175 NA
ATOM      2  C   UNL     1      -9.811  16.084  65.787  0.00  0.00    +0.242 A 
ATOM      3  N   UNL     1      -9.383  17.354  65.988  0.00  0.00    -0.194 NA
ATOM      4  C   UNL     1      -8.277  17.562  66.742  0.00  0.00    +0.167 A 
ATOM      5  N   UNL     1      -7.620  18.833  66.795  0.00  0.00    -0.192 NA
ATOM      6  C   UNL     1      -7.631  16.520  67.395  0.00  0.00    +0.110 A 
ATOM      7 CL   UNL     1      -6.972  16.834  68.996  0.00  0.00    -0.078 Cl
ATOM      8  C   UNL     1      -7.929  15.237  66.960  0.00  0.00    +0.116 A 
ATOM      9  N   UNL     1      -8.940  15.086  66.070  0.00  0.00    -0.210 NA
ENDROOT
BRANCH   1  15
ATOM     10  C   UNL     1     -11.589  11.403  63.624  0.00  0.00    +0.031 C 
ATOM     11  C   UNL     1     -11.353  12.285  64.809  0.00  0.00    -0.024 A 
ATOM     12  C   UNL     1     -11.005  11.777  66.040  0.00  0.00    -0.023 A 
ATOM     13  C   UNL     1     -11.291  12.540  67.150  0.00  0.00    +0.034 A 
ATOM     14  C   UNL     1     -11.659  13.872  67.003  0.00  0.00    +0.153 A 
ATOM     15  C   UNL     1     -11.707  14.493  65.760  0.00  0.00    +0.107 A 
ATOM     16  C   UNL     1     -11.547  13.653  64.668  0.00  0.00    +0.015 A 
BRANCH  12  17
ATOM     17  C   UNL     1     -10.344  10.462  66.097  0.00  0.00    +0.025 C 
ATOM     18  C   UNL     1      -8.918  10.472  65.702  0.00  0.00    +0.023 C 
ATOM     19  C   UNL     1      -7.966   9.852  66.674  0.00  0.00    +0.089 C 
ATOM     20  N   UNL     1      -8.519   8.545  67.024  0.00  0.00    -0.218 NA
ATOM     21  C   UNL     1      -9.644   8.828  67.889  0.00  0.00    +0.089 C 
ATOM     22  C   UNL     1     -10.727   9.616  67.247  0.00  0.00    +0.023 C 
ENDBRANCH  12  17
BRANCH  14  23
ATOM     23  O   UNL     1     -12.153  14.611  68.073  0.00  0.00    -0.478 OA
BRANCH  23  24
ATOM     24  C   UNL     1     -11.340  14.712  69.237  0.00  0.00    +0.166 C 
ATOM     25  C   UNL     1     -12.108  14.281  70.481  0.00  0.00    +0.047 C 
ATOM     26  C   UNL     1     -10.967  16.170  69.397  0.00  0.00    +0.047 C 
ENDBRANCH  23  24
ENDBRANCH  14  23
ENDBRANCH   1  15
BRANCH   5  27
ATOM     27  C   UNL     1      -6.312  19.036  66.252  0.00  0.00    +0.089 A 
ATOM     28  C   UNL     1      -5.287  19.262  67.162  0.00  0.00    +0.121 A 
ATOM     29  C   UNL     1      -3.989  18.982  66.758  0.00  0.00    +0.020 A 
ATOM     30  C   UNL     1      -3.688  18.524  65.491  0.00  0.00    +0.001 A 
ATOM     31  C   UNL     1      -4.665  18.641  64.510  0.00  0.00    +0.001 A 
ATOM     32  C   UNL     1      -5.978  18.692  64.958  0.00  0.00    +0.018 A 
BRANCH  28  33
ATOM     33  S   UNL     1      -5.594  20.308  68.515  0.00  0.00    +0.008 S 
ATOM     34  O   UNL     1      -5.866  21.700  67.987  0.00  0.00    -0.169 OA
ATOM     35  O   UNL     1      -6.808  19.898  69.288  0.00  0.00    -0.169 OA
BRANCH  33  36
ATOM     36  C   UNL     1      -4.205  20.375  69.611  0.00  0.00    +0.134 C 
ATOM     37  C   UNL     1      -4.364  21.420  70.680  0.00  0.00    +0.026 C 
ATOM     38  C   UNL     1      -3.916  19.041  70.253  0.00  0.00    +0.026 C 
ENDBRANCH  33  36
ENDBRANCH  28  33
ENDBRANCH   5  27
TORSDOF 7
ENDMDL
MODEL 5
REMARK VINA RESULT:      -7.3      1.616      2.566
REMARK  Name = 
REMARK  7 active torsions:
REMARK  status: ('A' for Active; 'I' for Inactive)
REMARK    1  A    between atoms: C_4  and  N_5
REMARK    2  A    between atoms: N_12  and  C_13
REMARK    3  A    between atoms: C_18  and  S_19
REMARK    4  A    between atoms: S_19  and  C_22
REMARK    5  A    between atoms: C_26  and  O_27
REMARK    6  A    between atoms: O_27  and  C_28
REMARK    7  A    between atoms: C_32  and  C_33
REMARK                            x       y       z     vdW  Elec       q    Type
REMARK                         _______ _______ _______ _____ _____    ______ ____
ROOT
ATOM      1  N   UNL     1     -10.609  16.855  68.672  0.00  0.00    -0.175 NA
ATOM      2  C   UNL     1      -9.220  16.690  68.362  0.00  0.00    +0.242 A 
ATOM      3  N   UNL     1      -8.348  17.655  68.741  0.00  0.00    -0.194 NA
ATOM      4  C   UNL     1      -7.093  17.298  69.107  0.00  0.00    +0.167 A 
ATOM      5  N   UNL     1      -6.046  18.260  69.276  0.00  0.00    -0.192 NA
ATOM      6  C   UNL     1      -6.710  15.965  69.200  0.00  0.00    +0.110 A 
ATOM      7 CL   UNL     1      -5.627  15.509  70.509  0.00  0.00    -0.078 Cl
ATOM      8  C   UNL     1      -7.525  15.041  68.562  0.00  0.00    +0.116 A 
ATOM      9  N   UNL     1      -8.705  15.475  68.057  0.00  0.00    -0.210 NA
ENDROOT
BRANCH   1  15
ATOM     10  C   UNL     1     -11.970  12.865  66.170  0.00  0.00    +0.031 C 
ATOM     11  C   UNL     1     -11.684  13.574  67.455  0.00  0.00    -0.024 A 
ATOM     12  C   UNL     1     -11.734  12.931  68.671  0.00  0.00    -0.023 A 
ATOM     13  C   UNL     1     -11.961  13.699  69.792  0.00  0.00    +0.034 A 
ATOM     14  C   UNL     1     -11.865  15.083  69.717  0.00  0.00    +0.153 A 
ATOM     15  C   UNL     1     -11.498  15.737  68.547  0.00  0.00    +0.107 A 
ATOM     16  C   UNL     1     -11.416  14.936  67.417  0.00  0.00    +0.015 A 
BRANCH  12  17
ATOM     17  C   UNL     1     -11.535  11.471  68.703  0.00  0.00    +0.025 C 
ATOM     18  C   UNL     1     -10.170  11.028  68.343  0.00  0.00    +0.023 C 
ATOM     19  C   UNL     1      -9.500  10.113  69.317  0.00  0.00    +0.089 C 
ATOM     20  N   UNL     1     -10.457   9.048  69.614  0.00  0.00    -0.218 NA
ATOM     21  C   UNL     1     -11.457   9.661  70.461  0.00  0.00    +0.089 C 
ATOM     22  C   UNL     1     -12.207  10.771  69.817  0.00  0.00    +0.023 C 
ENDBRANCH  12  17
BRANCH  14  23
ATOM     23  O   UNL     1     -12.285  15.897  70.763  0.00  0.00    -0.478 OA
BRANCH  23  24
ATOM     24  C   UNL     1     -12.837  15.263  71.913  0.00  0.00    +0.166 C 
ATOM     25  C   UNL     1     -14.360  15.311  71.887  0.00  0.00    +0.047 C 
ATOM     26  C   UNL     1     -12.363  16.039  73.123  0.00  0.00    +0.047 C 
ENDBRANCH  23  24
ENDBRANCH  14  23
ENDBRANCH   1  15
BRANCH   5  27
ATOM     27  C   UNL     1      -4.916  18.314  68.402  0.00  0.00    +0.089 A 
ATOM     28  C   UNL     1      -4.640  19.541  67.813  0.00  0.00    +0.121 A 
ATOM     29  C   UNL     1      -3.342  19.774  67.377  0.00  0.00    +0.020 A 
ATOM     30  C   UNL     1      -2.343  18.828  67.483  0.00  0.00    +0.001 A 
ATOM     31  C   UNL     1      -2.717  17.515  67.742  0.00  0.00    +0.001 A 
ATOM     32  C   UNL     1      -3.934  17.343  68.388  0.00  0.00    +0.018 A 
BRANCH  28  33
ATOM     33  S   UNL     1      -5.966  20.489  67.212  0.00  0.00    +0.008 S 
ATOM     34  O   UNL     1      -6.915  20.759  68.358  0.00  0.00    -0.169 OA
ATOM     35  O   UNL     1      -5.526  21.823  66.696  0.00  0.00    -0.169 OA
BRANCH  33  36
ATOM     36  C   UNL     1      -6.845  19.636  65.933  0.00  0.00    +0.134 C 
ATOM     37  C   UNL     1      -8.334  19.816  66.037  0.00  0.00    +0.026 C 
ATOM     38  C   UNL     1      -6.386  20.039  64.554  0.00  0.00    +0.026 C 
ENDBRANCH  33  36
ENDBRANCH  28  33
ENDBRANCH   5  27
TORSDOF 7
ENDMDL
MODEL 6
REMARK VINA RESULT:      -7.2      3.030      4.595
REMARK  Name = 
REMARK  7 active torsions:
REMARK  status: ('A' for Active; 'I' for Inactive)
REMARK    1  A    between atoms: C_4  and  N_5
REMARK    2  A    between atoms: N_12  and  C_13
REMARK    3  A    between atoms: C_18  and  S_19
REMARK    4  A    between atoms: S_19  and  C_22
REMARK    5  A    between atoms: C_26  and  O_27
REMARK    6  A    between atoms: O_27  and  C_28
REMARK    7  A    between atoms: C_32  and  C_33
REMARK                            x       y       z     vdW  Elec       q    Type
REMARK                         _______ _______ _______ _____ _____    ______ ____
ROOT
ATOM      1  N   UNL     1     -10.869  13.704  66.679  0.00  0.00    -0.175 NA
ATOM      2  C   UNL     1      -9.542  14.196  66.902  0.00  0.00    +0.242 A 
ATOM      3  N   UNL     1      -9.384  15.371  67.558  0.00  0.00    -0.194 NA
ATOM      4  C   UNL     1      -8.306  15.533  68.364  0.00  0.00    +0.167 A 
ATOM      5  N   UNL     1      -7.932  16.812  68.888  0.00  0.00    -0.192 NA
ATOM      6  C   UNL     1      -7.418  14.494  68.614  0.00  0.00    +0.110 A 
ATOM      7 CL   UNL     1      -6.752  14.351  70.236  0.00  0.00    -0.078 Cl
ATOM      8  C   UNL     1      -7.460  13.419  67.738  0.00  0.00    +0.116 A 
ATOM      9  N   UNL     1      -8.464  13.379  66.828  0.00  0.00    -0.210 NA
ENDROOT
BRANCH   1  15
ATOM     10  C   UNL     1      -9.687  10.100  63.573  0.00  0.00    +0.031 C 
ATOM     11  C   UNL     1      -9.982  10.601  64.951  0.00  0.00    -0.024 A 
ATOM     12  C   UNL     1      -9.882   9.791  66.059  0.00  0.00    -0.023 A 
ATOM     13  C   UNL     1     -10.620  10.134  67.170  0.00  0.00    +0.034 A 
ATOM     14  C   UNL     1     -11.215  11.388  67.250  0.00  0.00    +0.153 A 
ATOM     15  C   UNL     1     -11.056  12.347  66.256  0.00  0.00    +0.107 A 
ATOM     16  C   UNL     1     -10.423  11.908  65.101  0.00  0.00    +0.015 A 
BRANCH  12  17
ATOM     17  C   UNL     1      -8.992   8.618  65.996  0.00  0.00    +0.025 C 
ATOM     18  C   UNL     1      -7.578   8.902  66.326  0.00  0.00    +0.023 C 
ATOM     19  C   UNL     1      -6.963   8.032  67.375  0.00  0.00    +0.089 C 
ATOM     20  N   UNL     1      -7.265   6.651  67.001  0.00  0.00    -0.218 NA
ATOM     21  C   UNL     1      -8.671   6.477  67.293  0.00  0.00    +0.089 C 
ATOM     22  C   UNL     1      -9.573   7.361  66.510  0.00  0.00    +0.023 C 
ENDBRANCH  12  17
BRANCH  14  23
ATOM     23  O   UNL     1     -12.131  11.694  68.250  0.00  0.00    -0.478 OA
BRANCH  23  24
ATOM     24  C   UNL     1     -11.637  11.834  69.579  0.00  0.00    +0.166 C 
ATOM     25  C   UNL     1     -12.265  10.802  70.508  0.00  0.00    +0.047 C 
ATOM     26  C   UNL     1     -12.040  13.210  70.063  0.00  0.00    +0.047 C 
ENDBRANCH  23  24
ENDBRANCH  14  23
ENDBRANCH   1  15
BRANCH   5  27
ATOM     27  C   UNL     1      -6.730  17.475  68.488  0.00  0.00    +0.089 A 
ATOM     28  C   UNL     1      -6.876  18.624  67.722  0.00  0.00    +0.121 A 
ATOM     29  C   UNL     1      -5.835  19.541  67.724  0.00  0.00    +0.020 A 
ATOM     30  C   UNL     1      -4.665  19.335  68.428  0.00  0.00    +0.001 A 
ATOM     31  C   UNL     1      -4.403  18.051  68.889  0.00  0.00    +0.001 A 
ATOM     32  C   UNL     1      -5.509  17.235  69.087  0.00  0.00    +0.018 A 
BRANCH  28  33
ATOM     33  S   UNL     1      -8.069  18.631  66.458  0.00  0.00    +0.008 S 
ATOM     34  O   UNL     1      -7.739  19.755  65.500  0.00  0.00    -0.169 OA
ATOM     35  O   UNL     1      -8.058  17.368  65.656  0.00  0.00    -0.169 OA
BRANCH  33  36
ATOM     36  C   UNL     1      -9.697  18.892  67.104  0.00  0.00    +0.134 C 
ATOM     37  C   UNL     1      -9.698  19.757  68.334  0.00  0.00    +0.026 C 
ATOM     38  C   UNL     1     -10.635  19.476  66.078  0.00  0.00    +0.026 C 
ENDBRANCH  33  36
ENDBRANCH  28  33
ENDBRANCH   5  27
TORSDOF 7
ENDMDL
MODEL 7
REMARK VINA RESULT:      -7.1      2.701      3.848
REMARK  Name = 
REMARK  7 active torsions:
REMARK  status: ('A' for Active; 'I' for Inactive)
REMARK    1  A    between atoms: C_4  and  N_5
REMARK    2  A    between atoms: N_12  and  C_13
REMARK    3  A    between atoms: C_18  and  S_19
REMARK    4  A    between atoms: S_19  and  C_22
REMARK    5  A    between atoms: C_26  and  O_27
REMARK    6  A    between atoms: O_27  and  C_28
REMARK    7  A    between atoms: C_32  and  C_33
REMARK                            x       y       z     vdW  Elec       q    Type
REMARK                         _______ _______ _______ _____ _____    ______ ____
ROOT
ATOM      1  N   UNL     1     -10.158  16.530  65.617  0.00  0.00    -0.175 NA
ATOM      2  C   UNL     1      -8.764  16.587  65.944  0.00  0.00    +0.242 A 
ATOM      3  N   UNL     1      -8.174  17.800  66.075  0.00  0.00    -0.194 NA
ATOM      4  C   UNL     1      -7.183  17.951  66.985  0.00  0.00    +0.167 A 
ATOM      5  N   UNL     1      -6.345  19.112  67.013  0.00  0.00    -0.192 NA
ATOM      6  C   UNL     1      -6.825  16.928  67.855  0.00  0.00    +0.110 A 
ATOM      7 CL   UNL     1      -6.387  17.362  69.503  0.00  0.00    -0.078 Cl
ATOM      8  C   UNL     1      -7.255  15.652  67.519  0.00  0.00    +0.116 A 
ATOM      9  N   UNL     1      -8.123  15.525  66.486  0.00  0.00    -0.210 NA
ENDROOT
BRANCH   1  15
ATOM     10  C   UNL     1     -10.965  11.977  63.986  0.00  0.00    +0.031 C 
ATOM     11  C   UNL     1     -10.749  12.954  65.097  0.00  0.00    -0.024 A 
ATOM     12  C   UNL     1     -10.656  12.557  66.412  0.00  0.00    -0.023 A 
ATOM     13  C   UNL     1     -10.960  13.484  67.384  0.00  0.00    +0.034 A 
ATOM     14  C   UNL     1     -11.084  14.827  67.049  0.00  0.00    +0.153 A 
ATOM     15  C   UNL     1     -10.865  15.290  65.757  0.00  0.00    +0.107 A 
ATOM     16  C   UNL     1     -10.699  14.307  64.792  0.00  0.00    +0.015 A 
BRANCH  12  17
ATOM     17  C   UNL     1     -10.231  11.175  66.700  0.00  0.00    +0.025 C 
ATOM     18  C   UNL     1      -8.770  11.003  66.864  0.00  0.00    +0.023 C 
ATOM     19  C   UNL     1      -8.329  10.314  68.115  0.00  0.00    +0.089 C 
ATOM     20  N   UNL     1      -9.129   9.096  68.224  0.00  0.00    -0.218 NA
ATOM     21  C   UNL     1     -10.450   9.542  68.612  0.00  0.00    +0.089 C 
ATOM     22  C   UNL     1     -11.113  10.426  67.619  0.00  0.00    +0.023 C 
ENDBRANCH  12  17
BRANCH  14  23
ATOM     23  O   UNL     1     -11.590  15.756  67.952  0.00  0.00    -0.478 OA
BRANCH  23  24
ATOM     24  C   UNL     1     -10.877  15.951  69.169  0.00  0.00    +0.166 C 
ATOM     25  C   UNL     1     -11.809  15.857  70.371  0.00  0.00    +0.047 C 
ATOM     26  C   UNL     1     -10.300  17.349  69.130  0.00  0.00    +0.047 C 
ENDBRANCH  23  24
ENDBRANCH  14  23
ENDBRANCH   1  15
BRANCH   5  27
ATOM     27  C   UNL     1      -4.953  19.053  66.693  0.00  0.00    +0.089 A 
ATOM     28  C   UNL     1      -4.508  19.897  65.684  0.00  0.00    +0.121 A 
ATOM     29  C   UNL     1      -3.161  20.234  65.667  0.00  0.00    +0.020 A 
ATOM     30  C   UNL     1      -2.261  19.740  66.590  0.00  0.00    +0.001 A 
ATOM     31  C   UNL     1      -2.649  18.647  67.354  0.00  0.00    +0.001 A 
ATOM     32  C   UNL     1      -4.017  18.479  67.530  0.00  0.00    +0.018 A 
BRANCH  28  33
ATOM     33  S   UNL     1      -5.490  20.080  64.262  0.00  0.00    +0.008 S 
ATOM     34  O   UNL     1      -5.893  18.702  63.783  0.00  0.00    -0.169 OA
ATOM     35  O   UNL     1      -6.757  20.826  64.537  0.00  0.00    -0.169 OA
BRANCH  33  36
ATOM     36  C   UNL     1      -4.606  20.899  62.964  0.00  0.00    +0.134 C 
ATOM     37  C   UNL     1      -3.895  19.936  62.054  0.00  0.00    +0.026 C 
ATOM     38  C   UNL     1      -5.495  21.801  62.146  0.00  0.00    +0.026 C 
ENDBRANCH  33  36
ENDBRANCH  28  33
ENDBRANCH   5  27
TORSDOF 7
ENDMDL
MODEL 8
REMARK VINA RESULT:      -7.1      5.173      9.872
REMARK  Name = 
REMARK  7 active torsions:
REMARK  status: ('A' for Active; 'I' for Inactive)
REMARK    1  A    between atoms: C_4  and  N_5
REMARK    2  A    between atoms: N_12  and  C_13
REMARK    3  A    between atoms: C_18  and  S_19
REMARK    4  A    between atoms: S_19  and  C_22
REMARK    5  A    between atoms: C_26  and  O_27
REMARK    6  A    between atoms: O_27  and  C_28
REMARK    7  A    between atoms: C_32  and  C_33
REMARK                            x       y       z     vdW  Elec       q    Type
REMARK                         _______ _______ _______ _____ _____    ______ ____
ROOT
ATOM      1  N   UNL     1     -12.071  11.402  68.345  0.00  0.00    -0.175 NA
ATOM      2  C   UNL     1     -10.802  10.804  68.637  0.00  0.00    +0.242 A 
ATOM      3  N   UNL     1     -10.677   9.459  68.540  0.00  0.00    -0.194 NA
ATOM      4  C   UNL     1      -9.497   8.938  68.126  0.00  0.00    +0.167 A 
ATOM      5  N   UNL     1      -9.201   7.541  68.236  0.00  0.00    -0.192 NA
ATOM      6  C   UNL     1      -8.449   9.745  67.703  0.00  0.00    +0.110 A 
ATOM      7 CL   UNL     1      -7.475   9.189  66.348  0.00  0.00    -0.078 Cl
ATOM      8  C   UNL     1      -8.516  11.084  68.061  0.00  0.00    +0.116 A 
ATOM      9  N   UNL     1      -9.661  11.533  68.632  0.00  0.00    -0.210 NA
ENDROOT
BRANCH   1  15
ATOM     10  C   UNL     1     -11.427  15.902  70.181  0.00  0.00    +0.031 C 
ATOM     11  C   UNL     1     -11.312  14.910  69.068  0.00  0.00    -0.024 A 
ATOM     12  C   UNL     1     -10.700  15.219  67.874  0.00  0.00    -0.023 A 
ATOM     13  C   UNL     1     -11.060  14.488  66.764  0.00  0.00    +0.034 A 
ATOM     14  C   UNL     1     -11.797  13.319  66.910  0.00  0.00    +0.153 A 
ATOM     15  C   UNL     1     -12.155  12.821  68.157  0.00  0.00    +0.107 A 
ATOM     16  C   UNL     1     -11.892  13.659  69.231  0.00  0.00    +0.015 A 
BRANCH  12  17
ATOM     17  C   UNL     1      -9.699  16.299  67.856  0.00  0.00    +0.025 C 
ATOM     18  C   UNL     1      -8.331  15.864  67.494  0.00  0.00    +0.023 C 
ATOM     19  C   UNL     1      -7.674  16.625  66.387  0.00  0.00    +0.089 C 
ATOM     20  N   UNL     1      -7.827  18.043  66.709  0.00  0.00    -0.218 NA
ATOM     21  C   UNL     1      -9.219  18.343  66.455  0.00  0.00    +0.089 C 
ATOM     22  C   UNL     1     -10.173  17.586  67.305  0.00  0.00    +0.023 C 
ENDBRANCH  12  17
BRANCH  14  23
ATOM     23  O   UNL     1     -12.352  12.670  65.812  0.00  0.00    -0.478 OA
BRANCH  23  24
ATOM     24  C   UNL     1     -11.517  12.457  64.678  0.00  0.00    +0.166 C 
ATOM     25  C   UNL     1     -12.345  12.114  63.445  0.00  0.00    +0.047 C 
ATOM     26  C   UNL     1     -10.630  11.272  64.993  0.00  0.00    +0.047 C 
ENDBRANCH  23  24
ENDBRANCH  14  23
ENDBRANCH   1  15
BRANCH   5  27
ATOM     27  C   UNL     1      -8.194   7.045  69.122  0.00  0.00    +0.089 A 
ATOM     28  C   UNL     1      -8.594   6.095  70.053  0.00  0.00    +0.121 A 
ATOM     29  C   UNL     1      -7.624   5.253  70.578  0.00  0.00    +0.020 A 
ATOM     30  C   UNL     1      -6.291   5.349  70.231  0.00  0.00    +0.001 A 
ATOM     31  C   UNL     1      -5.870   6.505  69.587  0.00  0.00    +0.001 A 
ATOM     32  C   UNL     1      -6.843   7.200  68.881  0.00  0.00    +0.018 A 
BRANCH  28  33
ATOM     33  S   UNL     1     -10.115   6.319  70.864  0.00  0.00    +0.008 S 
ATOM     34  O   UNL     1     -11.223   6.180  69.844  0.00  0.00    -0.169 OA
ATOM     35  O   UNL     1     -10.362   5.278  71.910  0.00  0.00    -0.169 OA
BRANCH  33  36
ATOM     36  C   UNL     1     -10.222   7.923  71.609  0.00  0.00    +0.134 C 
ATOM     37  C   UNL     1     -11.511   8.126  72.356  0.00  0.00    +0.026 C 
ATOM     38  C   UNL     1      -9.059   8.209  72.525  0.00  0.00    +0.026 C 
ENDBRANCH  33  36
ENDBRANCH  28  33
ENDBRANCH   5  27
TORSDOF 7
ENDMDL
MODEL 9
REMARK VINA RESULT:      -7.1      1.937      2.905
REMARK  Name = 
REMARK  7 active torsions:
REMARK  status: ('A' for Active; 'I' for Inactive)
REMARK    1  A    between atoms: C_4  and  N_5
REMARK    2  A    between atoms: N_12  and  C_13
REMARK    3  A    between atoms: C_18  and  S_19
REMARK    4  A    between atoms: S_19  and  C_22
REMARK    5  A    between atoms: C_26  and  O_27
REMARK    6  A    between atoms: O_27  and  C_28
REMARK    7  A    between atoms: C_32  and  C_33
REMARK                            x       y       z     vdW  Elec       q    Type
REMARK                         _______ _______ _______ _____ _____    ______ ____
ROOT
ATOM      1  N   UNL     1     -10.699  16.064  68.547  0.00  0.00    -0.175 NA
ATOM      2  C   UNL     1      -9.296  16.057  68.258  0.00  0.00    +0.242 A 
ATOM      3  N   UNL     1      -8.519  17.039  68.776  0.00  0.00    -0.194 NA
ATOM      4  C   UNL     1      -7.244  16.749  69.131  0.00  0.00    +0.167 A 
ATOM      5  N   UNL     1      -6.289  17.769  69.444  0.00  0.00    -0.192 NA
ATOM      6  C   UNL     1      -6.746  15.453  69.073  0.00  0.00    +0.110 A 
ATOM      7 CL   UNL     1      -5.650  14.933  70.348  0.00  0.00    -0.078 Cl
ATOM      8  C   UNL     1      -7.465  14.547  68.306  0.00  0.00    +0.116 A 
ATOM      9  N   UNL     1      -8.670  14.938  67.824  0.00  0.00    -0.210 NA
ENDROOT
BRANCH   1  15
ATOM     10  C   UNL     1     -12.414  12.898  65.220  0.00  0.00    +0.031 C 
ATOM     11  C   UNL     1     -11.809  13.201  66.554  0.00  0.00    -0.024 A 
ATOM     12  C   UNL     1     -11.426  12.207  67.426  0.00  0.00    -0.023 A 
ATOM     13  C   UNL     1     -11.362  12.521  68.765  0.00  0.00    +0.034 A 
ATOM     14  C   UNL     1     -11.414  13.849  69.171  0.00  0.00    +0.153 A 
ATOM     15  C   UNL     1     -11.483  14.898  68.262  0.00  0.00    +0.107 A 
ATOM     16  C   UNL     1     -11.684  14.528  66.940  0.00  0.00    +0.015 A 
BRANCH  12  17
ATOM     17  C   UNL     1     -11.102  10.877  66.878  0.00  0.00    +0.025 C 
ATOM     18  C   UNL     1      -9.984  10.868  65.909  0.00  0.00    +0.023 C 
ATOM     19  C   UNL     1      -8.885   9.893  66.186  0.00  0.00    +0.089 C 
ATOM     20  N   UNL     1      -9.526   8.602  66.431  0.00  0.00    -0.218 NA
ATOM     21  C   UNL     1     -10.125   8.717  67.743  0.00  0.00    +0.089 C 
ATOM     22  C   UNL     1     -11.173   9.765  67.848  0.00  0.00    +0.023 C 
ENDBRANCH  12  17
BRANCH  14  23
ATOM     23  O   UNL     1     -11.560  14.192  70.511  0.00  0.00    -0.478 OA
BRANCH  23  24
ATOM     24  C   UNL     1     -12.880  14.431  70.992  0.00  0.00    +0.166 C 
ATOM     25  C   UNL     1     -12.936  15.704  71.827  0.00  0.00    +0.047 C 
ATOM     26  C   UNL     1     -13.247  13.266  71.884  0.00  0.00    +0.047 C 
ENDBRANCH  23  24
ENDBRANCH  14  23
ENDBRANCH   1  15
BRANCH   5  27
ATOM     27  C   UNL     1      -5.152  18.026  68.616  0.00  0.00    +0.089 A 
ATOM     28  C   UNL     1      -4.994  19.329  68.161  0.00  0.00    +0.121 A 
ATOM     29  C   UNL     1      -3.719  19.736  67.791  0.00  0.00    +0.020 A 
ATOM     30  C   UNL     1      -2.628  18.890  67.833  0.00  0.00    +0.001 A 
ATOM     31  C   UNL     1      -2.869  17.527  67.949  0.00  0.00    +0.001 A 
ATOM     32  C   UNL     1      -4.075  17.167  68.537  0.00  0.00    +0.018 A 
BRANCH  28  33
ATOM     33  S   UNL     1      -6.399  20.193  67.616  0.00  0.00    +0.008 S 
ATOM     34  O   UNL     1      -7.383  20.272  68.762  0.00  0.00    -0.169 OA
ATOM     35  O   UNL     1      -6.084  21.603  67.223  0.00  0.00    -0.169 OA
BRANCH  33  36
ATOM     36  C   UNL     1      -7.176  19.373  66.252  0.00  0.00    +0.134 C 
ATOM     37  C   UNL     1      -8.665  19.584  66.224  0.00  0.00    +0.026 C 
ATOM     38  C   UNL     1      -6.586  19.781  64.926  0.00  0.00    +0.026 C 
ENDBRANCH  33  36
ENDBRANCH  28  33
ENDBRANCH   5  27
TORSDOF 7
ENDMDL
