MODEL 1
REMARK VINA RESULT:      -4.5      0.000      0.000
REMARK  Name = 
REMARK  1 active torsions:
REMARK  status: ('A' for Active; 'I' for Inactive)
REMARK    1  A    between atoms: C_8  and  N_9
REMARK                            x       y       z     vdW  Elec       q    Type
REMARK                         _______ _______ _______ _____ _____    ______ ____
ROOT
ATOM      1  C   UNL     1     -11.953  13.861  69.243  0.00  0.00    +0.131 C 
ATOM      2  N   UNL     1     -12.156  14.088  70.661  0.00  0.00    -0.323 N 
ATOM      3  C   UNL     1     -11.619  15.298  71.207  0.00  0.00    +0.083 A 
ATOM      4  C   UNL     1     -11.286  16.277  70.382  0.00  0.00    +0.162 C 
ATOM      5  C   UNL     1     -11.927  15.521  72.624  0.00  0.00    +0.019 A 
ATOM      6  C   UNL     1     -12.841  14.799  73.275  0.00  0.00    +0.003 A 
ATOM      7  C   UNL     1     -13.707  13.905  72.495  0.00  0.00    +0.019 A 
ATOM      8  C   UNL     1     -13.112  13.352  71.435  0.00  0.00    +0.076 A 
ENDROOT
BRANCH   4   9
ATOM      9  N   UNL     1     -11.646  16.290  68.997  0.00  0.00    -0.026 NA
ATOM     10  O   UNL     1     -11.209  17.234  68.289  0.00  0.00    -0.143 OA
ENDBRANCH   4   9
TORSDOF 1
ENDMDL
MODEL 2
REMARK VINA RESULT:      -4.4      5.669      7.073
REMARK  Name = 
REMARK  1 active torsions:
REMARK  status: ('A' for Active; 'I' for Inactive)
REMARK    1  A    between atoms: C_8  and  N_9
REMARK                            x       y       z     vdW  Elec       q    Type
REMARK                         _______ _______ _______ _____ _____    ______ ____
ROOT
ATOM      1  C   UNL     1      -9.993  14.296  66.259  0.00  0.00    +0.131 C 
ATOM      2  N   UNL     1     -10.603  13.289  65.411  0.00  0.00    -0.323 N 
ATOM      3  C   UNL     1     -11.716  13.705  64.610  0.00  0.00    +0.083 A 
ATOM      4  C   UNL     1     -11.913  14.997  64.414  0.00  0.00    +0.162 C 
ATOM      5  C   UNL     1     -12.241  12.674  63.707  0.00  0.00    +0.019 A 
ATOM      6  C   UNL     1     -11.580  11.540  63.462  0.00  0.00    +0.003 A 
ATOM      7  C   UNL     1     -10.198  11.422  63.943  0.00  0.00    +0.019 A 
ATOM      8  C   UNL     1      -9.966  12.043  65.103  0.00  0.00    +0.076 A 
ENDROOT
BRANCH   4   9
ATOM      9  N   UNL     1     -10.950  15.998  64.761  0.00  0.00    -0.026 NA
ATOM     10  O   UNL     1     -11.192  17.184  64.420  0.00  0.00    -0.143 OA
ENDBRANCH   4   9
TORSDOF 1
ENDMDL
MODEL 3
REMARK VINA RESULT:      -4.3      2.644      3.094
REMARK  Name = 
REMARK  1 active torsions:
REMARK  status: ('A' for Active; 'I' for Inactive)
REMARK    1  A    between atoms: C_8  and  N_9
REMARK                            x       y       z     vdW  Elec       q    Type
REMARK                         _______ _______ _______ _____ _____    ______ ____
ROOT
ATOM      1  C   UNL     1     -12.396  11.234  70.953  0.00  0.00    +0.131 C 
ATOM      2  N   UNL     1     -12.617  12.650  71.176  0.00  0.00    -0.323 N 
ATOM      3  C   UNL     1     -12.089  13.550  70.194  0.00  0.00    +0.083 A 
ATOM      4  C   UNL     1     -11.750  13.073  69.009  0.00  0.00    +0.162 C 
ATOM      5  C   UNL     1     -12.414  14.963  70.420  0.00  0.00    +0.019 A 
ATOM      6  C   UNL     1     -13.334  15.348  71.308  0.00  0.00    +0.003 A 
ATOM      7  C   UNL     1     -14.188  14.319  71.916  0.00  0.00    +0.019 A 
ATOM      8  C   UNL     1     -13.579  13.147  72.114  0.00  0.00    +0.076 A 
ENDROOT
BRANCH   4   9
ATOM      9  N   UNL     1     -12.094  11.756  68.567  0.00  0.00    -0.026 NA
ATOM     10  O   UNL     1     -12.036  11.520  67.333  0.00  0.00    -0.143 OA
ENDBRANCH   4   9
TORSDOF 1
ENDMDL
MODEL 4
REMARK VINA RESULT:      -4.3      2.622      3.706
REMARK  Name = 
REMARK  1 active torsions:
REMARK  status: ('A' for Active; 'I' for Inactive)
REMARK    1  A    between atoms: C_8  and  N_9
REMARK                            x       y       z     vdW  Elec       q    Type
REMARK                         _______ _______ _______ _____ _____    ______ ____
ROOT
ATOM      1  C   UNL     1     -13.648  13.878  72.485  0.00  0.00    +0.131 C 
ATOM      2  N   UNL     1     -12.873  14.433  71.392  0.00  0.00    -0.323 N 
ATOM      3  C   UNL     1     -12.282  15.721  71.606  0.00  0.00    +0.083 A 
ATOM      4  C   UNL     1     -12.172  16.174  72.842  0.00  0.00    +0.162 C 
ATOM      5  C   UNL     1     -11.438  16.198  70.504  0.00  0.00    +0.019 A 
ATOM      6  C   UNL     1     -11.044  15.398  69.512  0.00  0.00    +0.003 A 
ATOM      7  C   UNL     1     -11.288  13.955  69.642  0.00  0.00    +0.019 A 
ATOM      8  C   UNL     1     -12.417  13.646  70.285  0.00  0.00    +0.076 A 
ENDROOT
BRANCH   4   9
ATOM      9  N   UNL     1     -12.394  15.360  73.998  0.00  0.00    -0.026 NA
ATOM     10  O   UNL     1     -12.489  15.938  75.111  0.00  0.00    -0.143 OA
ENDBRANCH   4   9
TORSDOF 1
ENDMDL
MODEL 5
REMARK VINA RESULT:      -4.2      4.300      5.396
REMARK  Name = 
REMARK  1 active torsions:
REMARK  status: ('A' for Active; 'I' for Inactive)
REMARK    1  A    between atoms: C_8  and  N_9
REMARK                            x       y       z     vdW  Elec       q    Type
REMARK                         _______ _______ _______ _____ _____    ______ ____
ROOT
ATOM      1  C   UNL     1     -10.698  15.812  67.262  0.00  0.00    +0.131 C 
ATOM      2  N   UNL     1     -10.996  14.397  67.145  0.00  0.00    -0.323 N 
ATOM      3  C   UNL     1     -11.679  13.974  65.959  0.00  0.00    +0.083 A 
ATOM      4  C   UNL     1     -11.698  14.782  64.913  0.00  0.00    +0.162 C 
ATOM      5  C   UNL     1     -11.879  12.525  65.850  0.00  0.00    +0.019 A 
ATOM      6  C   UNL     1     -11.252  11.658  66.649  0.00  0.00    +0.003 A 
ATOM      7  C   UNL     1     -10.177  12.161  67.514  0.00  0.00    +0.019 A 
ATOM      8  C   UNL     1     -10.373  13.402  67.968  0.00  0.00    +0.076 A 
ENDROOT
BRANCH   4   9
ATOM      9  N   UNL     1     -10.881  15.953  64.812  0.00  0.00    -0.026 NA
ATOM     10  O   UNL     1     -11.332  16.925  64.152  0.00  0.00    -0.143 OA
ENDBRANCH   4   9
TORSDOF 1
ENDMDL
MODEL 6
REMARK VINA RESULT:      -4.2      3.097      4.095
REMARK  Name = 
REMARK  1 active torsions:
REMARK  status: ('A' for Active; 'I' for Inactive)
REMARK    1  A    between atoms: C_8  and  N_9
REMARK                            x       y       z     vdW  Elec       q    Type
REMARK                         _______ _______ _______ _____ _____    ______ ____
ROOT
ATOM      1  C   UNL     1     -10.164  14.088  65.979  0.00  0.00    +0.131 C 
ATOM      2  N   UNL     1     -10.439  14.732  67.250  0.00  0.00    -0.323 N 
ATOM      3  C   UNL     1     -10.313  16.158  67.294  0.00  0.00    +0.083 A 
ATOM      4  C   UNL     1     -10.299  16.832  66.157  0.00  0.00    +0.162 C 
ATOM      5  C   UNL     1     -10.686  16.767  68.576  0.00  0.00    +0.019 A 
ATOM      6  C   UNL     1     -11.332  16.087  69.525  0.00  0.00    +0.003 A 
ATOM      7  C   UNL     1     -11.867  14.761  69.190  0.00  0.00    +0.019 A 
ATOM      8  C   UNL     1     -11.120  14.071  68.323  0.00  0.00    +0.076 A 
ENDROOT
BRANCH   4   9
ATOM      9  N   UNL     1     -10.635  16.246  64.895  0.00  0.00    -0.026 NA
ATOM     10  O   UNL     1     -11.419  16.883  64.145  0.00  0.00    -0.143 OA
ENDBRANCH   4   9
TORSDOF 1
ENDMDL
MODEL 7
REMARK VINA RESULT:      -4.1      5.090      7.147
REMARK  Name = 
REMARK  1 active torsions:
REMARK  status: ('A' for Active; 'I' for Inactive)
REMARK    1  A    between atoms: C_8  and  N_9
REMARK                            x       y       z     vdW  Elec       q    Type
REMARK                         _______ _______ _______ _____ _____    ______ ____
ROOT
ATOM      1  C   UNL     1     -11.987  13.846  66.850  0.00  0.00    +0.131 C 
ATOM      2  N   UNL     1     -11.553  13.156  65.651  0.00  0.00    -0.323 N 
ATOM      3  C   UNL     1     -10.919  11.884  65.828  0.00  0.00    +0.083 A 
ATOM      4  C   UNL     1     -11.061  11.257  66.983  0.00  0.00    +0.162 C 
ATOM      5  C   UNL     1     -10.577  11.189  64.582  0.00  0.00    +0.019 A 
ATOM      6  C   UNL     1     -11.050  11.582  63.397  0.00  0.00    +0.003 A 
ATOM      7  C   UNL     1     -12.105  12.603  63.371  0.00  0.00    +0.019 A 
ATOM      8  C   UNL     1     -12.006  13.518  64.340  0.00  0.00    +0.076 A 
ENDROOT
BRANCH   4   9
ATOM      9  N   UNL     1     -12.001  11.661  67.984  0.00  0.00    -0.026 NA
ATOM     10  O   UNL     1     -12.324  10.816  68.858  0.00  0.00    -0.143 OA
ENDBRANCH   4   9
TORSDOF 1
ENDMDL
MODEL 8
REMARK VINA RESULT:      -4.0      4.245      5.091
REMARK  Name = 
REMARK  1 active torsions:
REMARK  status: ('A' for Active; 'I' for Inactive)
REMARK    1  A    between atoms: C_8  and  N_9
REMARK                            x       y       z     vdW  Elec       q    Type
REMARK                         _______ _______ _______ _____ _____    ______ ____
ROOT
ATOM      1  C   UNL     1     -11.047  11.655  65.019  0.00  0.00    +0.131 C 
ATOM      2  N   UNL     1     -11.143  11.931  66.439  0.00  0.00    -0.323 N 
ATOM      3  C   UNL     1     -11.640  13.221  66.816  0.00  0.00    +0.083 A 
ATOM      4  C   UNL     1     -12.290  13.941  65.919  0.00  0.00    +0.162 C 
ATOM      5  C   UNL     1     -11.799  13.418  68.262  0.00  0.00    +0.019 A 
ATOM      6  C   UNL     1     -11.738  12.405  69.129  0.00  0.00    +0.003 A 
ATOM      7  C   UNL     1     -11.724  11.035  68.599  0.00  0.00    +0.019 A 
ATOM      8  C   UNL     1     -11.080  10.904  67.436  0.00  0.00    +0.076 A 
ENDROOT
BRANCH   4   9
ATOM      9  N   UNL     1     -12.730  13.415  64.662  0.00  0.00    -0.026 NA
ATOM     10  O   UNL     1     -12.727  14.190  63.671  0.00  0.00    -0.143 OA
ENDBRANCH   4   9
TORSDOF 1
ENDMDL
MODEL 9
REMARK VINA RESULT:      -4.0      4.742      6.018
REMARK  Name = 
REMARK  1 active torsions:
REMARK  status: ('A' for Active; 'I' for Inactive)
REMARK    1  A    between atoms: C_8  and  N_9
REMARK                            x       y       z     vdW  Elec       q    Type
REMARK                         _______ _______ _______ _____ _____    ______ ____
ROOT
ATOM      1  C   UNL     1     -11.554  12.277  66.615  0.00  0.00    +0.131 C 
ATOM      2  N   UNL     1     -11.008  13.618  66.536  0.00  0.00    -0.323 N 
ATOM      3  C   UNL     1     -11.046  14.259  65.256  0.00  0.00    +0.083 A 
ATOM      4  C   UNL     1     -11.850  13.775  64.324  0.00  0.00    +0.162 C 
ATOM      5  C   UNL     1     -10.561  15.644  65.248  0.00  0.00    +0.019 A 
ATOM      6  C   UNL     1     -10.353  16.330  66.374  0.00  0.00    +0.003 A 
ATOM      7  C   UNL     1     -10.824  15.752  67.640  0.00  0.00    +0.019 A 
ATOM      8  C   UNL     1     -10.748  14.420  67.696  0.00  0.00    +0.076 A 
ENDROOT
BRANCH   4   9
ATOM      9  N   UNL     1     -12.856  12.793  64.592  0.00  0.00    -0.026 NA
ATOM     10  O   UNL     1     -13.243  12.077  63.632  0.00  0.00    -0.143 OA
ENDBRANCH   4   9
TORSDOF 1
ENDMDL
