MODEL 1
REMARK VINA RESULT:      -7.2      0.000      0.000
REMARK  Name = 
REMARK  7 active torsions:
REMARK  status: ('A' for Active; 'I' for Inactive)
REMARK    1  A    between atoms: C_2  and  C_12
REMARK    2  A    between atoms: N_3  and  C_4
REMARK    3  A    between atoms: C_15  and  O_16
REMARK    4  A    between atoms: O_16  and  C_17
REMARK    5  A    between atoms: C_20  and  O_21
REMARK    6  A    between atoms: O_21  and  C_22
REMARK    7  A    between atoms: C_22  and  C_23
REMARK                            x       y       z     vdW  Elec       q    Type
REMARK                         _______ _______ _______ _____ _____    ______ ____
ROOT
ATOM      1  C   UNL     1     -11.502  13.191  68.378  0.00  0.00    +0.059 A 
ATOM      2  C   UNL     1     -11.677  13.864  69.581  0.00  0.00    +0.045 A 
ATOM      3  C   UNL     1     -11.743  15.251  69.630  0.00  0.00    +0.173 A 
ATOM      4  C   UNL     1     -11.168  15.904  68.546  0.00  0.00    +0.178 A 
ATOM      5  C   UNL     1     -10.903  15.215  67.369  0.00  0.00    +0.040 A 
ATOM      6  C   UNL     1     -11.346  13.909  67.199  0.00  0.00    +0.008 A 
ENDROOT
BRANCH   1   8
ATOM      7  O   UNL     1     -12.046  11.056  67.525  0.00  0.00    -0.268 OA
ATOM      8  C   UNL     1     -11.431  11.740  68.396  0.00  0.00    +0.269 C 
ATOM      9  N   UNL     1     -10.787  11.003  69.418  0.00  0.00    -0.174 NA
BRANCH   9  10
ATOM     10  C   UNL     1     -11.292   9.759  69.923  0.00  0.00    +0.098 A 
ATOM     11  C   UNL     1     -10.596   8.596  69.620  0.00  0.00    +0.093 A 
ATOM     12 CL   UNL     1     -10.057   8.437  67.955  0.00  0.00    -0.079 Cl
ATOM     13  C   UNL     1     -10.420   7.582  70.550  0.00  0.00    +0.112 A 
ATOM     14  N   UNL     1     -10.908   7.722  71.807  0.00  0.00    -0.240 NA
ATOM     15  C   UNL     1     -11.779   8.728  72.068  0.00  0.00    +0.112 A 
ATOM     16  C   UNL     1     -11.822   9.810  71.206  0.00  0.00    +0.093 A 
ATOM     17 CL   UNL     1     -13.002  11.083  71.502  0.00  0.00    -0.079 Cl
ENDBRANCH   9  10
ENDBRANCH   1   8
BRANCH   3  18
ATOM     18  O   UNL     1     -12.670  15.906  70.447  0.00  0.00    -0.472 OA
BRANCH  18  19
ATOM     19  C   UNL     1     -13.614  15.232  71.241  0.00  0.00    +0.205 C 
BRANCH  19  20
ATOM     20  C   UNL     1     -13.492  15.801  72.649  0.00  0.00    +0.044 C 
ATOM     21  C   UNL     1     -12.702  14.917  73.650  0.00  0.00    +0.004 C 
ATOM     22  C   UNL     1     -12.135  16.238  73.115  0.00  0.00    +0.004 C 
ENDBRANCH  19  20
ENDBRANCH  18  19
ENDBRANCH   3  18
BRANCH   4  23
ATOM     23  O   UNL     1     -11.351  17.287  68.454  0.00  0.00    -0.421 OA
BRANCH  23  24
ATOM     24  C   UNL     1     -10.406  18.119  67.818  0.00  0.00    +0.509 C 
ATOM     25  F   UNL     1      -9.342  18.446  68.619  0.00  0.00    -0.155 F 
ATOM     26  F   UNL     1     -10.998  19.242  67.303  0.00  0.00    -0.155 F 
ENDBRANCH  23  24
ENDBRANCH   4  23
TORSDOF 7
ENDMDL
MODEL 2
REMARK VINA RESULT:      -7.0      3.225      5.074
REMARK  Name = 
REMARK  7 active torsions:
REMARK  status: ('A' for Active; 'I' for Inactive)
REMARK    1  A    between atoms: C_2  and  C_12
REMARK    2  A    between atoms: N_3  and  C_4
REMARK    3  A    between atoms: C_15  and  O_16
REMARK    4  A    between atoms: O_16  and  C_17
REMARK    5  A    between atoms: C_20  and  O_21
REMARK    6  A    between atoms: O_21  and  C_22
REMARK    7  A    between atoms: C_22  and  C_23
REMARK                            x       y       z     vdW  Elec       q    Type
REMARK                         _______ _______ _______ _____ _____    ______ ____
ROOT
ATOM      1  C   UNL     1     -11.521  13.729  67.846  0.00  0.00    +0.059 A 
ATOM      2  C   UNL     1     -11.582  15.107  67.680  0.00  0.00    +0.045 A 
ATOM      3  C   UNL     1     -11.673  15.962  68.771  0.00  0.00    +0.173 A 
ATOM      4  C   UNL     1     -12.166  15.380  69.933  0.00  0.00    +0.178 A 
ATOM      5  C   UNL     1     -12.194  13.998  70.070  0.00  0.00    +0.040 A 
ATOM      6  C   UNL     1     -11.595  13.181  69.121  0.00  0.00    +0.008 A 
ENDROOT
BRANCH   1   8
ATOM      7  O   UNL     1     -12.461  12.687  65.945  0.00  0.00    -0.268 OA
ATOM      8  C   UNL     1     -11.437  12.889  66.664  0.00  0.00    +0.269 C 
ATOM      9  N   UNL     1     -10.277  12.163  66.302  0.00  0.00    -0.174 NA
BRANCH   9  10
ATOM     10  C   UNL     1     -10.322  10.850  65.730  0.00  0.00    +0.098 A 
ATOM     11  C   UNL     1      -9.871  10.685  64.426  0.00  0.00    +0.093 A 
ATOM     12 CL   UNL     1     -10.399  11.903  63.273  0.00  0.00    -0.079 Cl
ATOM     13  C   UNL     1      -9.128   9.579  64.040  0.00  0.00    +0.112 A 
ATOM     14  N   UNL     1      -8.796   8.632  64.952  0.00  0.00    -0.240 NA
ATOM     15  C   UNL     1      -9.404   8.642  66.163  0.00  0.00    +0.112 A 
ATOM     16  C   UNL     1     -10.003   9.813  66.597  0.00  0.00    +0.093 A 
ATOM     17 CL   UNL     1     -10.857   9.808  68.138  0.00  0.00    -0.079 Cl
ENDBRANCH   9  10
ENDBRANCH   1   8
BRANCH   3  18
ATOM     18  O   UNL     1     -10.940  17.152  68.825  0.00  0.00    -0.472 OA
BRANCH  18  19
ATOM     19  C   UNL     1     -10.175  17.639  67.751  0.00  0.00    +0.205 C 
BRANCH  19  20
ATOM     20  C   UNL     1     -10.675  19.049  67.459  0.00  0.00    +0.044 C 
ATOM     21  C   UNL     1      -9.564  20.101  67.201  0.00  0.00    +0.004 C 
ATOM     22  C   UNL     1     -10.475  19.594  66.076  0.00  0.00    +0.004 C 
ENDBRANCH  19  20
ENDBRANCH  18  19
ENDBRANCH   3  18
BRANCH   4  23
ATOM     23  O   UNL     1     -12.122  16.142  71.105  0.00  0.00    -0.421 OA
BRANCH  23  24
ATOM     24  C   UNL     1     -12.688  15.678  72.311  0.00  0.00    +0.509 C 
ATOM     25  F   UNL     1     -14.030  15.940  72.419  0.00  0.00    -0.155 F 
ATOM     26  F   UNL     1     -12.005  16.155  73.398  0.00  0.00    -0.155 F 
ENDBRANCH  23  24
ENDBRANCH   4  23
TORSDOF 7
ENDMDL
MODEL 3
REMARK VINA RESULT:      -6.9      1.179      1.340
REMARK  Name = 
REMARK  7 active torsions:
REMARK  status: ('A' for Active; 'I' for Inactive)
REMARK    1  A    between atoms: C_2  and  C_12
REMARK    2  A    between atoms: N_3  and  C_4
REMARK    3  A    between atoms: C_15  and  O_16
REMARK    4  A    between atoms: O_16  and  C_17
REMARK    5  A    between atoms: C_20  and  O_21
REMARK    6  A    between atoms: O_21  and  C_22
REMARK    7  A    between atoms: C_22  and  C_23
REMARK                            x       y       z     vdW  Elec       q    Type
REMARK                         _______ _______ _______ _____ _____    ______ ____
ROOT
ATOM      1  C   UNL     1     -11.242  13.852  67.511  0.00  0.00    +0.059 A 
ATOM      2  C   UNL     1     -11.081  14.421  68.768  0.00  0.00    +0.045 A 
ATOM      3  C   UNL     1     -11.052  15.800  68.938  0.00  0.00    +0.173 A 
ATOM      4  C   UNL     1     -10.719  16.524  67.800  0.00  0.00    +0.178 A 
ATOM      5  C   UNL     1     -10.788  15.933  66.544  0.00  0.00    +0.040 A 
ATOM      6  C   UNL     1     -11.334  14.666  66.389  0.00  0.00    +0.008 A 
ENDROOT
BRANCH   1   8
ATOM      7  O   UNL     1     -12.072  11.825  66.624  0.00  0.00    -0.268 OA
ATOM      8  C   UNL     1     -11.253  12.403  67.399  0.00  0.00    +0.269 C 
ATOM      9  N   UNL     1     -10.458  11.552  68.204  0.00  0.00    -0.174 NA
BRANCH   9  10
ATOM     10  C   UNL     1     -10.921  10.290  68.702  0.00  0.00    +0.098 A 
ATOM     11  C   UNL     1     -10.341   9.132  68.200  0.00  0.00    +0.093 A 
ATOM     12 CL   UNL     1     -10.110   9.084  66.458  0.00  0.00    -0.079 Cl
ATOM     13  C   UNL     1     -10.049   8.045  69.011  0.00  0.00    +0.112 A 
ATOM     14  N   UNL     1     -10.302   8.104  70.342  0.00  0.00    -0.240 NA
ATOM     15  C   UNL     1     -11.067   9.113  70.823  0.00  0.00    +0.112 A 
ATOM     16  C   UNL     1     -11.214  10.260  70.060  0.00  0.00    +0.093 A 
ATOM     17 CL   UNL     1     -12.266  11.542  70.650  0.00  0.00    -0.079 Cl
ENDBRANCH   9  10
ENDBRANCH   1   8
BRANCH   3  18
ATOM     18  O   UNL     1     -11.714  16.414  70.007  0.00  0.00    -0.472 OA
BRANCH  18  19
ATOM     19  C   UNL     1     -11.732  15.889  71.310  0.00  0.00    +0.205 C 
BRANCH  19  20
ATOM     20  C   UNL     1     -13.174  15.496  71.606  0.00  0.00    +0.044 C 
ATOM     21  C   UNL     1     -13.347  14.376  72.665  0.00  0.00    +0.004 C 
ATOM     22  C   UNL     1     -13.732  15.831  72.957  0.00  0.00    +0.004 C 
ENDBRANCH  19  20
ENDBRANCH  18  19
ENDBRANCH   3  18
BRANCH   4  23
ATOM     23  O   UNL     1     -10.838  17.916  67.863  0.00  0.00    -0.421 OA
BRANCH  23  24
ATOM     24  C   UNL     1     -10.216  18.756  66.915  0.00  0.00    +0.509 C 
ATOM     25  F   UNL     1      -8.913  19.054  67.223  0.00  0.00    -0.155 F 
ATOM     26  F   UNL     1     -10.945  19.897  66.707  0.00  0.00    -0.155 F 
ENDBRANCH  23  24
ENDBRANCH   4  23
TORSDOF 7
ENDMDL
MODEL 4
REMARK VINA RESULT:      -6.9      4.843      7.780
REMARK  Name = 
REMARK  7 active torsions:
REMARK  status: ('A' for Active; 'I' for Inactive)
REMARK    1  A    between atoms: C_2  and  C_12
REMARK    2  A    between atoms: N_3  and  C_4
REMARK    3  A    between atoms: C_15  and  O_16
REMARK    4  A    between atoms: O_16  and  C_17
REMARK    5  A    between atoms: C_20  and  O_21
REMARK    6  A    between atoms: O_21  and  C_22
REMARK    7  A    between atoms: C_22  and  C_23
REMARK                            x       y       z     vdW  Elec       q    Type
REMARK                         _______ _______ _______ _____ _____    ______ ____
ROOT
ATOM      1  C   UNL     1     -10.324  15.075  67.075  0.00  0.00    +0.059 A 
ATOM      2  C   UNL     1     -11.131  14.106  67.658  0.00  0.00    +0.045 A 
ATOM      3  C   UNL     1     -11.939  13.280  66.887  0.00  0.00    +0.173 A 
ATOM      4  C   UNL     1     -12.246  13.772  65.624  0.00  0.00    +0.178 A 
ATOM      5  C   UNL     1     -11.500  14.806  65.071  0.00  0.00    +0.040 A 
ATOM      6  C   UNL     1     -10.346  15.259  65.698  0.00  0.00    +0.008 A 
ENDROOT
BRANCH   1   8
ATOM      7  O   UNL     1      -9.733  15.961  69.185  0.00  0.00    -0.268 OA
ATOM      8  C   UNL     1      -9.511  15.915  67.938  0.00  0.00    +0.269 C 
ATOM      9  N   UNL     1      -8.522  16.804  67.455  0.00  0.00    -0.174 NA
BRANCH   9  10
ATOM     10  C   UNL     1      -8.280  18.095  68.031  0.00  0.00    +0.098 A 
ATOM     11  C   UNL     1      -7.034  18.342  68.591  0.00  0.00    +0.093 A 
ATOM     12 CL   UNL     1      -6.379  17.060  69.601  0.00  0.00    -0.079 Cl
ATOM     13  C   UNL     1      -6.388  19.561  68.439  0.00  0.00    +0.112 A 
ATOM     14  N   UNL     1      -6.960  20.544  67.702  0.00  0.00    -0.240 NA
ATOM     15  C   UNL     1      -8.260  20.423  67.337  0.00  0.00    +0.112 A 
ATOM     16  C   UNL     1      -8.839  19.165  67.344  0.00  0.00    +0.093 A 
ATOM     17 CL   UNL     1     -10.546  19.015  66.941  0.00  0.00    -0.079 Cl
ENDBRANCH   9  10
ENDBRANCH   1   8
BRANCH   3  18
ATOM     18  O   UNL     1     -12.062  11.916  67.170  0.00  0.00    -0.472 OA
BRANCH  18  19
ATOM     19  C   UNL     1     -11.201  11.224  68.039  0.00  0.00    +0.205 C 
BRANCH  19  20
ATOM     20  C   UNL     1     -12.052  10.734  69.203  0.00  0.00    +0.044 C 
ATOM     21  C   UNL     1     -11.257  10.293  70.461  0.00  0.00    +0.004 C 
ATOM     22  C   UNL     1     -12.099  11.575  70.445  0.00  0.00    +0.004 C 
ENDBRANCH  19  20
ENDBRANCH  18  19
ENDBRANCH   3  18
BRANCH   4  23
ATOM     23  O   UNL     1     -12.910  12.915  64.741  0.00  0.00    -0.421 OA
BRANCH  23  24
ATOM     24  C   UNL     1     -12.235  12.279  63.678  0.00  0.00    +0.509 C 
ATOM     25  F   UNL     1     -13.056  11.515  62.890  0.00  0.00    -0.155 F 
ATOM     26  F   UNL     1     -11.169  11.547  64.132  0.00  0.00    -0.155 F 
ENDBRANCH  23  24
ENDBRANCH   4  23
TORSDOF 7
ENDMDL
MODEL 5
REMARK VINA RESULT:      -6.7      3.292      4.161
REMARK  Name = 
REMARK  7 active torsions:
REMARK  status: ('A' for Active; 'I' for Inactive)
REMARK    1  A    between atoms: C_2  and  C_12
REMARK    2  A    between atoms: N_3  and  C_4
REMARK    3  A    between atoms: C_15  and  O_16
REMARK    4  A    between atoms: O_16  and  C_17
REMARK    5  A    between atoms: C_20  and  O_21
REMARK    6  A    between atoms: O_21  and  C_22
REMARK    7  A    between atoms: C_22  and  C_23
REMARK                            x       y       z     vdW  Elec       q    Type
REMARK                         _______ _______ _______ _____ _____    ______ ____
ROOT
ATOM      1  C   UNL     1     -10.422  14.396  66.889  0.00  0.00    +0.059 A 
ATOM      2  C   UNL     1     -10.656  14.748  68.212  0.00  0.00    +0.045 A 
ATOM      3  C   UNL     1     -10.950  16.057  68.570  0.00  0.00    +0.173 A 
ATOM      4  C   UNL     1     -10.539  17.021  67.658  0.00  0.00    +0.178 A 
ATOM      5  C   UNL     1     -10.214  16.664  66.355  0.00  0.00    +0.040 A 
ATOM      6  C   UNL     1     -10.439  15.372  65.899  0.00  0.00    +0.008 A 
ENDROOT
BRANCH   1   8
ATOM      7  O   UNL     1      -8.905  12.616  66.554  0.00  0.00    -0.268 OA
ATOM      8  C   UNL     1     -10.108  13.011  66.581  0.00  0.00    +0.269 C 
ATOM      9  N   UNL     1     -11.079  12.059  66.189  0.00  0.00    -0.174 NA
BRANCH   9  10
ATOM     10  C   UNL     1     -10.833  11.052  65.200  0.00  0.00    +0.098 A 
ATOM     11  C   UNL     1     -10.665  11.452  63.881  0.00  0.00    +0.093 A 
ATOM     12 CL   UNL     1     -11.804  12.656  63.295  0.00  0.00    -0.079 Cl
ATOM     13  C   UNL     1      -9.717  10.871  63.050  0.00  0.00    +0.112 A 
ATOM     14  N   UNL     1      -8.900   9.900  63.529  0.00  0.00    -0.240 NA
ATOM     15  C   UNL     1      -9.184   9.330  64.726  0.00  0.00    +0.112 A 
ATOM     16  C   UNL     1     -10.009  10.009  65.607  0.00  0.00    +0.093 A 
ATOM     17 CL   UNL     1     -10.438   9.239  67.131  0.00  0.00    -0.079 Cl
ENDBRANCH   9  10
ENDBRANCH   1   8
BRANCH   3  18
ATOM     18  O   UNL     1     -11.938  16.347  69.518  0.00  0.00    -0.472 OA
BRANCH  18  19
ATOM     19  C   UNL     1     -12.409  15.412  70.455  0.00  0.00    +0.205 C 
BRANCH  19  20
ATOM     20  C   UNL     1     -12.272  16.058  71.828  0.00  0.00    +0.044 C 
ATOM     21  C   UNL     1     -13.430  15.759  72.815  0.00  0.00    +0.004 C 
ATOM     22  C   UNL     1     -12.031  15.162  73.006  0.00  0.00    +0.004 C 
ENDBRANCH  19  20
ENDBRANCH  18  19
ENDBRANCH   3  18
BRANCH   4  23
ATOM     23  O   UNL     1     -10.955  18.338  67.878  0.00  0.00    -0.421 OA
BRANCH  23  24
ATOM     24  C   UNL     1     -10.327  19.430  67.242  0.00  0.00    +0.509 C 
ATOM     25  F   UNL     1     -10.119  20.500  68.074  0.00  0.00    -0.155 F 
ATOM     26  F   UNL     1     -11.009  19.808  66.115  0.00  0.00    -0.155 F 
ENDBRANCH  23  24
ENDBRANCH   4  23
TORSDOF 7
ENDMDL
MODEL 6
REMARK VINA RESULT:      -6.6      5.204      8.140
REMARK  Name = 
REMARK  7 active torsions:
REMARK  status: ('A' for Active; 'I' for Inactive)
REMARK    1  A    between atoms: C_2  and  C_12
REMARK    2  A    between atoms: N_3  and  C_4
REMARK    3  A    between atoms: C_15  and  O_16
REMARK    4  A    between atoms: O_16  and  C_17
REMARK    5  A    between atoms: C_20  and  O_21
REMARK    6  A    between atoms: O_21  and  C_22
REMARK    7  A    between atoms: C_22  and  C_23
REMARK                            x       y       z     vdW  Elec       q    Type
REMARK                         _______ _______ _______ _____ _____    ______ ____
ROOT
ATOM      1  C   UNL     1     -10.284  15.154  66.980  0.00  0.00    +0.059 A 
ATOM      2  C   UNL     1     -11.126  14.204  67.545  0.00  0.00    +0.045 A 
ATOM      3  C   UNL     1     -11.942  13.402  66.756  0.00  0.00    +0.173 A 
ATOM      4  C   UNL     1     -12.215  13.909  65.491  0.00  0.00    +0.178 A 
ATOM      5  C   UNL     1     -11.432  14.924  64.955  0.00  0.00    +0.040 A 
ATOM      6  C   UNL     1     -10.278  15.345  65.604  0.00  0.00    +0.008 A 
ENDROOT
BRANCH   1   8
ATOM      7  O   UNL     1      -9.689  15.994  69.108  0.00  0.00    -0.268 OA
ATOM      8  C   UNL     1      -9.464  15.968  67.861  0.00  0.00    +0.269 C 
ATOM      9  N   UNL     1      -8.461  16.853  67.397  0.00  0.00    -0.174 NA
BRANCH   9  10
ATOM     10  C   UNL     1      -8.206  18.130  67.997  0.00  0.00    +0.098 A 
ATOM     11  C   UNL     1      -6.971  18.340  68.596  0.00  0.00    +0.093 A 
ATOM     12 CL   UNL     1      -6.378  17.029  69.607  0.00  0.00    -0.079 Cl
ATOM     13  C   UNL     1      -6.292  19.544  68.479  0.00  0.00    +0.112 A 
ATOM     14  N   UNL     1      -6.818  20.550  67.738  0.00  0.00    -0.240 NA
ATOM     15  C   UNL     1      -8.109  20.466  67.334  0.00  0.00    +0.112 A 
ATOM     16  C   UNL     1      -8.718  19.222  67.308  0.00  0.00    +0.093 A 
ATOM     17 CL   UNL     1     -10.416  19.119  66.853  0.00  0.00    -0.079 Cl
ENDBRANCH   9  10
ENDBRANCH   1   8
BRANCH   3  18
ATOM     18  O   UNL     1     -12.106  12.041  67.030  0.00  0.00    -0.472 OA
BRANCH  18  19
ATOM     19  C   UNL     1     -11.124  11.253  67.656  0.00  0.00    +0.205 C 
BRANCH  19  20
ATOM     20  C   UNL     1     -10.252  10.676  66.548  0.00  0.00    +0.044 C 
ATOM     21  C   UNL     1      -8.858  11.340  66.395  0.00  0.00    +0.004 C 
ATOM     22  C   UNL     1      -9.020   9.918  66.946  0.00  0.00    +0.004 C 
ENDBRANCH  19  20
ENDBRANCH  18  19
ENDBRANCH   3  18
BRANCH   4  23
ATOM     23  O   UNL     1     -12.886  13.073  64.592  0.00  0.00    -0.421 OA
BRANCH  23  24
ATOM     24  C   UNL     1     -12.233  12.508  63.477  0.00  0.00    +0.509 C 
ATOM     25  F   UNL     1     -12.946  11.499  62.881  0.00  0.00    -0.155 F 
ATOM     26  F   UNL     1     -10.968  12.091  63.800  0.00  0.00    -0.155 F 
ENDBRANCH  23  24
ENDBRANCH   4  23
TORSDOF 7
ENDMDL
MODEL 7
REMARK VINA RESULT:      -6.5      4.386      6.790
REMARK  Name = 
REMARK  7 active torsions:
REMARK  status: ('A' for Active; 'I' for Inactive)
REMARK    1  A    between atoms: C_2  and  C_12
REMARK    2  A    between atoms: N_3  and  C_4
REMARK    3  A    between atoms: C_15  and  O_16
REMARK    4  A    between atoms: O_16  and  C_17
REMARK    5  A    between atoms: C_20  and  O_21
REMARK    6  A    between atoms: O_21  and  C_22
REMARK    7  A    between atoms: C_22  and  C_23
REMARK                            x       y       z     vdW  Elec       q    Type
REMARK                         _______ _______ _______ _____ _____    ______ ____
ROOT
ATOM      1  C   UNL     1     -11.130  11.661  69.281  0.00  0.00    +0.059 A 
ATOM      2  C   UNL     1     -12.209  12.194  69.976  0.00  0.00    +0.045 A 
ATOM      3  C   UNL     1     -12.797  11.509  71.032  0.00  0.00    +0.173 A 
ATOM      4  C   UNL     1     -12.578  10.136  71.036  0.00  0.00    +0.178 A 
ATOM      5  C   UNL     1     -11.558   9.584  70.271  0.00  0.00    +0.040 A 
ATOM      6  C   UNL     1     -10.647  10.400  69.612  0.00  0.00    +0.008 A 
ENDROOT
BRANCH   1   8
ATOM      7  O   UNL     1      -9.456  12.088  67.669  0.00  0.00    -0.268 OA
ATOM      8  C   UNL     1     -10.567  12.422  68.179  0.00  0.00    +0.269 C 
ATOM      9  N   UNL     1     -11.138  13.619  67.685  0.00  0.00    -0.174 NA
BRANCH   9  10
ATOM     10  C   UNL     1     -10.355  14.735  67.244  0.00  0.00    +0.098 A 
ATOM     11  C   UNL     1     -10.404  15.083  65.900  0.00  0.00    +0.093 A 
ATOM     12 CL   UNL     1     -10.312  13.749  64.760  0.00  0.00    -0.079 Cl
ATOM     13  C   UNL     1     -10.430  16.407  65.484  0.00  0.00    +0.112 A 
ATOM     14  N   UNL     1     -10.438  17.406  66.400  0.00  0.00    -0.240 NA
ATOM     15  C   UNL     1     -10.162  17.116  67.695  0.00  0.00    +0.112 A 
ATOM     16  C   UNL     1     -10.299  15.807  68.127  0.00  0.00    +0.093 A 
ATOM     17 CL   UNL     1      -9.871  15.414  69.789  0.00  0.00    -0.079 Cl
ENDBRANCH   9  10
ENDBRANCH   1   8
BRANCH   3  18
ATOM     18  O   UNL     1     -13.188  12.172  72.200  0.00  0.00    -0.472 OA
BRANCH  18  19
ATOM     19  C   UNL     1     -13.735  13.467  72.208  0.00  0.00    +0.205 C 
BRANCH  19  20
ATOM     20  C   UNL     1     -12.595  14.424  72.531  0.00  0.00    +0.044 C 
ATOM     21  C   UNL     1     -12.987  15.924  72.576  0.00  0.00    +0.004 C 
ATOM     22  C   UNL     1     -12.632  15.143  73.847  0.00  0.00    +0.004 C 
ENDBRANCH  19  20
ENDBRANCH  18  19
ENDBRANCH   3  18
BRANCH   4  23
ATOM     23  O   UNL     1     -12.999   9.419  72.160  0.00  0.00    -0.421 OA
BRANCH  23  24
ATOM     24  C   UNL     1     -13.863   8.309  72.049  0.00  0.00    +0.509 C 
ATOM     25  F   UNL     1     -13.206   7.128  71.819  0.00  0.00    -0.155 F 
ATOM     26  F   UNL     1     -14.832   8.526  71.105  0.00  0.00    -0.155 F 
ENDBRANCH  23  24
ENDBRANCH   4  23
TORSDOF 7
ENDMDL
MODEL 8
REMARK VINA RESULT:      -6.4      5.185      7.826
REMARK  Name = 
REMARK  7 active torsions:
REMARK  status: ('A' for Active; 'I' for Inactive)
REMARK    1  A    between atoms: C_2  and  C_12
REMARK    2  A    between atoms: N_3  and  C_4
REMARK    3  A    between atoms: C_15  and  O_16
REMARK    4  A    between atoms: O_16  and  C_17
REMARK    5  A    between atoms: C_20  and  O_21
REMARK    6  A    between atoms: O_21  and  C_22
REMARK    7  A    between atoms: C_22  and  C_23
REMARK                            x       y       z     vdW  Elec       q    Type
REMARK                         _______ _______ _______ _____ _____    ______ ____
ROOT
ATOM      1  C   UNL     1     -10.761  15.847  66.147  0.00  0.00    +0.059 A 
ATOM      2  C   UNL     1     -11.389  15.098  67.135  0.00  0.00    +0.045 A 
ATOM      3  C   UNL     1     -12.087  13.937  66.827  0.00  0.00    +0.173 A 
ATOM      4  C   UNL     1     -12.511  13.841  65.507  0.00  0.00    +0.178 A 
ATOM      5  C   UNL     1     -11.952  14.652  64.527  0.00  0.00    +0.040 A 
ATOM      6  C   UNL     1     -10.861  15.460  64.816  0.00  0.00    +0.008 A 
ENDROOT
BRANCH   1   8
ATOM      7  O   UNL     1      -9.949  18.025  65.722  0.00  0.00    -0.268 OA
ATOM      8  C   UNL     1     -10.056  17.057  66.534  0.00  0.00    +0.269 C 
ATOM      9  N   UNL     1      -9.360  17.199  67.758  0.00  0.00    -0.174 NA
BRANCH   9  10
ATOM     10  C   UNL     1      -8.120  17.906  67.876  0.00  0.00    +0.098 A 
ATOM     11  C   UNL     1      -8.134  19.166  68.461  0.00  0.00    +0.093 A 
ATOM     12 CL   UNL     1      -9.432  20.234  67.947  0.00  0.00    -0.079 Cl
ATOM     13  C   UNL     1      -7.134  19.587  69.326  0.00  0.00    +0.112 A 
ATOM     14  N   UNL     1      -6.117  18.749  69.646  0.00  0.00    -0.240 NA
ATOM     15  C   UNL     1      -5.948  17.613  68.926  0.00  0.00    +0.112 A 
ATOM     16  C   UNL     1      -7.017  17.123  68.194  0.00  0.00    +0.093 A 
ATOM     17 CL   UNL     1      -6.779  15.689  67.202  0.00  0.00    -0.079 Cl
ENDBRANCH   9  10
ENDBRANCH   1   8
BRANCH   3  18
ATOM     18  O   UNL     1     -11.990  12.796  67.630  0.00  0.00    -0.472 OA
BRANCH  18  19
ATOM     19  C   UNL     1     -10.832  12.452  68.348  0.00  0.00    +0.205 C 
BRANCH  19  20
ATOM     20  C   UNL     1      -9.907  11.733  67.373  0.00  0.00    +0.044 C 
ATOM     21  C   UNL     1      -8.633  12.522  66.971  0.00  0.00    +0.004 C 
ATOM     22  C   UNL     1      -8.566  11.286  67.875  0.00  0.00    +0.004 C 
ENDBRANCH  19  20
ENDBRANCH  18  19
ENDBRANCH   3  18
BRANCH   4  23
ATOM     23  O   UNL     1     -13.067  12.626  65.095  0.00  0.00    -0.421 OA
BRANCH  23  24
ATOM     24  C   UNL     1     -12.387  11.762  64.211  0.00  0.00    +0.509 C 
ATOM     25  F   UNL     1     -11.022  11.823  64.332  0.00  0.00    -0.155 F 
ATOM     26  F   UNL     1     -12.775  11.970  62.914  0.00  0.00    -0.155 F 
ENDBRANCH  23  24
ENDBRANCH   4  23
TORSDOF 7
ENDMDL
MODEL 9
REMARK VINA RESULT:      -6.3      5.127      7.822
REMARK  Name = 
REMARK  7 active torsions:
REMARK  status: ('A' for Active; 'I' for Inactive)
REMARK    1  A    between atoms: C_2  and  C_12
REMARK    2  A    between atoms: N_3  and  C_4
REMARK    3  A    between atoms: C_15  and  O_16
REMARK    4  A    between atoms: O_16  and  C_17
REMARK    5  A    between atoms: C_20  and  O_21
REMARK    6  A    between atoms: O_21  and  C_22
REMARK    7  A    between atoms: C_22  and  C_23
REMARK                            x       y       z     vdW  Elec       q    Type
REMARK                         _______ _______ _______ _____ _____    ______ ____
ROOT
ATOM      1  C   UNL     1     -10.461  10.274  66.906  0.00  0.00    +0.059 A 
ATOM      2  C   UNL     1     -10.768  10.270  68.261  0.00  0.00    +0.045 A 
ATOM      3  C   UNL     1     -10.561   9.142  69.045  0.00  0.00    +0.173 A 
ATOM      4  C   UNL     1     -10.498   7.944  68.344  0.00  0.00    +0.178 A 
ATOM      5  C   UNL     1     -10.284   7.942  66.971  0.00  0.00    +0.040 A 
ATOM      6  C   UNL     1      -9.976   9.120  66.302  0.00  0.00    +0.008 A 
ENDROOT
BRANCH   1   8
ATOM      7  O   UNL     1      -9.789  12.004  65.443  0.00  0.00    -0.268 OA
ATOM      8  C   UNL     1     -10.711  11.482  66.138  0.00  0.00    +0.269 C 
ATOM      9  N   UNL     1     -11.924  12.208  66.198  0.00  0.00    -0.174 NA
BRANCH   9  10
ATOM     10  C   UNL     1     -11.983  13.639  66.156  0.00  0.00    +0.098 A 
ATOM     11  C   UNL     1     -11.577  14.348  67.280  0.00  0.00    +0.093 A 
ATOM     12 CL   UNL     1     -12.151  13.731  68.823  0.00  0.00    -0.079 Cl
ATOM     13  C   UNL     1     -10.843  15.522  67.184  0.00  0.00    +0.112 A 
ATOM     14  N   UNL     1     -10.475  15.994  65.968  0.00  0.00    -0.240 NA
ATOM     15  C   UNL     1     -11.040  15.463  64.855  0.00  0.00    +0.112 A 
ATOM     16  C   UNL     1     -11.629  14.212  64.941  0.00  0.00    +0.093 A 
ATOM     17 CL   UNL     1     -12.427  13.553  63.517  0.00  0.00    -0.079 Cl
ENDBRANCH   9  10
ENDBRANCH   1   8
BRANCH   3  18
ATOM     18  O   UNL     1     -10.032   9.242  70.336  0.00  0.00    -0.472 OA
BRANCH  18  19
ATOM     19  C   UNL     1     -10.825   9.317  71.494  0.00  0.00    +0.205 C 
BRANCH  19  20
ATOM     20  C   UNL     1     -12.255   9.564  71.032  0.00  0.00    +0.044 C 
ATOM     21  C   UNL     1     -13.351   9.251  72.085  0.00  0.00    +0.004 C 
ATOM     22  C   UNL     1     -13.017  10.689  71.669  0.00  0.00    +0.004 C 
ENDBRANCH  19  20
ENDBRANCH  18  19
ENDBRANCH   3  18
BRANCH   4  23
ATOM     23  O   UNL     1     -10.124   6.799  69.054  0.00  0.00    -0.421 OA
BRANCH  23  24
ATOM     24  C   UNL     1     -11.072   5.835  69.458  0.00  0.00    +0.509 C 
ATOM     25  F   UNL     1     -12.062   6.346  70.258  0.00  0.00    -0.155 F 
ATOM     26  F   UNL     1     -10.466   4.759  70.052  0.00  0.00    -0.155 F 
ENDBRANCH  23  24
ENDBRANCH   4  23
TORSDOF 7
ENDMDL
