MODEL 1
REMARK VINA RESULT:      -7.4      0.000      0.000
REMARK  Name = 
REMARK  3 active torsions:
REMARK  status: ('A' for Active; 'I' for Inactive)
REMARK    1  A    between atoms: N_2  and  C_4
REMARK    2  A    between atoms: C_4  and  C_5
REMARK    3  A    between atoms: C_5  and  C_6
REMARK                            x       y       z     vdW  Elec       q    Type
REMARK                         _______ _______ _______ _____ _____    ______ ____
ROOT
ATOM      1  C   UNL     1     -11.033  13.909  68.753  0.00  0.00    -0.025 C 
ATOM      2  C   UNL     1     -11.575  13.267  69.774  0.00  0.00    -0.004 C 
ATOM      3  C   UNL     1     -11.774  11.823  69.602  0.00  0.00    -0.000 A 
ATOM      4  C   UNL     1     -12.164  10.902  70.565  0.00  0.00    -0.000 A 
ATOM      5  C   UNL     1     -11.624   9.622  70.585  0.00  0.00    -0.000 A 
ATOM      6  C   UNL     1     -10.790   9.234  69.543  0.00  0.00    -0.000 A 
ATOM      7  C   UNL     1     -10.942   9.960  68.366  0.00  0.00    -0.000 A 
ATOM      8  C   UNL     1     -13.023  11.158  71.720  0.00  0.00    -0.000 C 
ATOM      9  C   UNL     1     -13.508  12.342  72.095  0.00  0.00    -0.000 C 
ATOM     10  C   UNL     1     -13.120  13.702  71.783  0.00  0.00    -0.000 A 
ATOM     11  C   UNL     1     -13.261  14.504  72.907  0.00  0.00    -0.000 A 
ATOM     12  C   UNL     1     -12.652  15.748  72.993  0.00  0.00    -0.000 A 
ATOM     13  C   UNL     1     -11.895  16.149  71.900  0.00  0.00    -0.000 A 
ATOM     14  C   UNL     1     -11.766  15.371  70.770  0.00  0.00    -0.000 A 
ATOM     15  C   UNL     1     -11.034  11.337  68.532  0.00  0.00    -0.000 A 
ATOM     16  C   UNL     1     -12.299  14.099  70.736  0.00  0.00    -0.000 A 
ENDROOT
BRANCH   1  17
ATOM     17  C   UNL     1     -11.924  14.403  67.686  0.00  0.00    +0.043 C 
BRANCH  17  18
ATOM     18  C   UNL     1     -11.331  14.256  66.309  0.00  0.00    +0.077 C 
BRANCH  18  20
ATOM     19  C   UNL     1     -12.392  12.605  65.011  0.00  0.00    +0.090 C 
ATOM     20  N   UNL     1     -12.458  14.006  65.412  0.00  0.00    -0.270 NA
ATOM     21  C   UNL     1     -12.262  14.861  64.246  0.00  0.00    +0.090 C 
ENDBRANCH  18  20
ENDBRANCH  17  18
ENDBRANCH   1  17
TORSDOF 3
ENDMDL
MODEL 2
REMARK VINA RESULT:      -7.3      2.426      5.074
REMARK  Name = 
REMARK  3 active torsions:
REMARK  status: ('A' for Active; 'I' for Inactive)
REMARK    1  A    between atoms: N_2  and  C_4
REMARK    2  A    between atoms: C_4  and  C_5
REMARK    3  A    between atoms: C_5  and  C_6
REMARK                            x       y       z     vdW  Elec       q    Type
REMARK                         _______ _______ _______ _____ _____    ______ ____
ROOT
ATOM      1  C   UNL     1     -11.403  16.198  68.783  0.00  0.00    -0.025 C 
ATOM      2  C   UNL     1     -11.732  14.959  69.106  0.00  0.00    -0.004 C 
ATOM      3  C   UNL     1     -11.970  14.702  70.532  0.00  0.00    -0.000 A 
ATOM      4  C   UNL     1     -12.481  13.547  71.110  0.00  0.00    -0.000 A 
ATOM      5  C   UNL     1     -13.342  13.617  72.198  0.00  0.00    -0.000 A 
ATOM      6  C   UNL     1     -13.575  14.855  72.786  0.00  0.00    -0.000 A 
ATOM      7  C   UNL     1     -12.593  15.812  72.549  0.00  0.00    -0.000 A 
ATOM      8  C   UNL     1     -12.333  12.182  70.608  0.00  0.00    -0.000 C 
ATOM      9  C   UNL     1     -11.755  11.820  69.462  0.00  0.00    -0.000 C 
ATOM     10  C   UNL     1     -11.438  12.552  68.253  0.00  0.00    -0.000 A 
ATOM     11  C   UNL     1     -11.652  11.746  67.143  0.00  0.00    -0.000 A 
ATOM     12  C   UNL     1     -11.756  12.281  65.867  0.00  0.00    -0.000 A 
ATOM     13  C   UNL     1     -11.638  13.660  65.756  0.00  0.00    -0.000 A 
ATOM     14  C   UNL     1     -11.403  14.467  66.847  0.00  0.00    -0.000 A 
ATOM     15  C   UNL     1     -12.147  15.886  71.235  0.00  0.00    -0.000 A 
ATOM     16  C   UNL     1     -11.395  13.933  68.119  0.00  0.00    -0.000 A 
ENDROOT
BRANCH   1  17
ATOM     17  C   UNL     1      -9.979  16.581  68.842  0.00  0.00    +0.043 C 
BRANCH  17  18
ATOM     18  C   UNL     1      -9.576  17.520  67.735  0.00  0.00    +0.077 C 
BRANCH  18  20
ATOM     19  C   UNL     1     -10.581  19.257  66.506  0.00  0.00    +0.090 C 
ATOM     20  N   UNL     1     -10.476  18.667  67.836  0.00  0.00    -0.270 NA
ATOM     21  C   UNL     1      -9.844  19.616  68.745  0.00  0.00    +0.090 C 
ENDBRANCH  18  20
ENDBRANCH  17  18
ENDBRANCH   1  17
TORSDOF 3
ENDMDL
MODEL 3
REMARK VINA RESULT:      -6.9      2.193      5.034
REMARK  Name = 
REMARK  3 active torsions:
REMARK  status: ('A' for Active; 'I' for Inactive)
REMARK    1  A    between atoms: N_2  and  C_4
REMARK    2  A    between atoms: C_4  and  C_5
REMARK    3  A    between atoms: C_5  and  C_6
REMARK                            x       y       z     vdW  Elec       q    Type
REMARK                         _______ _______ _______ _____ _____    ______ ____
ROOT
ATOM      1  C   UNL     1     -12.040  10.928  69.409  0.00  0.00    -0.025 C 
ATOM      2  C   UNL     1     -12.090  12.232  69.198  0.00  0.00    -0.004 C 
ATOM      3  C   UNL     1     -11.584  12.700  67.902  0.00  0.00    -0.000 A 
ATOM      4  C   UNL     1     -11.673  13.979  67.370  0.00  0.00    -0.000 A 
ATOM      5  C   UNL     1     -11.895  14.171  66.012  0.00  0.00    -0.000 A 
ATOM      6  C   UNL     1     -11.889  13.064  65.172  0.00  0.00    -0.000 A 
ATOM      7  C   UNL     1     -11.211  11.955  65.667  0.00  0.00    -0.000 A 
ATOM      8  C   UNL     1     -11.702  15.235  68.119  0.00  0.00    -0.000 C 
ATOM      9  C   UNL     1     -11.736  15.361  69.446  0.00  0.00    -0.000 C 
ATOM     10  C   UNL     1     -12.098  14.445  70.508  0.00  0.00    -0.000 A 
ATOM     11  C   UNL     1     -12.775  15.125  71.510  0.00  0.00    -0.000 A 
ATOM     12  C   UNL     1     -13.523  14.453  72.466  0.00  0.00    -0.000 A 
ATOM     13  C   UNL     1     -13.562  13.069  72.369  0.00  0.00    -0.000 A 
ATOM     14  C   UNL     1     -12.876  12.381  71.392  0.00  0.00    -0.000 A 
ATOM     15  C   UNL     1     -11.470  11.652  66.998  0.00  0.00    -0.000 A 
ATOM     16  C   UNL     1     -12.213  13.066  70.394  0.00  0.00    -0.000 A 
ENDROOT
BRANCH   1  17
ATOM     17  C   UNL     1     -10.796  10.356  69.961  0.00  0.00    +0.043 C 
BRANCH  17  18
ATOM     18  C   UNL     1     -10.960   8.934  70.432  0.00  0.00    +0.077 C 
BRANCH  18  20
ATOM     19  C   UNL     1     -10.033   8.164  72.453  0.00  0.00    +0.090 C 
ATOM     20  N   UNL     1     -11.082   9.006  71.887  0.00  0.00    -0.270 NA
ATOM     21  C   UNL     1     -12.389   8.455  72.224  0.00  0.00    +0.090 C 
ENDBRANCH  18  20
ENDBRANCH  17  18
ENDBRANCH   1  17
TORSDOF 3
ENDMDL
MODEL 4
REMARK VINA RESULT:      -6.7      2.743      6.754
REMARK  Name = 
REMARK  3 active torsions:
REMARK  status: ('A' for Active; 'I' for Inactive)
REMARK    1  A    between atoms: N_2  and  C_4
REMARK    2  A    between atoms: C_4  and  C_5
REMARK    3  A    between atoms: C_5  and  C_6
REMARK                            x       y       z     vdW  Elec       q    Type
REMARK                         _______ _______ _______ _____ _____    ______ ____
ROOT
ATOM      1  C   UNL     1     -11.050  15.258  69.938  0.00  0.00    -0.025 C 
ATOM      2  C   UNL     1     -10.890  15.226  68.626  0.00  0.00    -0.004 C 
ATOM      3  C   UNL     1     -10.617  16.513  67.974  0.00  0.00    -0.000 A 
ATOM      4  C   UNL     1     -10.251  16.732  66.653  0.00  0.00    -0.000 A 
ATOM      5  C   UNL     1      -9.333  17.722  66.324  0.00  0.00    -0.000 A 
ATOM      6  C   UNL     1      -8.892  18.581  67.323  0.00  0.00    -0.000 A 
ATOM      7  C   UNL     1      -9.734  18.682  68.425  0.00  0.00    -0.000 A 
ATOM      8  C   UNL     1     -10.624  15.916  65.498  0.00  0.00    -0.000 C 
ATOM      9  C   UNL     1     -11.308  14.772  65.528  0.00  0.00    -0.000 C 
ATOM     10  C   UNL     1     -11.577  13.820  66.586  0.00  0.00    -0.000 A 
ATOM     11  C   UNL     1     -11.542  12.528  66.081  0.00  0.00    -0.000 A 
ATOM     12  C   UNL     1     -11.428  11.425  66.915  0.00  0.00    -0.000 A 
ATOM     13  C   UNL     1     -11.349  11.678  68.278  0.00  0.00    -0.000 A 
ATOM     14  C   UNL     1     -11.405  12.955  68.793  0.00  0.00    -0.000 A 
ATOM     15  C   UNL     1     -10.232  17.475  68.899  0.00  0.00    -0.000 A 
ATOM     16  C   UNL     1     -11.425  14.045  67.948  0.00  0.00    -0.000 A 
ENDROOT
BRANCH   1  17
ATOM     17  C   UNL     1     -12.398  15.538  70.470  0.00  0.00    +0.043 C 
BRANCH  17  18
ATOM     18  C   UNL     1     -12.376  16.055  71.885  0.00  0.00    +0.077 C 
BRANCH  18  20
ATOM     19  C   UNL     1     -13.681  14.182  72.455  0.00  0.00    +0.090 C 
ATOM     20  N   UNL     1     -12.430  14.874  72.744  0.00  0.00    -0.270 NA
ATOM     21  C   UNL     1     -12.442  15.357  74.120  0.00  0.00    +0.090 C 
ENDBRANCH  18  20
ENDBRANCH  17  18
ENDBRANCH   1  17
TORSDOF 3
ENDMDL
MODEL 5
REMARK VINA RESULT:      -6.6      1.978      4.697
REMARK  Name = 
REMARK  3 active torsions:
REMARK  status: ('A' for Active; 'I' for Inactive)
REMARK    1  A    between atoms: N_2  and  C_4
REMARK    2  A    between atoms: C_4  and  C_5
REMARK    3  A    between atoms: C_5  and  C_6
REMARK                            x       y       z     vdW  Elec       q    Type
REMARK                         _______ _______ _______ _____ _____    ______ ____
ROOT
ATOM      1  C   UNL     1     -11.462  10.297  68.348  0.00  0.00    -0.025 C 
ATOM      2  C   UNL     1     -11.746  11.587  68.407  0.00  0.00    -0.004 C 
ATOM      3  C   UNL     1     -11.427  12.377  67.211  0.00  0.00    -0.000 A 
ATOM      4  C   UNL     1     -11.770  13.697  66.953  0.00  0.00    -0.000 A 
ATOM      5  C   UNL     1     -12.124  14.102  65.672  0.00  0.00    -0.000 A 
ATOM      6  C   UNL     1     -11.996  13.195  64.626  0.00  0.00    -0.000 A 
ATOM      7  C   UNL     1     -11.105  12.153  64.858  0.00  0.00    -0.000 A 
ATOM      8  C   UNL     1     -11.953  14.760  67.940  0.00  0.00    -0.000 C 
ATOM      9  C   UNL     1     -11.907  14.623  69.265  0.00  0.00    -0.000 C 
ATOM     10  C   UNL     1     -12.027  13.471  70.134  0.00  0.00    -0.000 A 
ATOM     11  C   UNL     1     -12.730  13.814  71.281  0.00  0.00    -0.000 A 
ATOM     12  C   UNL     1     -13.280  12.848  72.112  0.00  0.00    -0.000 A 
ATOM     13  C   UNL     1     -13.092  11.524  71.739  0.00  0.00    -0.000 A 
ATOM     14  C   UNL     1     -12.377  11.170  70.616  0.00  0.00    -0.000 A 
ATOM     15  C   UNL     1     -11.207  11.559  66.111  0.00  0.00    -0.000 A 
ATOM     16  C   UNL     1     -11.917  12.141  69.750  0.00  0.00    -0.000 A 
ENDROOT
BRANCH   1  17
ATOM     17  C   UNL     1     -10.101   9.864  68.722  0.00  0.00    +0.043 C 
BRANCH  17  18
ATOM     18  C   UNL     1      -9.842   8.411  68.419  0.00  0.00    +0.077 C 
BRANCH  18  20
ATOM     19  C   UNL     1     -10.902   6.799  67.071  0.00  0.00    +0.090 C 
ATOM     20  N   UNL     1     -10.409   8.172  67.092  0.00  0.00    -0.270 NA
ATOM     21  C   UNL     1      -9.315   8.315  66.138  0.00  0.00    +0.090 C 
ENDBRANCH  18  20
ENDBRANCH  17  18
ENDBRANCH   1  17
TORSDOF 3
ENDMDL
MODEL 6
REMARK VINA RESULT:      -6.6      2.119      5.130
REMARK  Name = 
REMARK  3 active torsions:
REMARK  status: ('A' for Active; 'I' for Inactive)
REMARK    1  A    between atoms: N_2  and  C_4
REMARK    2  A    between atoms: C_4  and  C_5
REMARK    3  A    between atoms: C_5  and  C_6
REMARK                            x       y       z     vdW  Elec       q    Type
REMARK                         _______ _______ _______ _____ _____    ______ ____
ROOT
ATOM      1  C   UNL     1     -11.373  10.177  68.489  0.00  0.00    -0.025 C 
ATOM      2  C   UNL     1     -11.692  11.461  68.491  0.00  0.00    -0.004 C 
ATOM      3  C   UNL     1     -11.366  12.212  67.272  0.00  0.00    -0.000 A 
ATOM      4  C   UNL     1     -11.737  13.511  66.954  0.00  0.00    -0.000 A 
ATOM      5  C   UNL     1     -12.073  13.856  65.651  0.00  0.00    -0.000 A 
ATOM      6  C   UNL     1     -11.898  12.913  64.645  0.00  0.00    -0.000 A 
ATOM      7  C   UNL     1     -10.986  11.905  64.937  0.00  0.00    -0.000 A 
ATOM      8  C   UNL     1     -11.970  14.606  67.894  0.00  0.00    -0.000 C 
ATOM      9  C   UNL     1     -11.950  14.522  69.225  0.00  0.00    -0.000 C 
ATOM     10  C   UNL     1     -12.060  13.402  70.136  0.00  0.00    -0.000 A 
ATOM     11  C   UNL     1     -12.798  13.770  71.253  0.00  0.00    -0.000 A 
ATOM     12  C   UNL     1     -13.341  12.823  72.109  0.00  0.00    -0.000 A 
ATOM     13  C   UNL     1     -13.110  11.491  71.793  0.00  0.00    -0.000 A 
ATOM     14  C   UNL     1     -12.361  11.113  70.701  0.00  0.00    -0.000 A 
ATOM     15  C   UNL     1     -11.101  11.358  66.210  0.00  0.00    -0.000 A 
ATOM     16  C   UNL     1     -11.907  12.061  69.807  0.00  0.00    -0.000 A 
ENDROOT
BRANCH   1  17
ATOM     17  C   UNL     1     -10.011   9.796  68.909  0.00  0.00    +0.043 C 
BRANCH  17  18
ATOM     18  C   UNL     1      -9.832   8.306  69.043  0.00  0.00    +0.077 C 
BRANCH  18  20
ATOM     19  C   UNL     1     -10.343   7.916  71.307  0.00  0.00    +0.090 C 
ATOM     20  N   UNL     1     -10.884   7.857  69.953  0.00  0.00    -0.270 NA
ATOM     21  C   UNL     1     -11.180   6.473  69.602  0.00  0.00    +0.090 C 
ENDBRANCH  18  20
ENDBRANCH  17  18
ENDBRANCH   1  17
TORSDOF 3
ENDMDL
MODEL 7
REMARK VINA RESULT:      -6.3      2.338      6.600
REMARK  Name = 
REMARK  3 active torsions:
REMARK  status: ('A' for Active; 'I' for Inactive)
REMARK    1  A    between atoms: N_2  and  C_4
REMARK    2  A    between atoms: C_4  and  C_5
REMARK    3  A    between atoms: C_5  and  C_6
REMARK                            x       y       z     vdW  Elec       q    Type
REMARK                         _______ _______ _______ _____ _____    ______ ____
ROOT
ATOM      1  C   UNL     1     -11.132  11.226  69.637  0.00  0.00    -0.025 C 
ATOM      2  C   UNL     1     -11.239  12.040  68.600  0.00  0.00    -0.004 C 
ATOM      3  C   UNL     1     -11.791  13.372  68.875  0.00  0.00    -0.000 A 
ATOM      4  C   UNL     1     -11.855  14.457  68.011  0.00  0.00    -0.000 A 
ATOM      5  C   UNL     1     -11.651  15.750  68.476  0.00  0.00    -0.000 A 
ATOM      6  C   UNL     1     -11.519  15.954  69.844  0.00  0.00    -0.000 A 
ATOM      7  C   UNL     1     -12.061  14.952  70.642  0.00  0.00    -0.000 A 
ATOM      8  C   UNL     1     -11.981  14.406  66.555  0.00  0.00    -0.000 C 
ATOM      9  C   UNL     1     -11.969  13.307  65.800  0.00  0.00    -0.000 C 
ATOM     10  C   UNL     1     -11.504  11.957  66.044  0.00  0.00    -0.000 A 
ATOM     11  C   UNL     1     -10.919  11.442  64.895  0.00  0.00    -0.000 A 
ATOM     12  C   UNL     1     -10.100  10.323  64.936  0.00  0.00    -0.000 A 
ATOM     13  C   UNL     1      -9.894   9.746  66.182  0.00  0.00    -0.000 A 
ATOM     14  C   UNL     1     -10.488  10.233  67.326  0.00  0.00    -0.000 A 
ATOM     15  C   UNL     1     -11.774  13.654  70.234  0.00  0.00    -0.000 A 
ATOM     16  C   UNL     1     -11.223  11.400  67.284  0.00  0.00    -0.000 A 
ENDROOT
BRANCH   1  17
ATOM     17  C   UNL     1     -12.301  10.402  70.001  0.00  0.00    +0.043 C 
BRANCH  17  18
ATOM     18  C   UNL     1     -12.266   9.931  71.432  0.00  0.00    +0.077 C 
BRANCH  18  20
ATOM     19  C   UNL     1     -14.120   8.687  72.174  0.00  0.00    +0.090 C 
ATOM     20  N   UNL     1     -12.868   8.599  71.430  0.00  0.00    -0.270 NA
ATOM     21  C   UNL     1     -11.940   7.720  72.132  0.00  0.00    +0.090 C 
ENDBRANCH  18  20
ENDBRANCH  17  18
ENDBRANCH   1  17
TORSDOF 3
ENDMDL
MODEL 8
REMARK VINA RESULT:      -6.3      2.378      5.432
REMARK  Name = 
REMARK  3 active torsions:
REMARK  status: ('A' for Active; 'I' for Inactive)
REMARK    1  A    between atoms: N_2  and  C_4
REMARK    2  A    between atoms: C_4  and  C_5
REMARK    3  A    between atoms: C_5  and  C_6
REMARK                            x       y       z     vdW  Elec       q    Type
REMARK                         _______ _______ _______ _____ _____    ______ ____
ROOT
ATOM      1  C   UNL     1     -11.514  14.780  66.918  0.00  0.00    -0.025 C 
ATOM      2  C   UNL     1     -11.360  13.486  67.145  0.00  0.00    -0.004 C 
ATOM      3  C   UNL     1     -11.350  13.071  68.554  0.00  0.00    -0.000 A 
ATOM      4  C   UNL     1     -11.369  11.776  69.054  0.00  0.00    -0.000 A 
ATOM      5  C   UNL     1     -12.087  11.468  70.203  0.00  0.00    -0.000 A 
ATOM      6  C   UNL     1     -12.674  12.504  70.921  0.00  0.00    -0.000 A 
ATOM      7  C   UNL     1     -12.112  13.759  70.706  0.00  0.00    -0.000 A 
ATOM      8  C   UNL     1     -10.808  10.586  68.416  0.00  0.00    -0.000 C 
ATOM      9  C   UNL     1     -10.259  10.526  67.203  0.00  0.00    -0.000 C 
ATOM     10  C   UNL     1     -10.338  11.397  66.048  0.00  0.00    -0.000 A 
ATOM     11  C   UNL     1     -10.369  10.640  64.885  0.00  0.00    -0.000 A 
ATOM     12  C   UNL     1     -10.780  11.184  63.676  0.00  0.00    -0.000 A 
ATOM     13  C   UNL     1     -11.158  12.520  63.689  0.00  0.00    -0.000 A 
ATOM     14  C   UNL     1     -11.109  13.287  64.832  0.00  0.00    -0.000 A 
ATOM     15  C   UNL     1     -11.854  14.069  69.377  0.00  0.00    -0.000 A 
ATOM     16  C   UNL     1     -10.789  12.710  66.044  0.00  0.00    -0.000 A 
ENDROOT
BRANCH   1  17
ATOM     17  C   UNL     1     -10.312  15.636  66.911  0.00  0.00    +0.043 C 
BRANCH  17  18
ATOM     18  C   UNL     1     -10.628  17.095  67.118  0.00  0.00    +0.077 C 
BRANCH  18  20
ATOM     19  C   UNL     1      -8.461  17.736  66.460  0.00  0.00    +0.090 C 
ATOM     20  N   UNL     1      -9.871  17.816  66.096  0.00  0.00    -0.270 NA
ATOM     21  C   UNL     1     -10.314  19.204  66.150  0.00  0.00    +0.090 C 
ENDBRANCH  18  20
ENDBRANCH  17  18
ENDBRANCH   1  17
TORSDOF 3
ENDMDL
MODEL 9
REMARK VINA RESULT:      -6.2      2.076      5.540
REMARK  Name = 
REMARK  3 active torsions:
REMARK  status: ('A' for Active; 'I' for Inactive)
REMARK    1  A    between atoms: N_2  and  C_4
REMARK    2  A    between atoms: C_4  and  C_5
REMARK    3  A    between atoms: C_5  and  C_6
REMARK                            x       y       z     vdW  Elec       q    Type
REMARK                         _______ _______ _______ _____ _____    ______ ____
ROOT
ATOM      1  C   UNL     1     -11.885  12.558  68.370  0.00  0.00    -0.025 C 
ATOM      2  C   UNL     1     -11.401  11.558  67.653  0.00  0.00    -0.004 C 
ATOM      3  C   UNL     1     -10.742  10.481  68.402  0.00  0.00    -0.000 A 
ATOM      4  C   UNL     1     -10.302   9.258  67.915  0.00  0.00    -0.000 A 
ATOM      5  C   UNL     1     -10.420   8.104  68.680  0.00  0.00    -0.000 A 
ATOM      6  C   UNL     1     -10.858   8.217  69.995  0.00  0.00    -0.000 A 
ATOM      7  C   UNL     1     -10.690   9.474  70.564  0.00  0.00    -0.000 A 
ATOM      8  C   UNL     1      -9.825   8.979  66.562  0.00  0.00    -0.000 C 
ATOM      9  C   UNL     1      -9.812   9.832  65.537  0.00  0.00    -0.000 C 
ATOM     10  C   UNL     1     -10.520  11.071  65.287  0.00  0.00    -0.000 A 
ATOM     11  C   UNL     1     -10.869  11.154  63.946  0.00  0.00    -0.000 A 
ATOM     12  C   UNL     1     -11.830  12.049  63.500  0.00  0.00    -0.000 A 
ATOM     13  C   UNL     1     -12.425  12.856  64.461  0.00  0.00    -0.000 A 
ATOM     14  C   UNL     1     -12.071  12.798  65.791  0.00  0.00    -0.000 A 
ATOM     15  C   UNL     1     -11.057  10.542  69.753  0.00  0.00    -0.000 A 
ATOM     16  C   UNL     1     -11.183  11.840  66.234  0.00  0.00    -0.000 A 
ENDROOT
BRANCH   1  17
ATOM     17  C   UNL     1     -10.981  13.675  68.710  0.00  0.00    +0.043 C 
BRANCH  17  18
ATOM     18  C   UNL     1     -11.662  15.018  68.658  0.00  0.00    +0.077 C 
BRANCH  18  20
ATOM     19  C   UNL     1      -9.503  15.582  69.405  0.00  0.00    +0.090 C 
ATOM     20  N   UNL     1     -10.921  15.878  69.579  0.00  0.00    -0.270 NA
ATOM     21  C   UNL     1     -11.339  15.506  70.926  0.00  0.00    +0.090 C 
ENDBRANCH  18  20
ENDBRANCH  17  18
ENDBRANCH   1  17
TORSDOF 3
ENDMDL
