MODEL 1
REMARK VINA RESULT:      -6.9      0.000      0.000
REMARK  Name = 
REMARK  3 active torsions:
REMARK  status: ('A' for Active; 'I' for Inactive)
REMARK    1  A    between atoms: C_2  and  C_3
REMARK    2  A    between atoms: C_2  and  C_6
REMARK    3  A    between atoms: C_9  and  C_10
REMARK                            x       y       z     vdW  Elec       q    Type
REMARK                         _______ _______ _______ _____ _____    ______ ____
ROOT
ATOM      1  C   UNL     1     -11.235  14.233  67.058  0.00  0.00    -0.010 A 
ATOM      2  C   UNL     1     -11.159  15.542  67.379  0.00  0.00    +0.026 A 
ATOM      3  C   UNL     1     -11.341  15.871  68.719  0.00  0.00    +0.140 A 
ATOM      4  F   UNL     1     -10.718  16.955  69.268  0.00  0.00    -0.204 F 
ATOM      5  C   UNL     1     -11.833  14.897  69.581  0.00  0.00    +0.027 A 
ATOM      6  C   UNL     1     -11.740  13.557  69.221  0.00  0.00    +0.002 A 
ATOM      7  C   UNL     1     -11.337  13.191  67.939  0.00  0.00    -0.004 A 
ENDROOT
BRANCH   5   8
ATOM      8  C   UNL     1     -12.398  15.348  70.839  0.00  0.00    +0.002 A 
ATOM      9  C   UNL     1     -13.751  15.187  71.011  0.00  0.00    +0.000 A 
ATOM     10  C   UNL     1     -14.313  15.551  72.202  0.00  0.00    +0.000 A 
ATOM     11  C   UNL     1     -13.468  15.929  73.239  0.00  0.00    +0.000 A 
ATOM     12  C   UNL     1     -12.089  15.876  73.125  0.00  0.00    +0.000 A 
ATOM     13  C   UNL     1     -11.579  15.383  71.955  0.00  0.00    +0.000 A 
ENDBRANCH   5   8
BRANCH   1  15
ATOM     14  C   UNL     1     -10.926  12.180  65.900  0.00  0.00    +0.017 C 
ATOM     15  C   UNL     1     -10.873  13.811  65.525  0.00  0.00    +0.126 C 
BRANCH  15  16
ATOM     16  C   UNL     1     -12.437  13.917  65.053  0.00  0.00    +0.368 C 
ATOM     17  O   UNL     1     -13.187  12.808  65.000  0.00  0.00    -0.245 OA
ATOM     18  O   UNL     1     -12.562  14.807  64.162  0.00  0.00    -0.245 OA
ENDBRANCH  15  16
ENDBRANCH   1  15
TORSDOF 3
ENDMDL
MODEL 2
REMARK VINA RESULT:      -6.4      1.574      2.010
REMARK  Name = 
REMARK  3 active torsions:
REMARK  status: ('A' for Active; 'I' for Inactive)
REMARK    1  A    between atoms: C_2  and  C_3
REMARK    2  A    between atoms: C_2  and  C_6
REMARK    3  A    between atoms: C_9  and  C_10
REMARK                            x       y       z     vdW  Elec       q    Type
REMARK                         _______ _______ _______ _____ _____    ______ ____
ROOT
ATOM      1  C   UNL     1     -10.633  14.766  66.699  0.00  0.00    -0.010 A 
ATOM      2  C   UNL     1      -9.843  15.369  67.612  0.00  0.00    +0.026 A 
ATOM      3  C   UNL     1     -10.144  15.137  68.951  0.00  0.00    +0.140 A 
ATOM      4  F   UNL     1      -9.163  15.137  69.901  0.00  0.00    -0.204 F 
ATOM      5  C   UNL     1     -11.355  14.531  69.265  0.00  0.00    +0.027 A 
ATOM      6  C   UNL     1     -12.031  13.810  68.287  0.00  0.00    +0.002 A 
ATOM      7  C   UNL     1     -11.610  13.844  66.959  0.00  0.00    -0.004 A 
ENDROOT
BRANCH   5   8
ATOM      8  C   UNL     1     -11.832  14.668  70.628  0.00  0.00    +0.002 A 
ATOM      9  C   UNL     1     -11.777  15.922  71.187  0.00  0.00    +0.000 A 
ATOM     10  C   UNL     1     -12.265  16.103  72.450  0.00  0.00    +0.000 A 
ATOM     11  C   UNL     1     -12.930  15.044  73.056  0.00  0.00    +0.000 A 
ATOM     12  C   UNL     1     -13.175  13.852  72.397  0.00  0.00    +0.000 A 
ATOM     13  C   UNL     1     -12.777  13.769  71.090  0.00  0.00    +0.000 A 
ENDBRANCH   5   8
BRANCH   1  15
ATOM     14  C   UNL     1     -11.336  13.751  64.666  0.00  0.00    +0.017 C 
ATOM     15  C   UNL     1     -10.208  14.898  65.130  0.00  0.00    +0.126 C 
BRANCH  15  16
ATOM     16  C   UNL     1     -11.187  16.188  64.901  0.00  0.00    +0.368 C 
ATOM     17  O   UNL     1     -12.074  16.175  63.895  0.00  0.00    -0.245 OA
ATOM     18  O   UNL     1     -10.571  17.257  65.184  0.00  0.00    -0.245 OA
ENDBRANCH  15  16
ENDBRANCH   1  15
TORSDOF 3
ENDMDL
MODEL 3
REMARK VINA RESULT:      -6.4      1.360      1.773
REMARK  Name = 
REMARK  3 active torsions:
REMARK  status: ('A' for Active; 'I' for Inactive)
REMARK    1  A    between atoms: C_2  and  C_3
REMARK    2  A    between atoms: C_2  and  C_6
REMARK    3  A    between atoms: C_9  and  C_10
REMARK                            x       y       z     vdW  Elec       q    Type
REMARK                         _______ _______ _______ _____ _____    ______ ____
ROOT
ATOM      1  C   UNL     1     -11.818  12.912  67.335  0.00  0.00    -0.010 A 
ATOM      2  C   UNL     1     -11.901  14.258  67.295  0.00  0.00    +0.026 A 
ATOM      3  C   UNL     1     -11.910  14.923  68.518  0.00  0.00    +0.140 A 
ATOM      4  F   UNL     1     -11.387  16.178  68.639  0.00  0.00    -0.204 F 
ATOM      5  C   UNL     1     -12.093  14.178  69.677  0.00  0.00    +0.027 A 
ATOM      6  C   UNL     1     -11.847  12.809  69.655  0.00  0.00    +0.002 A 
ATOM      7  C   UNL     1     -11.606  12.149  68.452  0.00  0.00    -0.004 A 
ENDROOT
BRANCH   5   8
ATOM      8  C   UNL     1     -12.508  14.894  70.868  0.00  0.00    +0.002 A 
ATOM      9  C   UNL     1     -13.834  14.816  71.216  0.00  0.00    +0.000 A 
ATOM     10  C   UNL     1     -14.255  15.433  72.359  0.00  0.00    +0.000 A 
ATOM     11  C   UNL     1     -13.295  15.988  73.198  0.00  0.00    +0.000 A 
ATOM     12  C   UNL     1     -11.939  15.868  72.948  0.00  0.00    +0.000 A 
ATOM     13  C   UNL     1     -11.568  15.131  71.857  0.00  0.00    +0.000 A 
ENDBRANCH   5   8
BRANCH   1  15
ATOM     14  C   UNL     1     -12.593  13.249  65.113  0.00  0.00    +0.017 C 
ATOM     15  C   UNL     1     -11.651  12.124  65.917  0.00  0.00    +0.126 C 
BRANCH  15  16
ATOM     16  C   UNL     1     -10.221  12.855  65.600  0.00  0.00    +0.368 C 
ATOM     17  O   UNL     1     -10.120  13.678  64.547  0.00  0.00    -0.245 OA
ATOM     18  O   UNL     1      -9.263  12.080  65.890  0.00  0.00    -0.245 OA
ENDBRANCH  15  16
ENDBRANCH   1  15
TORSDOF 3
ENDMDL
MODEL 4
REMARK VINA RESULT:      -6.4      4.768      6.665
REMARK  Name = 
REMARK  3 active torsions:
REMARK  status: ('A' for Active; 'I' for Inactive)
REMARK    1  A    between atoms: C_2  and  C_3
REMARK    2  A    between atoms: C_2  and  C_6
REMARK    3  A    between atoms: C_9  and  C_10
REMARK                            x       y       z     vdW  Elec       q    Type
REMARK                         _______ _______ _______ _____ _____    ______ ____
ROOT
ATOM      1  C   UNL     1     -12.867  13.746  71.062  0.00  0.00    -0.010 A 
ATOM      2  C   UNL     1     -12.191  13.319  69.974  0.00  0.00    +0.026 A 
ATOM      3  C   UNL     1     -12.049  11.942  69.825  0.00  0.00    +0.140 A 
ATOM      4  F   UNL     1     -11.973  11.374  68.586  0.00  0.00    -0.204 F 
ATOM      5  C   UNL     1     -12.370  11.121  70.900  0.00  0.00    +0.027 A 
ATOM      6  C   UNL     1     -13.191  11.609  71.911  0.00  0.00    +0.002 A 
ATOM      7  C   UNL     1     -13.540  12.957  71.956  0.00  0.00    -0.004 A 
ENDROOT
BRANCH   5   8
ATOM      8  C   UNL     1     -11.841   9.770  70.884  0.00  0.00    +0.002 A 
ATOM      9  C   UNL     1     -10.479   9.633  70.781  0.00  0.00    +0.000 A 
ATOM     10  C   UNL     1      -9.937   8.380  70.815  0.00  0.00    +0.000 A 
ATOM     11  C   UNL     1     -10.775   7.309  71.102  0.00  0.00    +0.000 A 
ATOM     12  C   UNL     1     -12.110   7.482  71.424  0.00  0.00    +0.000 A 
ATOM     13  C   UNL     1     -12.571   8.768  71.500  0.00  0.00    +0.000 A 
ENDBRANCH   5   8
BRANCH   1  15
ATOM     14  C   UNL     1     -14.790  15.062  71.537  0.00  0.00    +0.017 C 
ATOM     15  C   UNL     1     -13.179  15.342  71.178  0.00  0.00    +0.126 C 
BRANCH  15  16
ATOM     16  C   UNL     1     -12.675  15.399  72.734  0.00  0.00    +0.368 C 
ATOM     17  O   UNL     1     -13.379  16.105  73.630  0.00  0.00    -0.245 OA
ATOM     18  O   UNL     1     -11.411  15.402  72.781  0.00  0.00    -0.245 OA
ENDBRANCH  15  16
ENDBRANCH   1  15
TORSDOF 3
ENDMDL
MODEL 5
REMARK VINA RESULT:      -6.3      4.122      4.982
REMARK  Name = 
REMARK  3 active torsions:
REMARK  status: ('A' for Active; 'I' for Inactive)
REMARK    1  A    between atoms: C_2  and  C_3
REMARK    2  A    between atoms: C_2  and  C_6
REMARK    3  A    between atoms: C_9  and  C_10
REMARK                            x       y       z     vdW  Elec       q    Type
REMARK                         _______ _______ _______ _____ _____    ______ ____
ROOT
ATOM      1  C   UNL     1     -10.816  12.239  65.737  0.00  0.00    -0.010 A 
ATOM      2  C   UNL     1     -10.384  10.960  65.737  0.00  0.00    +0.026 A 
ATOM      3  C   UNL     1     -10.672  10.202  66.868  0.00  0.00    +0.140 A 
ATOM      4  F   UNL     1     -10.864   8.853  66.779  0.00  0.00    -0.204 F 
ATOM      5  C   UNL     1     -11.140  10.854  68.003  0.00  0.00    +0.027 A 
ATOM      6  C   UNL     1     -11.698  12.122  67.881  0.00  0.00    +0.002 A 
ATOM      7  C   UNL     1     -11.623  12.819  66.678  0.00  0.00    -0.004 A 
ENDROOT
BRANCH   5   8
ATOM      8  C   UNL     1     -11.042  10.143  69.264  0.00  0.00    +0.002 A 
ATOM      9  C   UNL     1      -9.787   9.758  69.669  0.00  0.00    +0.000 A 
ATOM     10  C   UNL     1      -9.646   9.133  70.876  0.00  0.00    +0.000 A 
ATOM     11  C   UNL     1     -10.758   9.048  71.706  0.00  0.00    +0.000 A 
ATOM     12  C   UNL     1     -11.968   9.636  71.381  0.00  0.00    +0.000 A 
ATOM     13  C   UNL     1     -12.019  10.358  70.221  0.00  0.00    +0.000 A 
ENDBRANCH   5   8
BRANCH   1  15
ATOM     14  C   UNL     1     -10.366  11.713  63.462  0.00  0.00    +0.017 C 
ATOM     15  C   UNL     1     -10.626  13.099  64.364  0.00  0.00    +0.126 C 
BRANCH  15  16
ATOM     16  C   UNL     1     -12.240  13.162  64.098  0.00  0.00    +0.368 C 
ATOM     17  O   UNL     1     -12.853  12.128  63.506  0.00  0.00    -0.245 OA
ATOM     18  O   UNL     1     -12.588  14.347  63.818  0.00  0.00    -0.245 OA
ENDBRANCH  15  16
ENDBRANCH   1  15
TORSDOF 3
ENDMDL
MODEL 6
REMARK VINA RESULT:      -6.3      3.056      6.405
REMARK  Name = 
REMARK  3 active torsions:
REMARK  status: ('A' for Active; 'I' for Inactive)
REMARK    1  A    between atoms: C_2  and  C_3
REMARK    2  A    between atoms: C_2  and  C_6
REMARK    3  A    between atoms: C_9  and  C_10
REMARK                            x       y       z     vdW  Elec       q    Type
REMARK                         _______ _______ _______ _____ _____    ______ ____
ROOT
ATOM      1  C   UNL     1     -12.065  13.890  70.379  0.00  0.00    -0.010 A 
ATOM      2  C   UNL     1     -12.053  12.557  70.165  0.00  0.00    +0.026 A 
ATOM      3  C   UNL     1     -11.701  12.130  68.888  0.00  0.00    +0.140 A 
ATOM      4  F   UNL     1     -11.071  10.934  68.696  0.00  0.00    -0.204 F 
ATOM      5  C   UNL     1     -11.639  13.071  67.867  0.00  0.00    +0.027 A 
ATOM      6  C   UNL     1     -11.512  14.419  68.187  0.00  0.00    +0.002 A 
ATOM      7  C   UNL     1     -11.635  14.852  69.505  0.00  0.00    -0.004 A 
ENDROOT
BRANCH   5   8
ATOM      8  C   UNL     1     -11.682  12.576  66.504  0.00  0.00    +0.002 A 
ATOM      9  C   UNL     1     -12.446  13.280  65.606  0.00  0.00    +0.000 A 
ATOM     10  C   UNL     1     -12.471  12.877  64.301  0.00  0.00    +0.000 A 
ATOM     11  C   UNL     1     -11.607  11.861  63.911  0.00  0.00    +0.000 A 
ATOM     12  C   UNL     1     -10.681  11.306  64.777  0.00  0.00    +0.000 A 
ATOM     13  C   UNL     1     -10.611  11.835  66.037  0.00  0.00    +0.000 A 
ENDBRANCH   5   8
BRANCH   1  15
ATOM     14  C   UNL     1     -12.108  16.007  71.461  0.00  0.00    +0.017 C 
ATOM     15  C   UNL     1     -12.323  14.407  71.904  0.00  0.00    +0.126 C 
BRANCH  15  16
ATOM     16  C   UNL     1     -13.947  14.402  71.705  0.00  0.00    +0.368 C 
ATOM     17  O   UNL     1     -14.583  15.551  71.438  0.00  0.00    -0.245 OA
ATOM     18  O   UNL     1     -14.477  13.554  72.481  0.00  0.00    -0.245 OA
ENDBRANCH  15  16
ENDBRANCH   1  15
TORSDOF 3
ENDMDL
MODEL 7
REMARK VINA RESULT:      -6.1      3.410      4.567
REMARK  Name = 
REMARK  3 active torsions:
REMARK  status: ('A' for Active; 'I' for Inactive)
REMARK    1  A    between atoms: C_2  and  C_3
REMARK    2  A    between atoms: C_2  and  C_6
REMARK    3  A    between atoms: C_9  and  C_10
REMARK                            x       y       z     vdW  Elec       q    Type
REMARK                         _______ _______ _______ _____ _____    ______ ____
ROOT
ATOM      1  C   UNL     1     -11.400  13.879  66.157  0.00  0.00    -0.010 A 
ATOM      2  C   UNL     1     -10.389  14.418  65.443  0.00  0.00    +0.026 A 
ATOM      3  C   UNL     1      -9.829  15.593  65.938  0.00  0.00    +0.140 A 
ATOM      4  F   UNL     1      -8.513  15.888  65.724  0.00  0.00    -0.204 F 
ATOM      5  C   UNL     1     -10.490  16.264  66.960  0.00  0.00    +0.027 A 
ATOM      6  C   UNL     1     -11.421  15.581  67.736  0.00  0.00    +0.002 A 
ATOM      7  C   UNL     1     -11.835  14.298  67.385  0.00  0.00    -0.004 A 
ENDROOT
BRANCH   5   8
ATOM      8  C   UNL     1     -10.138  17.655  67.176  0.00  0.00    +0.002 A 
ATOM      9  C   UNL     1     -10.456  18.543  66.178  0.00  0.00    +0.000 A 
ATOM     10  C   UNL     1     -10.189  19.870  66.365  0.00  0.00    +0.000 A 
ATOM     11  C   UNL     1      -9.744  20.281  67.616  0.00  0.00    +0.000 A 
ATOM     12  C   UNL     1      -9.637  19.408  68.685  0.00  0.00    +0.000 A 
ATOM     13  C   UNL     1     -10.039  18.116  68.477  0.00  0.00    +0.000 A 
ENDBRANCH   5   8
BRANCH   1  15
ATOM     14  C   UNL     1     -10.817  12.307  64.471  0.00  0.00    +0.017 C 
ATOM     15  C   UNL     1     -11.967  12.426  65.681  0.00  0.00    +0.126 C 
BRANCH  15  16
ATOM     16  C   UNL     1     -11.090  11.635  66.814  0.00  0.00    +0.368 C 
ATOM     17  O   UNL     1      -9.909  11.097  66.478  0.00  0.00    -0.245 OA
ATOM     18  O   UNL     1     -11.860  11.021  67.609  0.00  0.00    -0.245 OA
ENDBRANCH  15  16
ENDBRANCH   1  15
TORSDOF 3
ENDMDL
MODEL 8
REMARK VINA RESULT:      -6.1      3.360      4.063
REMARK  Name = 
REMARK  3 active torsions:
REMARK  status: ('A' for Active; 'I' for Inactive)
REMARK    1  A    between atoms: C_2  and  C_3
REMARK    2  A    between atoms: C_2  and  C_6
REMARK    3  A    between atoms: C_9  and  C_10
REMARK                            x       y       z     vdW  Elec       q    Type
REMARK                         _______ _______ _______ _____ _____    ______ ____
ROOT
ATOM      1  C   UNL     1     -10.865  12.342  66.050  0.00  0.00    -0.010 A 
ATOM      2  C   UNL     1     -11.315  13.120  67.057  0.00  0.00    +0.026 A 
ATOM      3  C   UNL     1     -11.251  12.584  68.340  0.00  0.00    +0.140 A 
ATOM      4  F   UNL     1     -11.074  13.388  69.430  0.00  0.00    -0.204 F 
ATOM      5  C   UNL     1     -10.982  11.227  68.481  0.00  0.00    +0.027 A 
ATOM      6  C   UNL     1     -10.385  10.537  67.431  0.00  0.00    +0.002 A 
ATOM      7  C   UNL     1     -10.228  11.137  66.183  0.00  0.00    -0.004 A 
ENDROOT
BRANCH   5   8
ATOM      8  C   UNL     1     -11.320  10.611  69.750  0.00  0.00    +0.002 A 
ATOM      9  C   UNL     1     -12.638  10.651  70.133  0.00  0.00    +0.000 A 
ATOM     10  C   UNL     1     -13.006  10.036  71.297  0.00  0.00    +0.000 A 
ATOM     11  C   UNL     1     -12.057   9.272  71.965  0.00  0.00    +0.000 A 
ATOM     12  C   UNL     1     -10.788   9.058  71.453  0.00  0.00    +0.000 A 
ATOM     13  C   UNL     1     -10.514   9.591  70.224  0.00  0.00    +0.000 A 
ENDBRANCH   5   8
BRANCH   1  15
ATOM     14  C   UNL     1     -10.940  11.510  63.824  0.00  0.00    +0.017 C 
ATOM     15  C   UNL     1     -10.786  13.005  64.562  0.00  0.00    +0.126 C 
BRANCH  15  16
ATOM     16  C   UNL     1     -12.386  13.351  64.556  0.00  0.00    +0.368 C 
ATOM     17  O   UNL     1     -13.277  12.356  64.447  0.00  0.00    -0.245 OA
ATOM     18  O   UNL     1     -12.590  14.449  63.960  0.00  0.00    -0.245 OA
ENDBRANCH  15  16
ENDBRANCH   1  15
TORSDOF 3
ENDMDL
MODEL 9
REMARK VINA RESULT:      -6.1      3.176      4.454
REMARK  Name = 
REMARK  3 active torsions:
REMARK  status: ('A' for Active; 'I' for Inactive)
REMARK    1  A    between atoms: C_2  and  C_3
REMARK    2  A    between atoms: C_2  and  C_6
REMARK    3  A    between atoms: C_9  and  C_10
REMARK                            x       y       z     vdW  Elec       q    Type
REMARK                         _______ _______ _______ _____ _____    ______ ____
ROOT
ATOM      1  C   UNL     1     -10.561  13.699  66.033  0.00  0.00    -0.010 A 
ATOM      2  C   UNL     1     -10.939  14.048  67.281  0.00  0.00    +0.026 A 
ATOM      3  C   UNL     1     -11.048  15.410  67.545  0.00  0.00    +0.140 A 
ATOM      4  F   UNL     1     -11.950  15.880  68.456  0.00  0.00    -0.204 F 
ATOM      5  C   UNL     1     -10.526  16.310  66.622  0.00  0.00    +0.027 A 
ATOM      6  C   UNL     1     -10.297  15.892  65.315  0.00  0.00    +0.002 A 
ATOM      7  C   UNL     1     -10.406  14.547  64.969  0.00  0.00    -0.004 A 
ENDROOT
BRANCH   5   8
ATOM      8  C   UNL     1     -10.274  17.662  67.083  0.00  0.00    +0.002 A 
ATOM      9  C   UNL     1      -9.396  17.814  68.127  0.00  0.00    +0.000 A 
ATOM     10  C   UNL     1      -9.092  19.075  68.556  0.00  0.00    +0.000 A 
ATOM     11  C   UNL     1      -9.570  20.153  67.820  0.00  0.00    +0.000 A 
ATOM     12  C   UNL     1     -10.273  19.986  66.639  0.00  0.00    +0.000 A 
ATOM     13  C   UNL     1     -10.439  18.705  66.188  0.00  0.00    +0.000 A 
ENDBRANCH   5   8
BRANCH   1  15
ATOM     14  C   UNL     1     -11.619  11.763  66.918  0.00  0.00    +0.017 C 
ATOM     15  C   UNL     1     -10.576  12.113  65.656  0.00  0.00    +0.126 C 
BRANCH  15  16
ATOM     16  C   UNL     1     -11.748  12.319  64.532  0.00  0.00    +0.368 C 
ATOM     17  O   UNL     1     -13.019  12.477  64.925  0.00  0.00    -0.245 OA
ATOM     18  O   UNL     1     -11.486  11.634  63.501  0.00  0.00    -0.245 OA
ENDBRANCH  15  16
ENDBRANCH   1  15
TORSDOF 3
ENDMDL
