MODEL 1
REMARK VINA RESULT:      -7.3      0.000      0.000
REMARK  Name = 
REMARK  7 active torsions:
REMARK  status: ('A' for Active; 'I' for Inactive)
REMARK    1  A    between atoms: C_8  and  O_9
REMARK    2  A    between atoms: O_9  and  C_10
REMARK    3  A    between atoms: C_10  and  C_11
REMARK    4  A    between atoms: C_11  and  C_12
REMARK    5  A    between atoms: C_12  and  C_13
REMARK    6  A    between atoms: C_13  and  N_14
REMARK    7  A    between atoms: N_17  and  C_18
REMARK                            x       y       z     vdW  Elec       q    Type
REMARK                         _______ _______ _______ _____ _____    ______ ____
ROOT
ATOM      1  C   UNL     1      -9.700  15.197  65.679  0.00  0.00    +0.021 C 
ENDROOT
BRANCH   1   2
ATOM      2  C   UNL     1     -10.469  14.113  64.941  0.00  0.00    +0.049 C 
BRANCH   2   3
ATOM      3  C   UNL     1     -11.392  13.471  65.963  0.00  0.00    +0.205 C 
BRANCH   3   4
ATOM      4  O   UNL     1     -10.658  13.247  67.161  0.00  0.00    -0.475 OA
BRANCH   4  12
ATOM      5  O   UNL     1     -11.933  16.473  73.065  0.00  0.00    -0.273 OA
ATOM      6  C   UNL     1     -12.566  15.756  72.230  0.00  0.00    +0.246 C 
ATOM      7  N   UNL     1     -12.277  15.812  70.829  0.00  0.00    -0.179 NA
ATOM      8  C   UNL     1     -12.409  14.577  70.114  0.00  0.00    +0.072 A 
ATOM      9  C   UNL     1     -12.595  13.424  70.865  0.00  0.00    -0.006 A 
ATOM     10  C   UNL     1     -12.108  12.220  70.407  0.00  0.00    +0.000 A 
ATOM     11  C   UNL     1     -11.425  12.152  69.200  0.00  0.00    +0.037 A 
ATOM     12  C   UNL     1     -11.366  13.259  68.362  0.00  0.00    +0.140 A 
ATOM     13  C   UNL     1     -13.483  13.447  72.041  0.00  0.00    +0.037 C 
ATOM     14  C   UNL     1     -11.975  14.412  68.821  0.00  0.00    +0.053 A 
ATOM     15  C   UNL     1     -13.636  14.813  72.649  0.00  0.00    +0.092 C 
ENDBRANCH   4  12
ENDBRANCH   3   4
ENDBRANCH   2   3
ENDBRANCH   1   2
BRANCH   1  16
ATOM     16  C   UNL     1     -10.455  16.501  65.464  0.00  0.00    +0.072 C 
BRANCH  16  17
ATOM     17  N   UNL     1      -9.659  17.568  66.066  0.00  0.00    -0.270 NA
ATOM     18  C   UNL     1      -9.052  17.019  67.257  0.00  0.00    +0.094 C 
ATOM     19  C   UNL     1      -8.616  18.082  68.230  0.00  0.00    +0.108 C 
ATOM     20  N   UNL     1      -8.411  19.356  67.547  0.00  0.00    -0.304 N 
ATOM     21  C   UNL     1      -9.546  19.852  66.773  0.00  0.00    +0.108 C 
ATOM     22  C   UNL     1     -10.459  18.743  66.332  0.00  0.00    +0.094 C 
BRANCH  20  23
ATOM     23  C   UNL     1      -7.131  19.531  66.929  0.00  0.00    +0.059 A 
ATOM     24  C   UNL     1      -6.017  19.498  67.751  0.00  0.00    +0.081 A 
ATOM     25 CL   UNL     1      -6.122  20.371  69.268  0.00  0.00    -0.080 Cl
ATOM     26  C   UNL     1      -4.769  19.379  67.179  0.00  0.00    +0.069 A 
ATOM     27 CL   UNL     1      -3.307  19.932  67.963  0.00  0.00    -0.081 Cl
ATOM     28  C   UNL     1      -4.674  19.007  65.850  0.00  0.00    +0.012 A 
ATOM     29  C   UNL     1      -5.802  19.027  65.050  0.00  0.00    +0.002 A 
ATOM     30  C   UNL     1      -7.023  19.454  65.547  0.00  0.00    +0.015 A 
ENDBRANCH  20  23
ENDBRANCH  16  17
ENDBRANCH   1  16
TORSDOF 7
ENDMDL
MODEL 2
REMARK VINA RESULT:      -7.3      4.880      8.354
REMARK  Name = 
REMARK  7 active torsions:
REMARK  status: ('A' for Active; 'I' for Inactive)
REMARK    1  A    between atoms: C_8  and  O_9
REMARK    2  A    between atoms: O_9  and  C_10
REMARK    3  A    between atoms: C_10  and  C_11
REMARK    4  A    between atoms: C_11  and  C_12
REMARK    5  A    between atoms: C_12  and  C_13
REMARK    6  A    between atoms: C_13  and  N_14
REMARK    7  A    between atoms: N_17  and  C_18
REMARK                            x       y       z     vdW  Elec       q    Type
REMARK                         _______ _______ _______ _____ _____    ______ ____
ROOT
ATOM      1  C   UNL     1     -10.494  10.714  64.266  0.00  0.00    +0.021 C 
ENDROOT
BRANCH   1   2
ATOM      2  C   UNL     1     -10.847  11.893  63.375  0.00  0.00    +0.049 C 
BRANCH   2   3
ATOM      3  C   UNL     1     -12.299  12.230  63.665  0.00  0.00    +0.205 C 
BRANCH   3   4
ATOM      4  O   UNL     1     -12.436  13.645  63.717  0.00  0.00    -0.475 OA
BRANCH   4  12
ATOM      5  O   UNL     1      -7.272  16.621  67.087  0.00  0.00    -0.273 OA
ATOM      6  C   UNL     1      -8.531  16.754  66.991  0.00  0.00    +0.246 C 
ATOM      7  N   UNL     1      -9.216  16.491  65.760  0.00  0.00    -0.179 NA
ATOM      8  C   UNL     1     -10.528  15.930  65.883  0.00  0.00    +0.072 A 
ATOM      9  C   UNL     1     -10.922  15.504  67.145  0.00  0.00    -0.006 A 
ATOM     10  C   UNL     1     -11.788  14.441  67.272  0.00  0.00    +0.000 A 
ATOM     11  C   UNL     1     -12.266  13.785  66.144  0.00  0.00    +0.037 A 
ATOM     12  C   UNL     1     -12.010  14.292  64.876  0.00  0.00    +0.140 A 
ATOM     13  C   UNL     1     -10.582  16.309  68.332  0.00  0.00    +0.037 C 
ATOM     14  C   UNL     1     -11.231  15.432  64.814  0.00  0.00    +0.053 A 
ATOM     15  C   UNL     1      -9.372  17.179  68.140  0.00  0.00    +0.092 C 
ENDBRANCH   4  12
ENDBRANCH   3   4
ENDBRANCH   2   3
ENDBRANCH   1   2
BRANCH   1  16
ATOM     16  C   UNL     1      -9.466  11.210  65.273  0.00  0.00    +0.072 C 
BRANCH  16  17
ATOM     17  N   UNL     1      -9.779  10.589  66.557  0.00  0.00    -0.270 NA
ATOM     18  C   UNL     1      -8.923  11.208  67.544  0.00  0.00    +0.094 C 
ATOM     19  C   UNL     1      -8.767  10.372  68.785  0.00  0.00    +0.108 C 
ATOM     20  N   UNL     1      -9.888   9.447  68.931  0.00  0.00    -0.304 N 
ATOM     21  C   UNL     1     -10.140   8.569  67.791  0.00  0.00    +0.108 C 
ATOM     22  C   UNL     1      -9.628   9.152  66.503  0.00  0.00    +0.094 C 
BRANCH  20  23
ATOM     23  C   UNL     1     -11.060   9.985  69.554  0.00  0.00    +0.059 A 
ATOM     24  C   UNL     1     -11.526   9.348  70.692  0.00  0.00    +0.081 A 
ATOM     25 CL   UNL     1     -11.562   7.595  70.664  0.00  0.00    -0.080 Cl
ATOM     26  C   UNL     1     -12.466   9.983  71.475  0.00  0.00    +0.069 A 
ATOM     27 CL   UNL     1     -13.570   9.123  72.523  0.00  0.00    -0.081 Cl
ATOM     28  C   UNL     1     -12.700  11.333  71.278  0.00  0.00    +0.012 A 
ATOM     29  C   UNL     1     -12.208  11.956  70.145  0.00  0.00    +0.002 A 
ATOM     30  C   UNL     1     -11.517  11.241  69.180  0.00  0.00    +0.015 A 
ENDBRANCH  20  23
ENDBRANCH  16  17
ENDBRANCH   1  16
TORSDOF 7
ENDMDL
MODEL 3
REMARK VINA RESULT:      -7.1      1.716      2.548
REMARK  Name = 
REMARK  7 active torsions:
REMARK  status: ('A' for Active; 'I' for Inactive)
REMARK    1  A    between atoms: C_8  and  O_9
REMARK    2  A    between atoms: O_9  and  C_10
REMARK    3  A    between atoms: C_10  and  C_11
REMARK    4  A    between atoms: C_11  and  C_12
REMARK    5  A    between atoms: C_12  and  C_13
REMARK    6  A    between atoms: C_13  and  N_14
REMARK    7  A    between atoms: N_17  and  C_18
REMARK                            x       y       z     vdW  Elec       q    Type
REMARK                         _______ _______ _______ _____ _____    ______ ____
ROOT
ATOM      1  C   UNL     1      -8.903  12.709  67.623  0.00  0.00    +0.021 C 
ENDROOT
BRANCH   1   2
ATOM      2  C   UNL     1      -9.171  11.213  67.637  0.00  0.00    +0.049 C 
BRANCH   2   3
ATOM      3  C   UNL     1     -10.675  11.049  67.778  0.00  0.00    +0.205 C 
BRANCH   3   4
ATOM      4  O   UNL     1     -10.958  10.555  69.081  0.00  0.00    -0.475 OA
BRANCH   4  12
ATOM      5  O   UNL     1     -11.803  16.440  72.477  0.00  0.00    -0.273 OA
ATOM      6  C   UNL     1     -12.526  15.601  71.859  0.00  0.00    +0.246 C 
ATOM      7  N   UNL     1     -12.035  14.893  70.714  0.00  0.00    -0.179 NA
ATOM      8  C   UNL     1     -12.507  13.549  70.560  0.00  0.00    +0.072 A 
ATOM      9  C   UNL     1     -13.213  12.998  71.621  0.00  0.00    -0.006 A 
ATOM     10  C   UNL     1     -13.143  11.644  71.862  0.00  0.00    +0.000 A 
ATOM     11  C   UNL     1     -12.364  10.825  71.055  0.00  0.00    +0.037 A 
ATOM     12  C   UNL     1     -11.779  11.330  69.899  0.00  0.00    +0.140 A 
ATOM     13  C   UNL     1     -14.192  13.817  72.359  0.00  0.00    +0.037 C 
ATOM     14  C   UNL     1     -11.981  12.673  69.643  0.00  0.00    +0.053 A 
ATOM     15  C   UNL     1     -13.918  15.292  72.282  0.00  0.00    +0.092 C 
ENDBRANCH   4  12
ENDBRANCH   3   4
ENDBRANCH   2   3
ENDBRANCH   1   2
BRANCH   1  16
ATOM     16  C   UNL     1      -9.583  13.271  66.383  0.00  0.00    +0.072 C 
BRANCH  16  17
ATOM     17  N   UNL     1      -9.565  14.726  66.498  0.00  0.00    -0.270 NA
ATOM     18  C   UNL     1      -9.891  15.044  67.870  0.00  0.00    +0.094 C 
ATOM     19  C   UNL     1     -10.384  16.455  68.039  0.00  0.00    +0.108 C 
ATOM     20  N   UNL     1      -9.923  17.300  66.940  0.00  0.00    -0.304 N 
ATOM     21  C   UNL     1     -10.255  16.834  65.596  0.00  0.00    +0.108 C 
ATOM     22  C   UNL     1     -10.462  15.346  65.548  0.00  0.00    +0.094 C 
BRANCH  20  23
ATOM     23  C   UNL     1      -8.606  17.844  67.087  0.00  0.00    +0.059 A 
ATOM     24  C   UNL     1      -8.302  18.461  68.290  0.00  0.00    +0.081 A 
ATOM     25 CL   UNL     1      -9.517  19.529  68.965  0.00  0.00    -0.080 Cl
ATOM     26  C   UNL     1      -6.985  18.744  68.580  0.00  0.00    +0.069 A 
ATOM     27 CL   UNL     1      -6.505  20.012  69.684  0.00  0.00    -0.081 Cl
ATOM     28  C   UNL     1      -5.990  18.155  67.820  0.00  0.00    +0.012 A 
ATOM     29  C   UNL     1      -6.317  17.526  66.632  0.00  0.00    +0.002 A 
ATOM     30  C   UNL     1      -7.622  17.510  66.167  0.00  0.00    +0.015 A 
ENDBRANCH  20  23
ENDBRANCH  16  17
ENDBRANCH   1  16
TORSDOF 7
ENDMDL
MODEL 4
REMARK VINA RESULT:      -7.1      5.645      7.753
REMARK  Name = 
REMARK  7 active torsions:
REMARK  status: ('A' for Active; 'I' for Inactive)
REMARK    1  A    between atoms: C_8  and  O_9
REMARK    2  A    between atoms: O_9  and  C_10
REMARK    3  A    between atoms: C_10  and  C_11
REMARK    4  A    between atoms: C_11  and  C_12
REMARK    5  A    between atoms: C_12  and  C_13
REMARK    6  A    between atoms: C_13  and  N_14
REMARK    7  A    between atoms: N_17  and  C_18
REMARK                            x       y       z     vdW  Elec       q    Type
REMARK                         _______ _______ _______ _____ _____    ______ ____
ROOT
ATOM      1  C   UNL     1     -11.321   7.173  69.758  0.00  0.00    +0.021 C 
ENDROOT
BRANCH   1   2
ATOM      2  C   UNL     1     -12.079   6.973  71.060  0.00  0.00    +0.049 C 
BRANCH   2   3
ATOM      3  C   UNL     1     -11.955   8.275  71.833  0.00  0.00    +0.205 C 
BRANCH   3   4
ATOM      4  O   UNL     1     -13.039   9.122  71.472  0.00  0.00    -0.475 OA
BRANCH   4  12
ATOM      5  O   UNL     1     -15.373  15.559  71.373  0.00  0.00    -0.273 OA
ATOM      6  C   UNL     1     -14.286  14.958  71.636  0.00  0.00    +0.246 C 
ATOM      7  N   UNL     1     -14.280  13.654  72.229  0.00  0.00    -0.179 NA
ATOM      8  C   UNL     1     -13.221  12.783  71.814  0.00  0.00    +0.072 A 
ATOM      9  C   UNL     1     -12.440  13.198  70.743  0.00  0.00    -0.006 A 
ATOM     10  C   UNL     1     -11.888  12.265  69.894  0.00  0.00    +0.000 A 
ATOM     11  C   UNL     1     -12.114  10.910  70.097  0.00  0.00    +0.037 A 
ATOM     12  C   UNL     1     -12.757  10.469  71.247  0.00  0.00    +0.140 A 
ATOM     13  C   UNL     1     -12.033  14.611  70.633  0.00  0.00    +0.037 C 
ATOM     14  C   UNL     1     -13.187  11.446  72.125  0.00  0.00    +0.053 A 
ATOM     15  C   UNL     1     -12.958  15.558  71.342  0.00  0.00    +0.092 C 
ENDBRANCH   4  12
ENDBRANCH   3   4
ENDBRANCH   2   3
ENDBRANCH   1   2
BRANCH   1  16
ATOM     16  C   UNL     1     -10.005   7.853  70.110  0.00  0.00    +0.072 C 
BRANCH  16  17
ATOM     17  N   UNL     1      -9.496   8.473  68.890  0.00  0.00    -0.270 NA
ATOM     18  C   UNL     1     -10.467   8.216  67.850  0.00  0.00    +0.094 C 
ATOM     19  C   UNL     1      -9.889   8.351  66.467  0.00  0.00    +0.108 C 
ATOM     20  N   UNL     1      -8.701   9.201  66.484  0.00  0.00    -0.304 N 
ATOM     21  C   UNL     1      -7.644   8.799  67.408  0.00  0.00    +0.108 C 
ATOM     22  C   UNL     1      -8.175   7.989  68.558  0.00  0.00    +0.094 C 
BRANCH  20  23
ATOM     23  C   UNL     1      -8.947  10.610  66.416  0.00  0.00    +0.059 A 
ATOM     24  C   UNL     1      -9.896  11.049  65.508  0.00  0.00    +0.081 A 
ATOM     25 CL   UNL     1      -9.864  10.325  63.911  0.00  0.00    -0.080 Cl
ATOM     26  C   UNL     1     -10.363  12.342  65.602  0.00  0.00    +0.069 A 
ATOM     27 CL   UNL     1     -11.037  13.212  64.244  0.00  0.00    -0.081 Cl
ATOM     28  C   UNL     1     -10.101  13.066  66.752  0.00  0.00    +0.012 A 
ATOM     29  C   UNL     1      -9.163  12.601  67.656  0.00  0.00    +0.002 A 
ATOM     30  C   UNL     1      -8.449  11.439  67.412  0.00  0.00    +0.015 A 
ENDBRANCH  20  23
ENDBRANCH  16  17
ENDBRANCH   1  16
TORSDOF 7
ENDMDL
MODEL 5
REMARK VINA RESULT:      -7.1      4.264      6.850
REMARK  Name = 
REMARK  7 active torsions:
REMARK  status: ('A' for Active; 'I' for Inactive)
REMARK    1  A    between atoms: C_8  and  O_9
REMARK    2  A    between atoms: O_9  and  C_10
REMARK    3  A    between atoms: C_10  and  C_11
REMARK    4  A    between atoms: C_11  and  C_12
REMARK    5  A    between atoms: C_12  and  C_13
REMARK    6  A    between atoms: C_13  and  N_14
REMARK    7  A    between atoms: N_17  and  C_18
REMARK                            x       y       z     vdW  Elec       q    Type
REMARK                         _______ _______ _______ _____ _____    ______ ____
ROOT
ATOM      1  C   UNL     1      -9.549  14.946  65.772  0.00  0.00    +0.021 C 
ENDROOT
BRANCH   1   2
ATOM      2  C   UNL     1     -10.160  16.136  66.495  0.00  0.00    +0.049 C 
BRANCH   2   3
ATOM      3  C   UNL     1      -9.211  16.482  67.629  0.00  0.00    +0.205 C 
BRANCH   3   4
ATOM      4  O   UNL     1      -9.268  15.446  68.602  0.00  0.00    -0.475 OA
BRANCH   4  12
ATOM      5  O   UNL     1     -12.586  15.847  74.579  0.00  0.00    -0.273 OA
ATOM      6  C   UNL     1     -12.848  16.005  73.347  0.00  0.00    +0.246 C 
ATOM      7  N   UNL     1     -11.870  16.526  72.438  0.00  0.00    -0.179 NA
ATOM      8  C   UNL     1     -11.909  15.996  71.108  0.00  0.00    +0.072 A 
ATOM      9  C   UNL     1     -12.732  14.900  70.884  0.00  0.00    -0.006 A 
ATOM     10  C   UNL     1     -12.390  13.968  69.930  0.00  0.00    +0.000 A 
ATOM     11  C   UNL     1     -11.221  14.111  69.194  0.00  0.00    +0.037 A 
ATOM     12  C   UNL     1     -10.468  15.275  69.292  0.00  0.00    +0.140 A 
ATOM     13  C   UNL     1     -14.065  14.840  71.512  0.00  0.00    +0.037 C 
ATOM     14  C   UNL     1     -10.924  16.231  70.180  0.00  0.00    +0.053 A 
ATOM     15  C   UNL     1     -14.172  15.658  72.768  0.00  0.00    +0.092 C 
ENDBRANCH   4  12
ENDBRANCH   3   4
ENDBRANCH   2   3
ENDBRANCH   1   2
BRANCH   1  16
ATOM     16  C   UNL     1     -10.692  14.003  65.424  0.00  0.00    +0.072 C 
BRANCH  16  17
ATOM     17  N   UNL     1     -10.320  12.675  65.903  0.00  0.00    -0.270 NA
ATOM     18  C   UNL     1      -9.047  12.810  66.575  0.00  0.00    +0.094 C 
ATOM     19  C   UNL     1      -8.309  11.504  66.691  0.00  0.00    +0.108 C 
ATOM     20  N   UNL     1      -9.233  10.377  66.602  0.00  0.00    -0.304 N 
ATOM     21  C   UNL     1     -10.082  10.343  65.415  0.00  0.00    +0.108 C 
ATOM     22  C   UNL     1     -10.288  11.710  64.826  0.00  0.00    +0.094 C 
BRANCH  20  23
ATOM     23  C   UNL     1      -9.882  10.009  67.825  0.00  0.00    +0.059 A 
ATOM     24  C   UNL     1      -9.075   9.684  68.903  0.00  0.00    +0.081 A 
ATOM     25 CL   UNL     1      -7.689   8.660  68.578  0.00  0.00    -0.080 Cl
ATOM     26  C   UNL     1      -9.638   9.600  70.158  0.00  0.00    +0.069 A 
ATOM     27 CL   UNL     1      -8.951   8.638  71.446  0.00  0.00    -0.081 Cl
ATOM     28  C   UNL     1     -10.905  10.118  70.359  0.00  0.00    +0.012 A 
ATOM     29  C   UNL     1     -11.688  10.456  69.270  0.00  0.00    +0.002 A 
ATOM     30  C   UNL     1     -11.241  10.246  67.975  0.00  0.00    +0.015 A 
ENDBRANCH  20  23
ENDBRANCH  16  17
ENDBRANCH   1  16
TORSDOF 7
ENDMDL
MODEL 6
REMARK VINA RESULT:      -7.1      2.316      4.778
REMARK  Name = 
REMARK  7 active torsions:
REMARK  status: ('A' for Active; 'I' for Inactive)
REMARK    1  A    between atoms: C_8  and  O_9
REMARK    2  A    between atoms: O_9  and  C_10
REMARK    3  A    between atoms: C_10  and  C_11
REMARK    4  A    between atoms: C_11  and  C_12
REMARK    5  A    between atoms: C_12  and  C_13
REMARK    6  A    between atoms: C_13  and  N_14
REMARK    7  A    between atoms: N_17  and  C_18
REMARK                            x       y       z     vdW  Elec       q    Type
REMARK                         _______ _______ _______ _____ _____    ______ ____
ROOT
ATOM      1  C   UNL     1     -10.953  16.316  70.191  0.00  0.00    +0.021 C 
ENDROOT
BRANCH   1   2
ATOM      2  C   UNL     1     -11.305  14.974  70.810  0.00  0.00    +0.049 C 
BRANCH   2   3
ATOM      3  C   UNL     1     -12.349  14.344  69.904  0.00  0.00    +0.205 C 
BRANCH   3   4
ATOM      4  O   UNL     1     -12.171  12.933  69.917  0.00  0.00    -0.475 OA
BRANCH   4  12
ATOM      5  O   UNL     1     -13.021  11.932  63.197  0.00  0.00    -0.273 OA
ATOM      6  C   UNL     1     -12.057  12.039  64.015  0.00  0.00    +0.246 C 
ATOM      7  N   UNL     1     -12.142  12.900  65.158  0.00  0.00    -0.179 NA
ATOM      8  C   UNL     1     -11.469  12.442  66.336  0.00  0.00    +0.072 A 
ATOM      9  C   UNL     1     -10.986  11.140  66.327  0.00  0.00    -0.006 A 
ATOM     10  C   UNL     1     -10.929  10.421  67.500  0.00  0.00    +0.000 A 
ATOM     11  C   UNL     1     -11.359  10.987  68.693  0.00  0.00    +0.037 A 
ATOM     12  C   UNL     1     -11.696  12.333  68.751  0.00  0.00    +0.140 A 
ATOM     13  C   UNL     1     -10.346  10.601  65.113  0.00  0.00    +0.037 C 
ATOM     14  C   UNL     1     -11.622  13.038  67.564  0.00  0.00    +0.053 A 
ATOM     15  C   UNL     1     -10.789  11.281  63.850  0.00  0.00    +0.092 C 
ENDBRANCH   4  12
ENDBRANCH   3   4
ENDBRANCH   2   3
ENDBRANCH   1   2
BRANCH   1  16
ATOM     16  C   UNL     1     -11.339  16.242  68.720  0.00  0.00    +0.072 C 
BRANCH  16  17
ATOM     17  N   UNL     1     -10.233  16.805  67.951  0.00  0.00    -0.270 NA
ATOM     18  C   UNL     1     -10.663  18.104  67.485  0.00  0.00    +0.094 C 
ATOM     19  C   UNL     1      -9.864  18.594  66.308  0.00  0.00    +0.108 C 
ATOM     20  N   UNL     1      -8.559  17.940  66.259  0.00  0.00    -0.304 N 
ATOM     21  C   UNL     1      -8.580  16.479  66.250  0.00  0.00    +0.108 C 
ATOM     22  C   UNL     1      -9.830  15.927  66.876  0.00  0.00    +0.094 C 
BRANCH  20  23
ATOM     23  C   UNL     1      -7.540  18.529  67.075  0.00  0.00    +0.059 A 
ATOM     24  C   UNL     1      -7.100  19.796  66.730  0.00  0.00    +0.081 A 
ATOM     25 CL   UNL     1      -6.817  20.103  65.027  0.00  0.00    -0.080 Cl
ATOM     26  C   UNL     1      -6.338  20.507  67.632  0.00  0.00    +0.069 A 
ATOM     27 CL   UNL     1      -5.230  21.771  67.152  0.00  0.00    -0.081 Cl
ATOM     28  C   UNL     1      -6.277  20.074  68.945  0.00  0.00    +0.012 A 
ATOM     29  C   UNL     1      -6.741  18.813  69.273  0.00  0.00    +0.002 A 
ATOM     30  C   UNL     1      -7.229  17.955  68.300  0.00  0.00    +0.015 A 
ENDBRANCH  20  23
ENDBRANCH  16  17
ENDBRANCH   1  16
TORSDOF 7
ENDMDL
MODEL 7
REMARK VINA RESULT:      -7.0      2.725      3.925
REMARK  Name = 
REMARK  7 active torsions:
REMARK  status: ('A' for Active; 'I' for Inactive)
REMARK    1  A    between atoms: C_8  and  O_9
REMARK    2  A    between atoms: O_9  and  C_10
REMARK    3  A    between atoms: C_10  and  C_11
REMARK    4  A    between atoms: C_11  and  C_12
REMARK    5  A    between atoms: C_12  and  C_13
REMARK    6  A    between atoms: C_13  and  N_14
REMARK    7  A    between atoms: N_17  and  C_18
REMARK                            x       y       z     vdW  Elec       q    Type
REMARK                         _______ _______ _______ _____ _____    ______ ____
ROOT
ATOM      1  C   UNL     1     -10.731  13.518  64.575  0.00  0.00    +0.021 C 
ENDROOT
BRANCH   1   2
ATOM      2  C   UNL     1     -11.453  12.187  64.439  0.00  0.00    +0.049 C 
BRANCH   2   3
ATOM      3  C   UNL     1     -10.472  11.119  64.894  0.00  0.00    +0.205 C 
BRANCH   3   4
ATOM      4  O   UNL     1      -9.699  11.641  65.969  0.00  0.00    -0.475 OA
BRANCH   4  12
ATOM      5  O   UNL     1     -13.083  11.330  71.914  0.00  0.00    -0.273 OA
ATOM      6  C   UNL     1     -12.487  10.529  71.129  0.00  0.00    +0.246 C 
ATOM      7  N   UNL     1     -12.495  10.731  69.711  0.00  0.00    -0.179 NA
ATOM      8  C   UNL     1     -11.304  10.342  69.017  0.00  0.00    +0.072 A 
ATOM      9  C   UNL     1     -10.198  10.011  69.789  0.00  0.00    -0.006 A 
ATOM     10  C   UNL     1      -8.930  10.253  69.311  0.00  0.00    +0.000 A 
ATOM     11  C   UNL     1      -8.748  10.833  68.063  0.00  0.00    +0.037 A 
ATOM     12  C   UNL     1      -9.830  11.026  67.213  0.00  0.00    +0.140 A 
ATOM     13  C   UNL     1     -10.371   9.219  71.021  0.00  0.00    +0.037 C 
ATOM     14  C   UNL     1     -11.069  10.655  67.701  0.00  0.00    +0.053 A 
ATOM     15  C   UNL     1     -11.741   9.343  71.625  0.00  0.00    +0.092 C 
ENDBRANCH   4  12
ENDBRANCH   3   4
ENDBRANCH   2   3
ENDBRANCH   1   2
BRANCH   1  16
ATOM     16  C   UNL     1     -11.687  14.472  65.277  0.00  0.00    +0.072 C 
BRANCH  16  17
ATOM     17  N   UNL     1     -10.917  15.198  66.282  0.00  0.00    -0.270 NA
ATOM     18  C   UNL     1      -9.549  15.238  65.816  0.00  0.00    +0.094 C 
ATOM     19  C   UNL     1      -8.565  15.505  66.922  0.00  0.00    +0.108 C 
ATOM     20  N   UNL     1      -9.217  16.174  68.045  0.00  0.00    -0.304 N 
ATOM     21  C   UNL     1     -10.386  15.495  68.597  0.00  0.00    +0.108 C 
ATOM     22  C   UNL     1     -11.048  14.597  67.590  0.00  0.00    +0.094 C 
BRANCH  20  23
ATOM     23  C   UNL     1      -9.335  17.597  67.935  0.00  0.00    +0.059 A 
ATOM     24  C   UNL     1      -8.176  18.316  67.695  0.00  0.00    +0.081 A 
ATOM     25 CL   UNL     1      -6.752  17.859  68.611  0.00  0.00    -0.080 Cl
ATOM     26  C   UNL     1      -8.276  19.635  67.307  0.00  0.00    +0.069 A 
ATOM     27 CL   UNL     1      -7.001  20.803  67.567  0.00  0.00    -0.081 Cl
ATOM     28  C   UNL     1      -9.503  20.118  66.888  0.00  0.00    +0.012 A 
ATOM     29  C   UNL     1     -10.647  19.375  67.119  0.00  0.00    +0.002 A 
ATOM     30  C   UNL     1     -10.592  18.170  67.801  0.00  0.00    +0.015 A 
ENDBRANCH  20  23
ENDBRANCH  16  17
ENDBRANCH   1  16
TORSDOF 7
ENDMDL
MODEL 8
REMARK VINA RESULT:      -7.0      3.139      4.743
REMARK  Name = 
REMARK  7 active torsions:
REMARK  status: ('A' for Active; 'I' for Inactive)
REMARK    1  A    between atoms: C_8  and  O_9
REMARK    2  A    between atoms: O_9  and  C_10
REMARK    3  A    between atoms: C_10  and  C_11
REMARK    4  A    between atoms: C_11  and  C_12
REMARK    5  A    between atoms: C_12  and  C_13
REMARK    6  A    between atoms: C_13  and  N_14
REMARK    7  A    between atoms: N_17  and  C_18
REMARK                            x       y       z     vdW  Elec       q    Type
REMARK                         _______ _______ _______ _____ _____    ______ ____
ROOT
ATOM      1  C   UNL     1     -12.436  13.757  65.427  0.00  0.00    +0.021 C 
ENDROOT
BRANCH   1   2
ATOM      2  C   UNL     1     -11.889  12.464  64.846  0.00  0.00    +0.049 C 
BRANCH   2   3
ATOM      3  C   UNL     1     -11.192  11.742  65.987  0.00  0.00    +0.205 C 
BRANCH   3   4
ATOM      4  O   UNL     1     -12.062  11.728  67.114  0.00  0.00    -0.475 OA
BRANCH   4  12
ATOM      5  O   UNL     1     -10.937   5.668  70.095  0.00  0.00    -0.273 OA
ATOM      6  C   UNL     1     -10.433   6.832  70.115  0.00  0.00    +0.246 C 
ATOM      7  N   UNL     1     -10.413   7.656  68.944  0.00  0.00    -0.179 NA
ATOM      8  C   UNL     1     -10.567   9.063  69.166  0.00  0.00    +0.072 A 
ATOM      9  C   UNL     1     -10.924   9.469  70.445  0.00  0.00    -0.006 A 
ATOM     10  C   UNL     1     -11.687  10.601  70.618  0.00  0.00    +0.000 A 
ATOM     11  C   UNL     1     -12.110  11.339  69.520  0.00  0.00    +0.037 A 
ATOM     12  C   UNL     1     -11.634  11.040  68.248  0.00  0.00    +0.140 A 
ATOM     13  C   UNL     1     -10.321   8.814  71.621  0.00  0.00    +0.037 C 
ATOM     14  C   UNL     1     -10.775   9.962  68.150  0.00  0.00    +0.053 A 
ATOM     15  C   UNL     1      -9.840   7.417  71.347  0.00  0.00    +0.092 C 
ENDBRANCH   4  12
ENDBRANCH   3   4
ENDBRANCH   2   3
ENDBRANCH   1   2
BRANCH   1  16
ATOM     16  C   UNL     1     -11.564  14.886  64.896  0.00  0.00    +0.072 C 
BRANCH  16  17
ATOM     17  N   UNL     1     -10.958  15.547  66.049  0.00  0.00    -0.270 NA
ATOM     18  C   UNL     1      -9.530  15.347  65.946  0.00  0.00    +0.094 C 
ATOM     19  C   UNL     1      -8.821  15.528  67.261  0.00  0.00    +0.108 C 
ATOM     20  N   UNL     1      -9.612  16.358  68.166  0.00  0.00    -0.304 N 
ATOM     21  C   UNL     1     -10.977  15.902  68.416  0.00  0.00    +0.108 C 
ATOM     22  C   UNL     1     -11.507  15.055  67.293  0.00  0.00    +0.094 C 
BRANCH  20  23
ATOM     23  C   UNL     1      -9.464  17.772  68.000  0.00  0.00    +0.059 A 
ATOM     24  C   UNL     1      -8.175  18.277  67.955  0.00  0.00    +0.081 A 
ATOM     25 CL   UNL     1      -7.032  17.645  69.125  0.00  0.00    -0.080 Cl
ATOM     26  C   UNL     1      -7.980  19.570  67.521  0.00  0.00    +0.069 A 
ATOM     27 CL   UNL     1      -6.589  20.527  67.977  0.00  0.00    -0.081 Cl
ATOM     28  C   UNL     1      -9.014  20.224  66.874  0.00  0.00    +0.012 A 
ATOM     29  C   UNL     1     -10.291  19.692  66.914  0.00  0.00    +0.002 A 
ATOM     30  C   UNL     1     -10.562  18.535  67.625  0.00  0.00    +0.015 A 
ENDBRANCH  20  23
ENDBRANCH  16  17
ENDBRANCH   1  16
TORSDOF 7
ENDMDL
MODEL 9
REMARK VINA RESULT:      -7.0      4.518      8.638
REMARK  Name = 
REMARK  7 active torsions:
REMARK  status: ('A' for Active; 'I' for Inactive)
REMARK    1  A    between atoms: C_8  and  O_9
REMARK    2  A    between atoms: O_9  and  C_10
REMARK    3  A    between atoms: C_10  and  C_11
REMARK    4  A    between atoms: C_11  and  C_12
REMARK    5  A    between atoms: C_12  and  C_13
REMARK    6  A    between atoms: C_13  and  N_14
REMARK    7  A    between atoms: N_17  and  C_18
REMARK                            x       y       z     vdW  Elec       q    Type
REMARK                         _______ _______ _______ _____ _____    ______ ____
ROOT
ATOM      1  C   UNL     1     -10.089  17.291  68.305  0.00  0.00    +0.021 C 
ENDROOT
BRANCH   1   2
ATOM      2  C   UNL     1     -10.356  18.593  67.568  0.00  0.00    +0.049 C 
BRANCH   2   3
ATOM      3  C   UNL     1      -9.537  19.660  68.275  0.00  0.00    +0.205 C 
BRANCH   3   4
ATOM      4  O   UNL     1      -8.610  20.211  67.346  0.00  0.00    -0.475 OA
BRANCH   4  12
ATOM      5  O   UNL     1      -4.319  22.164  72.312  0.00  0.00    -0.273 OA
ATOM      6  C   UNL     1      -4.359  21.285  71.397  0.00  0.00    +0.246 C 
ATOM      7  N   UNL     1      -5.595  20.680  70.998  0.00  0.00    -0.179 NA
ATOM      8  C   UNL     1      -5.709  20.351  69.609  0.00  0.00    +0.072 A 
ATOM      9  C   UNL     1      -4.721  20.829  68.759  0.00  0.00    -0.006 A 
ATOM     10  C   UNL     1      -5.029  21.137  67.452  0.00  0.00    +0.000 A 
ATOM     11  C   UNL     1      -6.325  20.978  66.980  0.00  0.00    +0.037 A 
ATOM     12  C   UNL     1      -7.288  20.355  67.765  0.00  0.00    +0.140 A 
ATOM     13  C   UNL     1      -3.310  20.814  69.187  0.00  0.00    +0.037 C 
ATOM     14  C   UNL     1      -6.890  19.960  69.028  0.00  0.00    +0.053 A 
ATOM     15  C   UNL     1      -3.138  20.834  70.680  0.00  0.00    +0.092 C 
ENDBRANCH   4  12
ENDBRANCH   3   4
ENDBRANCH   2   3
ENDBRANCH   1   2
BRANCH   1  16
ATOM     16  C   UNL     1      -9.241  16.425  67.384  0.00  0.00    +0.072 C 
BRANCH  16  17
ATOM     17  N   UNL     1     -10.054  15.277  66.995  0.00  0.00    -0.270 NA
ATOM     18  C   UNL     1     -10.350  15.429  65.588  0.00  0.00    +0.094 C 
ATOM     19  C   UNL     1     -11.547  14.626  65.155  0.00  0.00    +0.108 C 
ATOM     20  N   UNL     1     -11.783  13.514  66.071  0.00  0.00    -0.304 N 
ATOM     21  C   UNL     1     -11.930  13.871  67.480  0.00  0.00    +0.108 C 
ATOM     22  C   UNL     1     -11.243  15.166  67.810  0.00  0.00    +0.094 C 
BRANCH  20  23
ATOM     23  C   UNL     1     -11.017  12.330  65.821  0.00  0.00    +0.059 A 
ATOM     24  C   UNL     1     -10.739  12.017  64.501  0.00  0.00    +0.081 A 
ATOM     25 CL   UNL     1     -12.052  12.188  63.350  0.00  0.00    -0.080 Cl
ATOM     26  C   UNL     1      -9.784  11.063  64.227  0.00  0.00    +0.069 A 
ATOM     27 CL   UNL     1      -9.760  10.139  62.743  0.00  0.00    -0.081 Cl
ATOM     28  C   UNL     1      -8.932  10.658  65.240  0.00  0.00    +0.012 A 
ATOM     29  C   UNL     1      -9.216  10.998  66.550  0.00  0.00    +0.002 A 
ATOM     30  C   UNL     1     -10.363  11.704  66.873  0.00  0.00    +0.015 A 
ENDBRANCH  20  23
ENDBRANCH  16  17
ENDBRANCH   1  16
TORSDOF 7
ENDMDL
