MODEL 1
REMARK VINA RESULT:      -8.1      0.000      0.000
REMARK  Name = 
REMARK  9 active torsions:
REMARK  status: ('A' for Active; 'I' for Inactive)
REMARK    1  A    between atoms: C_2  and  O_3
REMARK    2  A    between atoms: O_3  and  C_4
REMARK    3  A    between atoms: C_4  and  O_6
REMARK    4  A    between atoms: O_6  and  C_7
REMARK    5  A    between atoms: C_7  and  C_8
REMARK    6  A    between atoms: C_8  and  C_10
REMARK    7  A    between atoms: C_10  and  O_11
REMARK    8  A    between atoms: O_11  and  C_12
REMARK    9  A    between atoms: C_12  and  C_14
REMARK                            x       y       z     vdW  Elec       q    Type
REMARK                         _______ _______ _______ _____ _____    ______ ____
ROOT
ATOM      1  C   UNL     1     -11.039  14.792  67.249  0.00  0.00    +0.193 C 
ATOM      2  C   UNL     1     -10.118  15.965  67.040  0.00  0.00    +0.043 C 
ATOM      3  C   UNL     1      -9.174  15.640  68.306  0.00  0.00    +0.004 C 
ATOM      4  C   UNL     1      -7.947  16.567  67.630  0.00  0.00    +0.003 C 
ATOM      5  C   UNL     1      -8.523  17.970  68.331  0.00  0.00    +0.038 C 
ATOM      6  C   UNL     1      -9.607  18.469  67.108  0.00  0.00    +0.153 C 
ATOM      7  O   UNL     1      -8.858  17.887  65.930  0.00  0.00    -0.223 OA
ATOM      8  C   UNL     1      -7.320  18.836  67.752  0.00  0.00    +0.036 C 
ATOM      9  C   UNL     1      -6.404  18.766  68.947  0.00  0.00    -0.038 C 
ATOM     10  C   UNL     1      -5.335  19.545  68.746  0.00  0.00    +0.034 C 
ATOM     11  C   UNL     1      -5.327  20.599  67.719  0.00  0.00    +0.195 C 
ATOM     12  C   UNL     1      -6.630  20.929  67.116  0.00  0.00    +0.038 C 
ATOM     13  O   UNL     1      -4.267  21.227  67.419  0.00  0.00    -0.287 OA
ATOM     14  C   UNL     1      -6.353  17.413  69.477  0.00  0.00    +0.022 C 
ATOM     15  C   UNL     1      -6.503  18.185  66.726  0.00  0.00    +0.009 C 
ATOM     16  C   UNL     1      -7.702  20.187  67.430  0.00  0.00    -0.020 C 
ATOM     17  C   UNL     1      -6.959  16.289  68.856  0.00  0.00    +0.004 C 
ATOM     18  C   UNL     1      -8.679  14.271  67.598  0.00  0.00    +0.004 C 
ATOM     19  C   UNL     1      -9.429  15.582  65.779  0.00  0.00    +0.004 C 
ATOM     20  C   UNL     1     -10.647  17.222  67.290  0.00  0.00    +0.037 C 
ATOM     21  C   UNL     1      -9.955  13.694  67.072  0.00  0.00    +0.048 C 
ENDROOT
BRANCH   1  22
ATOM     22  C   UNL     1     -11.534  14.562  68.582  0.00  0.00    +0.230 C 
ATOM     23  O   UNL     1     -11.574  13.399  69.012  0.00  0.00    -0.288 OA
BRANCH  22  24
ATOM     24  C   UNL     1     -12.007  15.471  69.610  0.00  0.00    +0.276 C 
BRANCH  24  25
ATOM     25  O   UNL     1     -12.914  15.109  70.539  0.00  0.00    -0.440 OA
BRANCH  25  26
ATOM     26  C   UNL     1     -13.105  15.693  71.766  0.00  0.00    +0.317 C 
ATOM     27  O   UNL     1     -14.314  15.767  72.051  0.00  0.00    -0.250 OA
BRANCH  26  28
ATOM     28  C   UNL     1     -12.054  15.901  72.785  0.00  0.00    +0.110 C 
ATOM     29  C   UNL     1     -12.491  15.537  74.173  0.00  0.00    +0.012 C 
ENDBRANCH  26  28
ENDBRANCH  25  26
ENDBRANCH  24  25
ENDBRANCH  22  24
ENDBRANCH   1  22
BRANCH   1  30
ATOM     30  O   UNL     1     -11.691  14.618  66.118  0.00  0.00    -0.418 OA
BRANCH  30  31
ATOM     31  C   UNL     1     -12.409  13.723  65.443  0.00  0.00    +0.512 C 
ATOM     32  O   UNL     1     -13.583  14.134  65.458  0.00  0.00    -0.203 OA
BRANCH  31  33
ATOM     33  O   UNL     1     -12.200  12.358  65.450  0.00  0.00    -0.418 OA
BRANCH  33  35
ATOM     34  C   UNL     1     -10.973  12.318  63.691  0.00  0.00    +0.051 C 
ATOM     35  C   UNL     1     -11.647  11.645  64.370  0.00  0.00    +0.212 C 
ENDBRANCH  33  35
ENDBRANCH  31  33
ENDBRANCH  30  31
ENDBRANCH   1  30
TORSDOF 9
ENDMDL
MODEL 2
REMARK VINA RESULT:      -7.6      2.138      4.747
REMARK  Name = 
REMARK  9 active torsions:
REMARK  status: ('A' for Active; 'I' for Inactive)
REMARK    1  A    between atoms: C_2  and  O_3
REMARK    2  A    between atoms: O_3  and  C_4
REMARK    3  A    between atoms: C_4  and  O_6
REMARK    4  A    between atoms: O_6  and  C_7
REMARK    5  A    between atoms: C_7  and  C_8
REMARK    6  A    between atoms: C_8  and  C_10
REMARK    7  A    between atoms: C_10  and  O_11
REMARK    8  A    between atoms: O_11  and  C_12
REMARK    9  A    between atoms: C_12  and  C_14
REMARK                            x       y       z     vdW  Elec       q    Type
REMARK                         _______ _______ _______ _____ _____    ______ ____
ROOT
ATOM      1  C   UNL     1     -11.047  14.013  67.354  0.00  0.00    +0.193 C 
ATOM      2  C   UNL     1      -9.885  14.963  67.477  0.00  0.00    +0.043 C 
ATOM      3  C   UNL     1     -10.754  16.295  67.211  0.00  0.00    +0.004 C 
ATOM      4  C   UNL     1      -9.559  17.221  67.942  0.00  0.00    +0.003 C 
ATOM      5  C   UNL     1      -8.718  17.399  66.509  0.00  0.00    +0.038 C 
ATOM      6  C   UNL     1      -7.726  16.010  66.593  0.00  0.00    +0.153 C 
ATOM      7  O   UNL     1      -7.611  15.940  68.099  0.00  0.00    -0.223 OA
ATOM      8  C   UNL     1      -7.626  18.338  67.185  0.00  0.00    +0.036 C 
ATOM      9  C   UNL     1      -8.240  19.671  66.843  0.00  0.00    -0.038 C 
ATOM     10  C   UNL     1      -7.417  20.659  67.213  0.00  0.00    +0.034 C 
ATOM     11  C   UNL     1      -5.992  20.416  67.492  0.00  0.00    +0.195 C 
ATOM     12  C   UNL     1      -5.465  19.102  67.087  0.00  0.00    +0.038 C 
ATOM     13  O   UNL     1      -5.250  21.313  67.996  0.00  0.00    -0.287 OA
ATOM     14  C   UNL     1      -9.673  19.655  67.087  0.00  0.00    +0.022 C 
ATOM     15  C   UNL     1      -7.642  18.382  68.649  0.00  0.00    +0.009 C 
ATOM     16  C   UNL     1      -6.312  18.174  66.617  0.00  0.00    -0.020 C 
ATOM     17  C   UNL     1     -10.365  18.582  67.709  0.00  0.00    +0.004 C 
ATOM     18  C   UNL     1     -11.565  16.054  68.591  0.00  0.00    +0.004 C 
ATOM     19  C   UNL     1      -9.558  14.848  68.922  0.00  0.00    +0.004 C 
ATOM     20  C   UNL     1      -8.944  14.929  66.459  0.00  0.00    +0.037 C 
ATOM     21  C   UNL     1     -11.861  14.588  68.545  0.00  0.00    +0.048 C 
ENDROOT
BRANCH   1  22
ATOM     22  C   UNL     1     -11.931  14.184  66.230  0.00  0.00    +0.230 C 
ATOM     23  O   UNL     1     -13.153  14.067  66.409  0.00  0.00    -0.288 OA
BRANCH  22  24
ATOM     24  C   UNL     1     -11.679  14.510  64.838  0.00  0.00    +0.276 C 
BRANCH  24  25
ATOM     25  O   UNL     1     -12.191  13.793  63.820  0.00  0.00    -0.440 OA
BRANCH  25  26
ATOM     26  C   UNL     1     -11.949  12.469  63.548  0.00  0.00    +0.317 C 
ATOM     27  O   UNL     1     -12.985  11.882  63.189  0.00  0.00    -0.250 OA
BRANCH  26  28
ATOM     28  C   UNL     1     -10.611  11.868  63.360  0.00  0.00    +0.110 C 
ATOM     29  C   UNL     1     -10.099  11.164  64.582  0.00  0.00    +0.012 C 
ENDBRANCH  26  28
ENDBRANCH  25  26
ENDBRANCH  24  25
ENDBRANCH  22  24
ENDBRANCH   1  22
BRANCH   1  30
ATOM     30  O   UNL     1     -10.664  12.876  67.899  0.00  0.00    -0.418 OA
BRANCH  30  31
ATOM     31  C   UNL     1     -11.135  11.772  68.473  0.00  0.00    +0.512 C 
ATOM     32  O   UNL     1     -11.860  11.220  67.626  0.00  0.00    -0.203 OA
BRANCH  31  33
ATOM     33  O   UNL     1     -11.484  11.646  69.803  0.00  0.00    -0.418 OA
BRANCH  33  35
ATOM     34  C   UNL     1     -12.679  10.335  71.010  0.00  0.00    +0.051 C 
ATOM     35  C   UNL     1     -11.651  10.410  70.456  0.00  0.00    +0.212 C 
ENDBRANCH  33  35
ENDBRANCH  31  33
ENDBRANCH  30  31
ENDBRANCH   1  30
TORSDOF 9
ENDMDL
MODEL 3
REMARK VINA RESULT:      -7.6      1.681      5.084
REMARK  Name = 
REMARK  9 active torsions:
REMARK  status: ('A' for Active; 'I' for Inactive)
REMARK    1  A    between atoms: C_2  and  O_3
REMARK    2  A    between atoms: O_3  and  C_4
REMARK    3  A    between atoms: C_4  and  O_6
REMARK    4  A    between atoms: O_6  and  C_7
REMARK    5  A    between atoms: C_7  and  C_8
REMARK    6  A    between atoms: C_8  and  C_10
REMARK    7  A    between atoms: C_10  and  O_11
REMARK    8  A    between atoms: O_11  and  C_12
REMARK    9  A    between atoms: C_12  and  C_14
REMARK                            x       y       z     vdW  Elec       q    Type
REMARK                         _______ _______ _______ _____ _____    ______ ____
ROOT
ATOM      1  C   UNL     1     -10.198  17.461  67.388  0.00  0.00    +0.193 C 
ATOM      2  C   UNL     1      -8.867  17.997  67.845  0.00  0.00    +0.043 C 
ATOM      3  C   UNL     1      -8.493  18.686  66.436  0.00  0.00    +0.004 C 
ATOM      4  C   UNL     1      -7.392  19.686  67.216  0.00  0.00    +0.003 C 
ATOM      5  C   UNL     1      -6.162  18.564  67.074  0.00  0.00    +0.038 C 
ATOM      6  C   UNL     1      -6.420  17.682  68.516  0.00  0.00    +0.153 C 
ATOM      7  O   UNL     1      -6.973  18.819  69.346  0.00  0.00    -0.223 OA
ATOM      8  C   UNL     1      -5.100  19.539  67.747  0.00  0.00    +0.036 C 
ATOM      9  C   UNL     1      -4.525  20.139  66.489  0.00  0.00    -0.038 C 
ATOM     10  C   UNL     1      -3.492  20.933  66.795  0.00  0.00    +0.034 C 
ATOM     11  C   UNL     1      -2.808  20.845  68.095  0.00  0.00    +0.195 C 
ATOM     12  C   UNL     1      -3.137  19.675  68.926  0.00  0.00    +0.038 C 
ATOM     13  O   UNL     1      -1.938  21.699  68.448  0.00  0.00    -0.287 OA
ATOM     14  C   UNL     1      -5.584  20.485  65.555  0.00  0.00    +0.022 C 
ATOM     15  C   UNL     1      -5.651  20.725  68.405  0.00  0.00    +0.009 C 
ATOM     16  C   UNL     1      -4.109  18.841  68.527  0.00  0.00    -0.020 C 
ATOM     17  C   UNL     1      -6.970  20.411  65.855  0.00  0.00    +0.004 C 
ATOM     18  C   UNL     1      -9.722  19.725  66.606  0.00  0.00    +0.004 C 
ATOM     19  C   UNL     1      -9.284  19.035  68.824  0.00  0.00    +0.004 C 
ATOM     20  C   UNL     1      -7.867  17.065  68.075  0.00  0.00    +0.037 C 
ATOM     21  C   UNL     1     -10.836  18.841  67.072  0.00  0.00    +0.048 C 
ENDROOT
BRANCH   1  22
ATOM     22  C   UNL     1     -10.240  16.775  66.122  0.00  0.00    +0.230 C 
ATOM     23  O   UNL     1     -10.698  17.371  65.136  0.00  0.00    -0.288 OA
BRANCH  22  24
ATOM     24  C   UNL     1      -9.809  15.448  65.724  0.00  0.00    +0.276 C 
BRANCH  24  25
ATOM     25  O   UNL     1     -10.516  14.679  64.872  0.00  0.00    -0.440 OA
BRANCH  25  26
ATOM     26  C   UNL     1     -11.837  14.326  64.993  0.00  0.00    +0.317 C 
ATOM     27  O   UNL     1     -12.504  14.723  64.022  0.00  0.00    -0.250 OA
BRANCH  26  28
ATOM     28  C   UNL     1     -12.368  13.325  65.943  0.00  0.00    +0.110 C 
ATOM     29  C   UNL     1     -11.473  12.133  66.113  0.00  0.00    +0.012 C 
ENDBRANCH  26  28
ENDBRANCH  25  26
ENDBRANCH  24  25
ENDBRANCH  22  24
ENDBRANCH   1  22
BRANCH   1  30
ATOM     30  O   UNL     1     -10.879  17.165  68.476  0.00  0.00    -0.418 OA
BRANCH  30  31
ATOM     31  C   UNL     1     -11.193  16.152  69.279  0.00  0.00    +0.512 C 
ATOM     32  O   UNL     1     -12.102  15.523  68.710  0.00  0.00    -0.203 OA
BRANCH  31  33
ATOM     33  O   UNL     1     -11.201  16.196  70.659  0.00  0.00    -0.418 OA
BRANCH  33  35
ATOM     34  C   UNL     1     -12.145  16.127  72.585  0.00  0.00    +0.051 C 
ATOM     35  C   UNL     1     -12.353  15.990  71.442  0.00  0.00    +0.212 C 
ENDBRANCH  33  35
ENDBRANCH  31  33
ENDBRANCH  30  31
ENDBRANCH   1  30
TORSDOF 9
ENDMDL
MODEL 4
REMARK VINA RESULT:      -7.5      1.635      2.011
REMARK  Name = 
REMARK  9 active torsions:
REMARK  status: ('A' for Active; 'I' for Inactive)
REMARK    1  A    between atoms: C_2  and  O_3
REMARK    2  A    between atoms: O_3  and  C_4
REMARK    3  A    between atoms: C_4  and  O_6
REMARK    4  A    between atoms: O_6  and  C_7
REMARK    5  A    between atoms: C_7  and  C_8
REMARK    6  A    between atoms: C_8  and  C_10
REMARK    7  A    between atoms: C_10  and  O_11
REMARK    8  A    between atoms: O_11  and  C_12
REMARK    9  A    between atoms: C_12  and  C_14
REMARK                            x       y       z     vdW  Elec       q    Type
REMARK                         _______ _______ _______ _____ _____    ______ ____
ROOT
ATOM      1  C   UNL     1     -10.692  14.909  67.807  0.00  0.00    +0.193 C 
ATOM      2  C   UNL     1      -9.735  15.944  67.277  0.00  0.00    +0.043 C 
ATOM      3  C   UNL     1      -9.017  16.220  68.694  0.00  0.00    +0.004 C 
ATOM      4  C   UNL     1      -7.684  16.857  67.894  0.00  0.00    +0.003 C 
ATOM      5  C   UNL     1      -8.349  18.389  67.854  0.00  0.00    +0.038 C 
ATOM      6  C   UNL     1      -9.212  18.281  66.382  0.00  0.00    +0.153 C 
ATOM      7  O   UNL     1      -8.286  17.311  65.682  0.00  0.00    -0.223 OA
ATOM      8  C   UNL     1      -7.058  19.009  67.163  0.00  0.00    +0.036 C 
ATOM      9  C   UNL     1      -6.351  19.486  68.406  0.00  0.00    -0.038 C 
ATOM     10  C   UNL     1      -5.254  20.174  68.070  0.00  0.00    +0.034 C 
ATOM     11  C   UNL     1      -5.065  20.714  66.714  0.00  0.00    +0.195 C 
ATOM     12  C   UNL     1      -6.246  20.693  65.835  0.00  0.00    +0.038 C 
ATOM     13  O   UNL     1      -3.962  21.224  66.349  0.00  0.00    -0.287 OA
ATOM     14  C   UNL     1      -6.404  18.474  69.448  0.00  0.00    +0.022 C 
ATOM     15  C   UNL     1      -6.091  18.042  66.637  0.00  0.00    +0.009 C 
ATOM     16  C   UNL     1      -7.364  20.086  66.256  0.00  0.00    -0.020 C 
ATOM     17  C   UNL     1      -6.913  17.162  69.262  0.00  0.00    +0.004 C 
ATOM     18  C   UNL     1      -8.428  14.711  68.700  0.00  0.00    +0.004 C 
ATOM     19  C   UNL     1      -8.853  15.119  66.410  0.00  0.00    +0.004 C 
ATOM     20  C   UNL     1     -10.283  17.161  66.900  0.00  0.00    +0.037 C 
ATOM     21  C   UNL     1      -9.608  13.898  68.270  0.00  0.00    +0.048 C 
ENDROOT
BRANCH   1  22
ATOM     22  C   UNL     1     -11.402  15.217  69.021  0.00  0.00    +0.230 C 
ATOM     23  O   UNL     1     -12.083  16.252  69.068  0.00  0.00    -0.288 OA
BRANCH  22  24
ATOM     24  C   UNL     1     -11.515  14.510  70.284  0.00  0.00    +0.276 C 
BRANCH  24  25
ATOM     25  O   UNL     1     -12.561  13.714  70.580  0.00  0.00    -0.440 OA
BRANCH  25  26
ATOM     26  C   UNL     1     -12.506  12.391  70.942  0.00  0.00    +0.317 C 
ATOM     27  O   UNL     1     -13.276  12.146  71.887  0.00  0.00    -0.250 OA
BRANCH  26  28
ATOM     28  C   UNL     1     -11.899  11.311  70.135  0.00  0.00    +0.110 C 
ATOM     29  C   UNL     1     -11.708  10.034  70.899  0.00  0.00    +0.012 C 
ENDBRANCH  26  28
ENDBRANCH  25  26
ENDBRANCH  24  25
ENDBRANCH  22  24
ENDBRANCH   1  22
BRANCH   1  30
ATOM     30  O   UNL     1     -11.152  14.250  66.762  0.00  0.00    -0.418 OA
BRANCH  30  31
ATOM     31  C   UNL     1     -12.224  13.601  66.315  0.00  0.00    +0.512 C 
ATOM     32  O   UNL     1     -12.230  12.499  66.890  0.00  0.00    -0.203 OA
BRANCH  31  33
ATOM     33  O   UNL     1     -12.719  13.663  65.027  0.00  0.00    -0.418 OA
BRANCH  33  35
ATOM     34  C   UNL     1     -12.379  12.192  63.503  0.00  0.00    +0.051 C 
ATOM     35  C   UNL     1     -12.007  13.230  63.893  0.00  0.00    +0.212 C 
ENDBRANCH  33  35
ENDBRANCH  31  33
ENDBRANCH  30  31
ENDBRANCH   1  30
TORSDOF 9
ENDMDL
MODEL 5
REMARK VINA RESULT:      -7.4      3.345      7.251
REMARK  Name = 
REMARK  9 active torsions:
REMARK  status: ('A' for Active; 'I' for Inactive)
REMARK    1  A    between atoms: C_2  and  O_3
REMARK    2  A    between atoms: O_3  and  C_4
REMARK    3  A    between atoms: C_4  and  O_6
REMARK    4  A    between atoms: O_6  and  C_7
REMARK    5  A    between atoms: C_7  and  C_8
REMARK    6  A    between atoms: C_8  and  C_10
REMARK    7  A    between atoms: C_10  and  O_11
REMARK    8  A    between atoms: O_11  and  C_12
REMARK    9  A    between atoms: C_12  and  C_14
REMARK                            x       y       z     vdW  Elec       q    Type
REMARK                         _______ _______ _______ _____ _____    ______ ____
ROOT
ATOM      1  C   UNL     1     -10.247  14.969  67.559  0.00  0.00    +0.193 C 
ATOM      2  C   UNL     1      -9.958  13.505  67.351  0.00  0.00    +0.043 C 
ATOM      3  C   UNL     1     -10.639  13.022  68.730  0.00  0.00    +0.004 C 
ATOM      4  C   UNL     1     -10.791  11.468  68.110  0.00  0.00    +0.003 C 
ATOM      5  C   UNL     1      -9.264  11.033  68.630  0.00  0.00    +0.038 C 
ATOM      6  C   UNL     1      -8.356  11.515  67.264  0.00  0.00    +0.153 C 
ATOM      7  O   UNL     1      -9.427  11.279  66.223  0.00  0.00    -0.223 OA
ATOM      8  C   UNL     1      -9.436   9.540  68.109  0.00  0.00    +0.036 C 
ATOM      9  C   UNL     1      -9.913   8.912  69.394  0.00  0.00    -0.038 C 
ATOM     10  C   UNL     1     -10.018   7.587  69.241  0.00  0.00    +0.034 C 
ATOM     11  C   UNL     1      -9.349   6.880  68.137  0.00  0.00    +0.195 C 
ATOM     12  C   UNL     1      -8.353   7.654  67.378  0.00  0.00    +0.038 C 
ATOM     13  O   UNL     1      -9.576   5.655  67.898  0.00  0.00    -0.287 OA
ATOM     14  C   UNL     1     -10.912   9.752  70.035  0.00  0.00    +0.022 C 
ATOM     15  C   UNL     1     -10.582   9.300  67.230  0.00  0.00    +0.009 C 
ATOM     16  C   UNL     1      -8.203   8.961  67.639  0.00  0.00    -0.020 C 
ATOM     17  C   UNL     1     -11.470  10.919  69.450  0.00  0.00    +0.004 C 
ATOM     18  C   UNL     1     -12.090  13.496  68.191  0.00  0.00    +0.004 C 
ATOM     19  C   UNL     1     -10.848  13.186  66.203  0.00  0.00    +0.004 C 
ATOM     20  C   UNL     1      -8.630  13.116  67.440  0.00  0.00    +0.037 C 
ATOM     21  C   UNL     1     -11.794  14.832  67.586  0.00  0.00    +0.048 C 
ENDROOT
BRANCH   1  22
ATOM     22  C   UNL     1      -9.939  15.532  68.848  0.00  0.00    +0.230 C 
ATOM     23  O   UNL     1      -8.759  15.536  69.231  0.00  0.00    -0.288 OA
BRANCH  22  24
ATOM     24  C   UNL     1     -10.773  16.162  69.855  0.00  0.00    +0.276 C 
BRANCH  24  25
ATOM     25  O   UNL     1     -11.025  15.593  71.050  0.00  0.00    -0.440 OA
BRANCH  25  26
ATOM     26  C   UNL     1     -12.191  15.683  71.769  0.00  0.00    +0.317 C 
ATOM     27  O   UNL     1     -12.056  16.421  72.762  0.00  0.00    -0.250 OA
BRANCH  26  28
ATOM     28  C   UNL     1     -13.525  15.266  71.288  0.00  0.00    +0.110 C 
ATOM     29  C   UNL     1     -14.117  14.139  72.081  0.00  0.00    +0.012 C 
ENDBRANCH  26  28
ENDBRANCH  25  26
ENDBRANCH  24  25
ENDBRANCH  22  24
ENDBRANCH   1  22
BRANCH   1  30
ATOM     30  O   UNL     1     -10.115  15.550  66.384  0.00  0.00    -0.418 OA
BRANCH  30  31
ATOM     31  C   UNL     1     -10.275  16.716  65.763  0.00  0.00    +0.512 C 
ATOM     32  O   UNL     1     -10.814  16.460  64.672  0.00  0.00    -0.203 OA
BRANCH  31  33
ATOM     33  O   UNL     1      -9.396  17.780  65.816  0.00  0.00    -0.418 OA
BRANCH  33  35
ATOM     34  C   UNL     1     -10.605  18.887  67.201  0.00  0.00    +0.051 C 
ATOM     35  C   UNL     1      -9.575  18.903  66.646  0.00  0.00    +0.212 C 
ENDBRANCH  33  35
ENDBRANCH  31  33
ENDBRANCH  30  31
ENDBRANCH   1  30
TORSDOF 9
ENDMDL
MODEL 6
REMARK VINA RESULT:      -7.0      2.971      6.144
REMARK  Name = 
REMARK  9 active torsions:
REMARK  status: ('A' for Active; 'I' for Inactive)
REMARK    1  A    between atoms: C_2  and  O_3
REMARK    2  A    between atoms: O_3  and  C_4
REMARK    3  A    between atoms: C_4  and  O_6
REMARK    4  A    between atoms: O_6  and  C_7
REMARK    5  A    between atoms: C_7  and  C_8
REMARK    6  A    between atoms: C_8  and  C_10
REMARK    7  A    between atoms: C_10  and  O_11
REMARK    8  A    between atoms: O_11  and  C_12
REMARK    9  A    between atoms: C_12  and  C_14
REMARK                            x       y       z     vdW  Elec       q    Type
REMARK                         _______ _______ _______ _____ _____    ______ ____
ROOT
ATOM      1  C   UNL     1     -10.113  11.328  68.098  0.00  0.00    +0.193 C 
ATOM      2  C   UNL     1      -9.956  12.811  68.304  0.00  0.00    +0.043 C 
ATOM      3  C   UNL     1     -10.365  13.214  66.797  0.00  0.00    +0.004 C 
ATOM      4  C   UNL     1     -10.729  14.771  67.312  0.00  0.00    +0.003 C 
ATOM      5  C   UNL     1      -9.155  15.288  67.098  0.00  0.00    +0.038 C 
ATOM      6  C   UNL     1      -8.522  14.901  68.638  0.00  0.00    +0.153 C 
ATOM      7  O   UNL     1      -9.795  15.096  69.430  0.00  0.00    -0.223 OA
ATOM      8  C   UNL     1      -9.514  16.781  67.515  0.00  0.00    +0.036 C 
ATOM      9  C   UNL     1      -9.751  17.343  66.136  0.00  0.00    -0.038 C 
ATOM     10  C   UNL     1      -9.960  18.662  66.213  0.00  0.00    +0.034 C 
ATOM     11  C   UNL     1      -9.574  19.439  67.402  0.00  0.00    +0.195 C 
ATOM     12  C   UNL     1      -8.714  18.750  68.378  0.00  0.00    +0.038 C 
ATOM     13  O   UNL     1      -9.915  20.653  67.543  0.00  0.00    -0.287 OA
ATOM     14  C   UNL     1     -10.548  16.425  65.338  0.00  0.00    +0.022 C 
ATOM     15  C   UNL     1     -10.829  16.971  68.132  0.00  0.00    +0.009 C 
ATOM     16  C   UNL     1      -8.439  17.449  68.204  0.00  0.00    -0.020 C 
ATOM     17  C   UNL     1     -11.147  15.241  65.842  0.00  0.00    +0.004 C 
ATOM     18  C   UNL     1     -11.866  12.663  67.047  0.00  0.00    +0.004 C 
ATOM     19  C   UNL     1     -11.080  13.103  69.232  0.00  0.00    +0.004 C 
ATOM     20  C   UNL     1      -8.662  13.282  68.473  0.00  0.00    +0.037 C 
ATOM     21  C   UNL     1     -11.626  11.365  67.751  0.00  0.00    +0.048 C 
ENDROOT
BRANCH   1  22
ATOM     22  C   UNL     1      -9.514  10.751  66.922  0.00  0.00    +0.230 C 
ATOM     23  O   UNL     1      -8.286  10.838  66.774  0.00  0.00    -0.288 OA
BRANCH  22  24
ATOM     24  C   UNL     1     -10.082  10.018  65.805  0.00  0.00    +0.276 C 
BRANCH  24  25
ATOM     25  O   UNL     1      -9.493   9.967  64.594  0.00  0.00    -0.440 OA
BRANCH  25  26
ATOM     26  C   UNL     1      -9.810  10.730  63.498  0.00  0.00    +0.317 C 
ATOM     27  O   UNL     1      -9.673  10.086  62.442  0.00  0.00    -0.250 OA
BRANCH  26  28
ATOM     28  C   UNL     1     -10.540  12.015  63.535  0.00  0.00    +0.110 C 
ATOM     29  C   UNL     1     -12.027  11.857  63.407  0.00  0.00    +0.012 C 
ENDBRANCH  26  28
ENDBRANCH  25  26
ENDBRANCH  24  25
ENDBRANCH  22  24
ENDBRANCH   1  22
BRANCH   1  30
ATOM     30  O   UNL     1     -10.192  10.787  69.296  0.00  0.00    -0.418 OA
BRANCH  30  31
ATOM     31  C   UNL     1     -10.045   9.632  69.942  0.00  0.00    +0.512 C 
ATOM     32  O   UNL     1      -8.823   9.405  69.976  0.00  0.00    -0.203 OA
BRANCH  31  33
ATOM     33  O   UNL     1     -10.903   8.553  69.861  0.00  0.00    -0.418 OA
BRANCH  33  35
ATOM     34  C   UNL     1     -12.104   8.890  71.607  0.00  0.00    +0.051 C 
ATOM     35  C   UNL     1     -11.627   8.044  70.956  0.00  0.00    +0.212 C 
ENDBRANCH  33  35
ENDBRANCH  31  33
ENDBRANCH  30  31
ENDBRANCH   1  30
TORSDOF 9
ENDMDL
MODEL 7
REMARK VINA RESULT:      -6.9      5.551      8.042
REMARK  Name = 
REMARK  9 active torsions:
REMARK  status: ('A' for Active; 'I' for Inactive)
REMARK    1  A    between atoms: C_2  and  O_3
REMARK    2  A    between atoms: O_3  and  C_4
REMARK    3  A    between atoms: C_4  and  O_6
REMARK    4  A    between atoms: O_6  and  C_7
REMARK    5  A    between atoms: C_7  and  C_8
REMARK    6  A    between atoms: C_8  and  C_10
REMARK    7  A    between atoms: C_10  and  O_11
REMARK    8  A    between atoms: O_11  and  C_12
REMARK    9  A    between atoms: C_12  and  C_14
REMARK                            x       y       z     vdW  Elec       q    Type
REMARK                         _______ _______ _______ _____ _____    ______ ____
ROOT
ATOM      1  C   UNL     1      -9.347   7.200  68.857  0.00  0.00    +0.193 C 
ATOM      2  C   UNL     1      -9.385   8.421  67.976  0.00  0.00    +0.043 C 
ATOM      3  C   UNL     1     -10.448   9.225  68.883  0.00  0.00    +0.004 C 
ATOM      4  C   UNL     1      -9.950  10.670  68.186  0.00  0.00    +0.003 C 
ATOM      5  C   UNL     1     -11.035  10.520  66.925  0.00  0.00    +0.038 C 
ATOM      6  C   UNL     1     -10.070   9.631  65.830  0.00  0.00    +0.153 C 
ATOM      7  O   UNL     1      -8.729  10.186  66.254  0.00  0.00    -0.223 OA
ATOM      8  C   UNL     1     -10.616  11.923  66.304  0.00  0.00    +0.036 C 
ATOM      9  C   UNL     1     -11.680  12.775  66.949  0.00  0.00    -0.038 C 
ATOM     10  C   UNL     1     -11.612  14.024  66.475  0.00  0.00    +0.034 C 
ATOM     11  C   UNL     1     -10.900  14.339  65.226  0.00  0.00    +0.195 C 
ATOM     12  C   UNL     1     -10.502  13.190  64.396  0.00  0.00    +0.038 C 
ATOM     13  O   UNL     1     -10.697  15.537  64.860  0.00  0.00    -0.287 OA
ATOM     14  C   UNL     1     -11.830  12.432  68.354  0.00  0.00    +0.022 C 
ATOM     15  C   UNL     1      -9.397  12.523  66.851  0.00  0.00    +0.009 C 
ATOM     16  C   UNL     1     -10.689  11.948  64.865  0.00  0.00    -0.020 C 
ATOM     17  C   UNL     1     -10.983  11.531  69.052  0.00  0.00    +0.004 C 
ATOM     18  C   UNL     1      -9.371   9.309  70.089  0.00  0.00    +0.004 C 
ATOM     19  C   UNL     1      -8.021   8.976  68.176  0.00  0.00    +0.004 C 
ATOM     20  C   UNL     1      -9.995   8.275  66.739  0.00  0.00    +0.037 C 
ATOM     21  C   UNL     1      -8.808   7.923  70.122  0.00  0.00    +0.048 C 
ENDROOT
BRANCH   1  22
ATOM     22  C   UNL     1     -10.606   6.654  69.295  0.00  0.00    +0.230 C 
ATOM     23  O   UNL     1     -11.395   6.218  68.444  0.00  0.00    -0.288 OA
BRANCH  22  24
ATOM     24  C   UNL     1     -11.176   6.472  70.617  0.00  0.00    +0.276 C 
BRANCH  24  25
ATOM     25  O   UNL     1     -12.299   7.100  71.017  0.00  0.00    -0.440 OA
BRANCH  25  26
ATOM     26  C   UNL     1     -12.412   7.993  72.054  0.00  0.00    +0.317 C 
ATOM     27  O   UNL     1     -11.370   8.037  72.731  0.00  0.00    -0.250 OA
BRANCH  26  28
ATOM     28  C   UNL     1     -13.465   9.023  72.181  0.00  0.00    +0.110 C 
ATOM     29  C   UNL     1     -13.018  10.387  71.745  0.00  0.00    +0.012 C 
ENDBRANCH  26  28
ENDBRANCH  25  26
ENDBRANCH  24  25
ENDBRANCH  22  24
ENDBRANCH   1  22
BRANCH   1  30
ATOM     30  O   UNL     1      -8.261   6.531  68.528  0.00  0.00    -0.418 OA
BRANCH  30  31
ATOM     31  C   UNL     1      -7.847   5.340  68.104  0.00  0.00    +0.512 C 
ATOM     32  O   UNL     1      -6.631   5.455  67.872  0.00  0.00    -0.203 OA
BRANCH  31  33
ATOM     33  O   UNL     1      -8.577   4.470  67.317  0.00  0.00    -0.418 OA
BRANCH  33  35
ATOM     34  C   UNL     1     -10.097   4.425  65.803  0.00  0.00    +0.051 C 
ATOM     35  C   UNL     1      -8.996   4.764  66.006  0.00  0.00    +0.212 C 
ENDBRANCH  33  35
ENDBRANCH  31  33
ENDBRANCH  30  31
ENDBRANCH   1  30
TORSDOF 9
ENDMDL
MODEL 8
REMARK VINA RESULT:      -6.9      2.437      7.733
REMARK  Name = 
REMARK  9 active torsions:
REMARK  status: ('A' for Active; 'I' for Inactive)
REMARK    1  A    between atoms: C_2  and  O_3
REMARK    2  A    between atoms: O_3  and  C_4
REMARK    3  A    between atoms: C_4  and  O_6
REMARK    4  A    between atoms: O_6  and  C_7
REMARK    5  A    between atoms: C_7  and  C_8
REMARK    6  A    between atoms: C_8  and  C_10
REMARK    7  A    between atoms: C_10  and  O_11
REMARK    8  A    between atoms: O_11  and  C_12
REMARK    9  A    between atoms: C_12  and  C_14
REMARK                            x       y       z     vdW  Elec       q    Type
REMARK                         _______ _______ _______ _____ _____    ______ ____
ROOT
ATOM      1  C   UNL     1      -6.927  19.495  67.986  0.00  0.00    +0.193 C 
ATOM      2  C   UNL     1      -7.645  18.297  67.421  0.00  0.00    +0.043 C 
ATOM      3  C   UNL     1      -8.377  17.899  68.801  0.00  0.00    +0.004 C 
ATOM      4  C   UNL     1      -9.522  17.021  67.940  0.00  0.00    +0.003 C 
ATOM      5  C   UNL     1      -8.582  15.639  67.959  0.00  0.00    +0.038 C 
ATOM      6  C   UNL     1      -7.675  15.899  66.534  0.00  0.00    +0.153 C 
ATOM      7  O   UNL     1      -8.724  16.677  65.771  0.00  0.00    -0.223 OA
ATOM      8  C   UNL     1      -9.696  14.787  67.208  0.00  0.00    +0.036 C 
ATOM      9  C   UNL     1     -10.370  14.192  68.419  0.00  0.00    -0.038 C 
ATOM     10  C   UNL     1     -11.300  13.310  68.034  0.00  0.00    +0.034 C 
ATOM     11  C   UNL     1     -11.310  12.738  66.678  0.00  0.00    +0.195 C 
ATOM     12  C   UNL     1     -10.106  12.975  65.863  0.00  0.00    +0.038 C 
ATOM     13  O   UNL     1     -12.277  12.031  66.262  0.00  0.00    -0.287 OA
ATOM     14  C   UNL     1     -10.564  15.201  69.447  0.00  0.00    +0.022 C 
ATOM     15  C   UNL     1     -10.795  15.554  66.617  0.00  0.00    +0.009 C 
ATOM     16  C   UNL     1      -9.145  13.782  66.335  0.00  0.00    -0.020 C 
ATOM     17  C   UNL     1     -10.297  16.584  69.269  0.00  0.00    +0.004 C 
ATOM     18  C   UNL     1      -9.235  19.271  68.753  0.00  0.00    +0.004 C 
ATOM     19  C   UNL     1      -8.615  18.940  66.496  0.00  0.00    +0.004 C 
ATOM     20  C   UNL     1      -6.861  17.202  67.091  0.00  0.00    +0.037 C 
ATOM     21  C   UNL     1      -8.204  20.288  68.375  0.00  0.00    +0.048 C 
ENDROOT
BRANCH   1  22
ATOM     22  C   UNL     1      -6.241  19.329  69.241  0.00  0.00    +0.230 C 
ATOM     23  O   UNL     1      -5.450  18.383  69.369  0.00  0.00    -0.288 OA
BRANCH  22  24
ATOM     24  C   UNL     1      -6.264  20.105  70.468  0.00  0.00    +0.276 C 
BRANCH  24  25
ATOM     25  O   UNL     1      -5.367  21.075  70.732  0.00  0.00    -0.440 OA
BRANCH  25  26
ATOM     26  C   UNL     1      -4.114  20.906  71.265  0.00  0.00    +0.317 C 
ATOM     27  O   UNL     1      -4.140  20.162  72.262  0.00  0.00    -0.250 OA
BRANCH  26  28
ATOM     28  C   UNL     1      -2.846  21.255  70.590  0.00  0.00    +0.110 C 
ATOM     29  C   UNL     1      -2.781  20.782  69.167  0.00  0.00    +0.012 C 
ENDBRANCH  26  28
ENDBRANCH  25  26
ENDBRANCH  24  25
ENDBRANCH  22  24
ENDBRANCH   1  22
BRANCH   1  30
ATOM     30  O   UNL     1      -6.541  20.222  66.958  0.00  0.00    -0.418 OA
BRANCH  30  31
ATOM     31  C   UNL     1      -5.480  20.843  66.447  0.00  0.00    +0.512 C 
ATOM     32  O   UNL     1      -5.455  21.974  66.962  0.00  0.00    -0.203 OA
BRANCH  31  33
ATOM     33  O   UNL     1      -5.023  20.711  65.150  0.00  0.00    -0.418 OA
BRANCH  33  35
ATOM     34  C   UNL     1      -5.636  19.117  63.851  0.00  0.00    +0.051 C 
ATOM     35  C   UNL     1      -5.816  20.250  64.083  0.00  0.00    +0.212 C 
ENDBRANCH  33  35
ENDBRANCH  31  33
ENDBRANCH  30  31
ENDBRANCH   1  30
TORSDOF 9
ENDMDL
MODEL 9
REMARK VINA RESULT:      -6.8      3.408      8.321
REMARK  Name = 
REMARK  9 active torsions:
REMARK  status: ('A' for Active; 'I' for Inactive)
REMARK    1  A    between atoms: C_2  and  O_3
REMARK    2  A    between atoms: O_3  and  C_4
REMARK    3  A    between atoms: C_4  and  O_6
REMARK    4  A    between atoms: O_6  and  C_7
REMARK    5  A    between atoms: C_7  and  C_8
REMARK    6  A    between atoms: C_8  and  C_10
REMARK    7  A    between atoms: C_10  and  O_11
REMARK    8  A    between atoms: O_11  and  C_12
REMARK    9  A    between atoms: C_12  and  C_14
REMARK                            x       y       z     vdW  Elec       q    Type
REMARK                         _______ _______ _______ _____ _____    ______ ____
ROOT
ATOM      1  C   UNL     1     -10.557  14.467  67.325  0.00  0.00    +0.193 C 
ATOM      2  C   UNL     1     -10.375  13.028  67.731  0.00  0.00    +0.043 C 
ATOM      3  C   UNL     1      -9.555  12.605  66.409  0.00  0.00    +0.004 C 
ATOM      4  C   UNL     1      -8.931  11.274  67.222  0.00  0.00    +0.003 C 
ATOM      5  C   UNL     1     -10.236  10.317  66.804  0.00  0.00    +0.038 C 
ATOM      6  C   UNL     1     -11.271  10.665  68.119  0.00  0.00    +0.153 C 
ATOM      7  O   UNL     1     -10.197  10.917  69.154  0.00  0.00    -0.223 OA
ATOM      8  C   UNL     1      -9.612   9.035  67.511  0.00  0.00    +0.036 C 
ATOM      9  C   UNL     1      -8.941   8.425  66.307  0.00  0.00    -0.038 C 
ATOM     10  C   UNL     1      -8.427   7.232  66.629  0.00  0.00    +0.034 C 
ATOM     11  C   UNL     1      -8.858   6.504  67.833  0.00  0.00    +0.195 C 
ATOM     12  C   UNL     1     -10.059   7.020  68.511  0.00  0.00    +0.038 C 
ATOM     13  O   UNL     1      -8.261   5.455  68.224  0.00  0.00    -0.287 OA
ATOM     14  C   UNL     1      -8.246   9.442  65.535  0.00  0.00    +0.022 C 
ATOM     15  C   UNL     1      -8.462   9.285  68.383  0.00  0.00    +0.009 C 
ATOM     16  C   UNL     1     -10.608   8.167  68.085  0.00  0.00    -0.020 C 
ATOM     17  C   UNL     1      -8.093  10.792  65.948  0.00  0.00    +0.004 C 
ATOM     18  C   UNL     1      -8.335  13.577  66.842  0.00  0.00    +0.004 C 
ATOM     19  C   UNL     1      -9.448  13.159  68.885  0.00  0.00    +0.004 C 
ATOM     20  C   UNL     1     -11.511  12.234  67.728  0.00  0.00    +0.037 C 
ATOM     21  C   UNL     1      -9.046  14.821  67.275  0.00  0.00    +0.048 C 
ENDROOT
BRANCH   1  22
ATOM     22  C   UNL     1     -11.007  14.729  65.982  0.00  0.00    +0.230 C 
ATOM     23  O   UNL     1     -10.275  15.384  65.225  0.00  0.00    -0.288 OA
BRANCH  22  24
ATOM     24  C   UNL     1     -12.211  14.342  65.270  0.00  0.00    +0.276 C 
BRANCH  24  25
ATOM     25  O   UNL     1     -12.181  13.629  64.127  0.00  0.00    -0.440 OA
BRANCH  25  26
ATOM     26  C   UNL     1     -12.344  12.271  64.006  0.00  0.00    +0.317 C 
ATOM     27  O   UNL     1     -13.548  11.956  64.013  0.00  0.00    -0.250 OA
BRANCH  26  28
ATOM     28  C   UNL     1     -11.295  11.322  63.578  0.00  0.00    +0.110 C 
ATOM     29  C   UNL     1     -10.037  11.996  63.115  0.00  0.00    +0.012 C 
ENDBRANCH  26  28
ENDBRANCH  25  26
ENDBRANCH  24  25
ENDBRANCH  22  24
ENDBRANCH   1  22
BRANCH   1  30
ATOM     30  O   UNL     1     -10.885  15.128  68.417  0.00  0.00    -0.418 OA
BRANCH  30  31
ATOM     31  C   UNL     1     -11.725  16.052  68.876  0.00  0.00    +0.512 C 
ATOM     32  O   UNL     1     -11.238  17.153  68.565  0.00  0.00    -0.203 OA
BRANCH  31  33
ATOM     33  O   UNL     1     -12.441  15.969  70.054  0.00  0.00    -0.418 OA
BRANCH  33  35
ATOM     34  C   UNL     1     -11.717  15.242  71.938  0.00  0.00    +0.051 C 
ATOM     35  C   UNL     1     -12.306  14.918  70.981  0.00  0.00    +0.212 C 
ENDBRANCH  33  35
ENDBRANCH  31  33
ENDBRANCH  30  31
ENDBRANCH   1  30
TORSDOF 9
ENDMDL
