MODEL 1
REMARK VINA RESULT:      -6.4      0.000      0.000
REMARK  Name = 
REMARK  8 active torsions:
REMARK  status: ('A' for Active; 'I' for Inactive)
REMARK    1  A    between atoms: C_2  and  C_4
REMARK    2  A    between atoms: C_4  and  N_5
REMARK    3  A    between atoms: N_8  and  C_9
REMARK    4  A    between atoms: C_9  and  C_10
REMARK    5  A    between atoms: N_15  and  C_16
REMARK    6  A    between atoms: C_16  and  C_17
REMARK    7  A    between atoms: N_22  and  C_23
REMARK    8  A    between atoms: C_23  and  C_24
REMARK                            x       y       z     vdW  Elec       q    Type
REMARK                         _______ _______ _______ _____ _____    ______ ____
ROOT
ATOM      1  N   UNL     1     -10.588  13.045  66.050  0.00  0.00    -0.268 NA
ATOM      2  C   UNL     1      -9.814  14.177  66.465  0.00  0.00    +0.090 C 
ATOM      3  C   UNL     1     -10.669  15.421  66.686  0.00  0.00    +0.090 C 
ATOM      4  N   UNL     1      -9.958  16.232  67.606  0.00  0.00    -0.261 NA
ATOM      5  C   UNL     1     -10.368  16.204  68.957  0.00  0.00    +0.090 C 
ATOM      6  C   UNL     1     -11.788  15.784  69.194  0.00  0.00    +0.090 C 
ATOM      7  N   UNL     1     -11.942  14.841  70.270  0.00  0.00    -0.261 NA
ATOM      8  C   UNL     1     -11.240  13.604  70.060  0.00  0.00    +0.090 C 
ATOM      9  C   UNL     1     -12.258  12.475  70.141  0.00  0.00    +0.090 C 
ATOM     10  N   UNL     1     -11.903  11.509  69.105  0.00  0.00    -0.261 NA
ATOM     11  C   UNL     1     -12.063  12.160  67.811  0.00  0.00    +0.090 C 
ATOM     12  C   UNL     1     -10.764  12.045  67.065  0.00  0.00    +0.090 C 
ENDROOT
BRANCH   1  13
ATOM     13  C   UNL     1     -11.805  13.415  65.375  0.00  0.00    +0.105 C 
BRANCH  13  15
ATOM     14  C   UNL     1     -12.404  11.778  63.719  0.00  0.00    +0.037 C 
ATOM     15  C   UNL     1     -11.407  13.131  63.765  0.00  0.00    +0.168 C 
ATOM     16  O   UNL     1     -12.563  14.038  63.279  0.00  0.00    -0.222 OA
ENDBRANCH  13  15
ENDBRANCH   1  13
BRANCH   4  17
ATOM     17  C   UNL     1      -9.426  17.451  67.112  0.00  0.00    +0.188 C 
BRANCH  17  18
ATOM     18  C   UNL     1     -10.588  18.280  66.662  0.00  0.00    +0.381 C 
ATOM     19  O   UNL     1     -11.032  19.288  67.525  0.00  0.00    -0.244 OA
ATOM     20  O   UNL     1     -10.584  18.588  65.433  0.00  0.00    -0.244 OA
ENDBRANCH  17  18
ENDBRANCH   4  17
BRANCH  10  21
ATOM     21  C   UNL     1     -10.504  11.161  69.320  0.00  0.00    +0.188 C 
BRANCH  21  22
ATOM     22  C   UNL     1     -10.364   9.805  69.897  0.00  0.00    +0.381 C 
ATOM     23  O   UNL     1     -10.733   9.553  71.202  0.00  0.00    -0.244 OA
ATOM     24  O   UNL     1     -10.159   8.824  69.140  0.00  0.00    -0.244 OA
ENDBRANCH  21  22
ENDBRANCH  10  21
BRANCH   7  25
ATOM     25  C   UNL     1     -11.733  15.414  71.575  0.00  0.00    +0.188 C 
BRANCH  25  26
ATOM     26  C   UNL     1     -13.012  15.274  72.337  0.00  0.00    +0.381 C 
ATOM     27  O   UNL     1     -13.230  14.194  73.199  0.00  0.00    -0.244 OA
ATOM     28  O   UNL     1     -14.052  15.809  71.849  0.00  0.00    -0.244 OA
ENDBRANCH  25  26
ENDBRANCH   7  25
TORSDOF 8
ENDMDL
MODEL 2
REMARK VINA RESULT:      -6.3      1.006      5.979
REMARK  Name = 
REMARK  8 active torsions:
REMARK  status: ('A' for Active; 'I' for Inactive)
REMARK    1  A    between atoms: C_2  and  C_4
REMARK    2  A    between atoms: C_4  and  N_5
REMARK    3  A    between atoms: N_8  and  C_9
REMARK    4  A    between atoms: C_9  and  C_10
REMARK    5  A    between atoms: N_15  and  C_16
REMARK    6  A    between atoms: C_16  and  C_17
REMARK    7  A    between atoms: N_22  and  C_23
REMARK    8  A    between atoms: C_23  and  C_24
REMARK                            x       y       z     vdW  Elec       q    Type
REMARK                         _______ _______ _______ _____ _____    ______ ____
ROOT
ATOM      1  N   UNL     1     -11.749  11.694  68.770  0.00  0.00    -0.268 NA
ATOM      2  C   UNL     1     -12.376  12.756  69.500  0.00  0.00    +0.090 C 
ATOM      3  C   UNL     1     -11.372  13.619  70.257  0.00  0.00    +0.090 C 
ATOM      4  N   UNL     1     -11.984  14.887  70.421  0.00  0.00    -0.261 NA
ATOM      5  C   UNL     1     -11.596  15.921  69.541  0.00  0.00    +0.090 C 
ATOM      6  C   UNL     1     -10.244  15.761  68.911  0.00  0.00    +0.090 C 
ATOM      7  N   UNL     1     -10.224  16.045  67.500  0.00  0.00    -0.261 NA
ATOM      8  C   UNL     1     -11.075  15.185  66.725  0.00  0.00    +0.090 C 
ATOM      9  C   UNL     1     -10.212  14.504  65.674  0.00  0.00    +0.090 C 
ATOM     10  N   UNL     1     -10.676  13.123  65.573  0.00  0.00    -0.261 NA
ATOM     11  C   UNL     1     -10.419  12.469  66.850  0.00  0.00    +0.090 C 
ATOM     12  C   UNL     1     -11.713  11.893  67.349  0.00  0.00    +0.090 C 
ENDROOT
BRANCH   1  13
ATOM     13  C   UNL     1     -10.487  11.294  69.337  0.00  0.00    +0.105 C 
BRANCH  13  15
ATOM     14  C   UNL     1      -9.172   9.467  70.181  0.00  0.00    +0.037 C 
ATOM     15  C   UNL     1     -10.648   9.620  69.390  0.00  0.00    +0.168 C 
ATOM     16  O   UNL     1     -11.399   9.697  70.741  0.00  0.00    -0.222 OA
ENDBRANCH  13  15
ENDBRANCH   1  13
BRANCH   4  17
ATOM     17  C   UNL     1     -12.350  15.259  71.741  0.00  0.00    +0.188 C 
BRANCH  17  18
ATOM     18  C   UNL     1     -13.803  14.930  71.896  0.00  0.00    +0.381 C 
ATOM     19  O   UNL     1     -14.126  13.745  72.564  0.00  0.00    -0.244 OA
ATOM     20  O   UNL     1     -14.550  15.918  72.161  0.00  0.00    -0.244 OA
ENDBRANCH  17  18
ENDBRANCH   4  17
BRANCH  10  21
ATOM     21  C   UNL     1     -12.110  13.182  65.320  0.00  0.00    +0.188 C 
BRANCH  21  22
ATOM     22  C   UNL     1     -12.413  13.061  63.876  0.00  0.00    +0.381 C 
ATOM     23  O   UNL     1     -12.865  11.869  63.348  0.00  0.00    -0.244 OA
ATOM     24  O   UNL     1     -12.513  14.096  63.172  0.00  0.00    -0.244 OA
ENDBRANCH  21  22
ENDBRANCH  10  21
BRANCH   7  25
ATOM     25  C   UNL     1     -10.373  17.444  67.190  0.00  0.00    +0.188 C 
BRANCH  25  26
ATOM     26  C   UNL     1      -9.016  17.974  66.851  0.00  0.00    +0.381 C 
ATOM     27  O   UNL     1      -8.581  19.216  67.326  0.00  0.00    -0.244 OA
ATOM     28  O   UNL     1      -8.478  17.576  65.775  0.00  0.00    -0.244 OA
ENDBRANCH  25  26
ENDBRANCH   7  25
TORSDOF 8
ENDMDL
MODEL 3
REMARK VINA RESULT:      -6.3      1.449      5.430
REMARK  Name = 
REMARK  8 active torsions:
REMARK  status: ('A' for Active; 'I' for Inactive)
REMARK    1  A    between atoms: C_2  and  C_4
REMARK    2  A    between atoms: C_4  and  N_5
REMARK    3  A    between atoms: N_8  and  C_9
REMARK    4  A    between atoms: C_9  and  C_10
REMARK    5  A    between atoms: N_15  and  C_16
REMARK    6  A    between atoms: C_16  and  C_17
REMARK    7  A    between atoms: N_22  and  C_23
REMARK    8  A    between atoms: C_23  and  C_24
REMARK                            x       y       z     vdW  Elec       q    Type
REMARK                         _______ _______ _______ _____ _____    ______ ____
ROOT
ATOM      1  N   UNL     1     -10.512  16.462  68.064  0.00  0.00    -0.268 NA
ATOM      2  C   UNL     1     -10.990  15.636  66.995  0.00  0.00    +0.090 C 
ATOM      3  C   UNL     1     -10.107  14.414  66.760  0.00  0.00    +0.090 C 
ATOM      4  N   UNL     1     -10.937  13.437  66.154  0.00  0.00    -0.261 NA
ATOM      5  C   UNL     1     -11.444  12.408  66.978  0.00  0.00    +0.090 C 
ATOM      6  C   UNL     1     -10.657  12.128  68.224  0.00  0.00    +0.090 C 
ATOM      7  N   UNL     1     -11.470  11.972  69.400  0.00  0.00    -0.261 NA
ATOM      8  C   UNL     1     -12.244  13.137  69.729  0.00  0.00    +0.090 C 
ATOM      9  C   UNL     1     -11.879  13.550  71.147  0.00  0.00    +0.090 C 
ATOM     10  N   UNL     1     -11.820  15.009  71.162  0.00  0.00    -0.261 NA
ATOM     11  C   UNL     1     -10.732  15.424  70.285  0.00  0.00    +0.090 C 
ATOM     12  C   UNL     1     -11.289  16.379  69.268  0.00  0.00    +0.090 C 
ENDROOT
BRANCH   1  13
ATOM     13  C   UNL     1      -9.092  16.341  68.274  0.00  0.00    +0.105 C 
BRANCH  13  15
ATOM     14  C   UNL     1      -7.045  17.506  68.754  0.00  0.00    +0.037 C 
ATOM     15  C   UNL     1      -8.617  17.952  68.355  0.00  0.00    +0.168 C 
ATOM     16  O   UNL     1      -8.265  17.964  66.848  0.00  0.00    -0.222 OA
ENDBRANCH  13  15
ENDBRANCH   1  13
BRANCH   4  17
ATOM     17  C   UNL     1     -10.667  13.113  64.799  0.00  0.00    +0.188 C 
BRANCH  17  18
ATOM     18  C   UNL     1     -11.977  13.151  64.075  0.00  0.00    +0.381 C 
ATOM     19  O   UNL     1     -12.552  14.406  63.851  0.00  0.00    -0.244 OA
ATOM     20  O   UNL     1     -12.083  12.332  63.116  0.00  0.00    -0.244 OA
ENDBRANCH  17  18
ENDBRANCH   4  17
BRANCH  10  21
ATOM     21  C   UNL     1     -13.094  15.484  70.638  0.00  0.00    +0.188 C 
BRANCH  21  22
ATOM     22  C   UNL     1     -14.138  15.512  71.687  0.00  0.00    +0.381 C 
ATOM     23  O   UNL     1     -13.835  15.918  72.971  0.00  0.00    -0.244 OA
ATOM     24  O   UNL     1     -15.348  15.421  71.365  0.00  0.00    -0.244 OA
ENDBRANCH  21  22
ENDBRANCH  10  21
BRANCH   7  25
ATOM     25  C   UNL     1     -12.228  10.746  69.420  0.00  0.00    +0.188 C 
BRANCH  25  26
ATOM     26  C   UNL     1     -11.920  10.049  70.707  0.00  0.00    +0.381 C 
ATOM     27  O   UNL     1     -12.775  10.147  71.809  0.00  0.00    -0.244 OA
ATOM     28  O   UNL     1     -10.705   9.806  70.971  0.00  0.00    -0.244 OA
ENDBRANCH  25  26
ENDBRANCH   7  25
TORSDOF 8
ENDMDL
MODEL 4
REMARK VINA RESULT:      -6.0      1.395      7.372
REMARK  Name = 
REMARK  8 active torsions:
REMARK  status: ('A' for Active; 'I' for Inactive)
REMARK    1  A    between atoms: C_2  and  C_4
REMARK    2  A    between atoms: C_4  and  N_5
REMARK    3  A    between atoms: N_8  and  C_9
REMARK    4  A    between atoms: C_9  and  C_10
REMARK    5  A    between atoms: N_15  and  C_16
REMARK    6  A    between atoms: C_16  and  C_17
REMARK    7  A    between atoms: N_22  and  C_23
REMARK    8  A    between atoms: C_23  and  C_24
REMARK                            x       y       z     vdW  Elec       q    Type
REMARK                         _______ _______ _______ _____ _____    ______ ____
ROOT
ATOM      1  N   UNL     1     -11.110  15.222  70.166  0.00  0.00    -0.268 NA
ATOM      2  C   UNL     1     -10.825  13.826  70.008  0.00  0.00    +0.090 C 
ATOM      3  C   UNL     1     -11.963  13.070  69.329  0.00  0.00    +0.090 C 
ATOM      4  N   UNL     1     -11.374  11.933  68.720  0.00  0.00    -0.261 NA
ATOM      5  C   UNL     1     -11.124  11.990  67.332  0.00  0.00    +0.090 C 
ATOM      6  C   UNL     1     -11.967  12.963  66.561  0.00  0.00    +0.090 C 
ATOM      7  N   UNL     1     -11.222  13.753  65.617  0.00  0.00    -0.261 NA
ATOM      8  C   UNL     1     -10.205  14.570  66.219  0.00  0.00    +0.090 C 
ATOM      9  C   UNL     1     -10.478  16.014  65.827  0.00  0.00    +0.090 C 
ATOM     10  N   UNL     1     -10.200  16.833  67.004  0.00  0.00    -0.261 NA
ATOM     11  C   UNL     1     -11.155  16.466  68.042  0.00  0.00    +0.090 C 
ATOM     12  C   UNL     1     -10.384  16.079  69.272  0.00  0.00    +0.090 C 
ENDROOT
BRANCH   1  13
ATOM     13  C   UNL     1     -12.522  15.502  70.228  0.00  0.00    +0.105 C 
BRANCH  13  15
ATOM     14  C   UNL     1     -12.078  16.187  72.489  0.00  0.00    +0.037 C 
ATOM     15  C   UNL     1     -12.920  14.929  71.758  0.00  0.00    +0.168 C 
ATOM     16  O   UNL     1     -14.228  15.756  71.770  0.00  0.00    -0.222 OA
ENDBRANCH  13  15
ENDBRANCH   1  13
BRANCH   4  17
ATOM     17  C   UNL     1     -11.698  10.667  69.273  0.00  0.00    +0.188 C 
BRANCH  17  18
ATOM     18  C   UNL     1     -10.445   9.849  69.247  0.00  0.00    +0.381 C 
ATOM     19  O   UNL     1      -9.749   9.699  70.451  0.00  0.00    -0.244 OA
ATOM     20  O   UNL     1     -10.497   8.811  68.523  0.00  0.00    -0.244 OA
ENDBRANCH  17  18
ENDBRANCH   4  17
BRANCH  10  21
ATOM     21  C   UNL     1      -8.846  16.504  67.431  0.00  0.00    +0.188 C 
BRANCH  21  22
ATOM     22  C   UNL     1      -7.877  17.543  67.014  0.00  0.00    +0.381 C 
ATOM     23  O   UNL     1      -7.443  17.617  65.706  0.00  0.00    -0.244 OA
ATOM     24  O   UNL     1      -7.644  18.517  67.770  0.00  0.00    -0.244 OA
ENDBRANCH  21  22
ENDBRANCH  10  21
BRANCH   7  25
ATOM     25  C   UNL     1     -10.766  13.006  64.472  0.00  0.00    +0.188 C 
BRANCH  25  26
ATOM     26  C   UNL     1     -11.905  12.929  63.505  0.00  0.00    +0.381 C 
ATOM     27  O   UNL     1     -12.739  14.027  63.274  0.00  0.00    -0.244 OA
ATOM     28  O   UNL     1     -12.418  11.791  63.287  0.00  0.00    -0.244 OA
ENDBRANCH  25  26
ENDBRANCH   7  25
TORSDOF 8
ENDMDL
MODEL 5
REMARK VINA RESULT:      -5.6      2.319      4.239
REMARK  Name = 
REMARK  8 active torsions:
REMARK  status: ('A' for Active; 'I' for Inactive)
REMARK    1  A    between atoms: C_2  and  C_4
REMARK    2  A    between atoms: C_4  and  N_5
REMARK    3  A    between atoms: N_8  and  C_9
REMARK    4  A    between atoms: C_9  and  C_10
REMARK    5  A    between atoms: N_15  and  C_16
REMARK    6  A    between atoms: C_16  and  C_17
REMARK    7  A    between atoms: N_22  and  C_23
REMARK    8  A    between atoms: C_23  and  C_24
REMARK                            x       y       z     vdW  Elec       q    Type
REMARK                         _______ _______ _______ _____ _____    ______ ____
ROOT
ATOM      1  N   UNL     1     -10.537  13.019  66.399  0.00  0.00    -0.268 NA
ATOM      2  C   UNL     1     -10.750  13.675  67.655  0.00  0.00    +0.090 C 
ATOM      3  C   UNL     1     -12.131  13.391  68.238  0.00  0.00    +0.090 C 
ATOM      4  N   UNL     1     -12.012  13.567  69.639  0.00  0.00    -0.261 NA
ATOM      5  C   UNL     1     -11.883  12.409  70.436  0.00  0.00    +0.090 C 
ATOM      6  C   UNL     1     -12.418  11.144  69.831  0.00  0.00    +0.090 C 
ATOM      7  N   UNL     1     -11.540  10.014  69.981  0.00  0.00    -0.261 NA
ATOM      8  C   UNL     1     -10.259  10.188  69.354  0.00  0.00    +0.090 C 
ATOM      9  C   UNL     1     -10.068   9.048  68.365  0.00  0.00    +0.090 C 
ATOM     10  N   UNL     1      -9.429   9.616  67.182  0.00  0.00    -0.261 NA
ATOM     11  C   UNL     1     -10.355  10.571  66.586  0.00  0.00    +0.090 C 
ATOM     12  C   UNL     1      -9.650  11.892  66.464  0.00  0.00    +0.090 C 
ENDROOT
BRANCH   1  13
ATOM     13  C   UNL     1     -11.763  12.758  65.688  0.00  0.00    +0.105 C 
BRANCH  13  15
ATOM     14  C   UNL     1     -12.313  12.049  63.458  0.00  0.00    +0.037 C 
ATOM     15  C   UNL     1     -11.375  13.270  64.133  0.00  0.00    +0.168 C 
ATOM     16  O   UNL     1     -12.576  14.246  64.114  0.00  0.00    -0.222 OA
ENDBRANCH  13  15
ENDBRANCH   1  13
BRANCH   4  17
ATOM     17  C   UNL     1     -12.690  14.677  70.208  0.00  0.00    +0.188 C 
BRANCH  17  18
ATOM     18  C   UNL     1     -11.648  15.704  70.526  0.00  0.00    +0.381 C 
ATOM     19  O   UNL     1     -11.318  16.618  69.521  0.00  0.00    -0.244 OA
ATOM     20  O   UNL     1     -11.713  16.190  71.694  0.00  0.00    -0.244 OA
ENDBRANCH  17  18
ENDBRANCH   4  17
BRANCH  10  21
ATOM     21  C   UNL     1      -8.229  10.303  67.644  0.00  0.00    +0.188 C 
BRANCH  21  22
ATOM     22  C   UNL     1      -7.039   9.426  67.573  0.00  0.00    +0.381 C 
ATOM     23  O   UNL     1      -6.359   9.069  68.719  0.00  0.00    -0.244 OA
ATOM     24  O   UNL     1      -6.794   8.792  66.518  0.00  0.00    -0.244 OA
ENDBRANCH  21  22
ENDBRANCH  10  21
BRANCH   7  25
ATOM     25  C   UNL     1     -11.464   9.517  71.332  0.00  0.00    +0.188 C 
BRANCH  25  26
ATOM     26  C   UNL     1     -12.685   8.687  71.573  0.00  0.00    +0.381 C 
ATOM     27  O   UNL     1     -13.653   9.071  72.506  0.00  0.00    -0.244 OA
ATOM     28  O   UNL     1     -12.611   7.445  71.336  0.00  0.00    -0.244 OA
ENDBRANCH  25  26
ENDBRANCH   7  25
TORSDOF 8
ENDMDL
MODEL 6
REMARK VINA RESULT:      -5.6      2.689      6.099
REMARK  Name = 
REMARK  8 active torsions:
REMARK  status: ('A' for Active; 'I' for Inactive)
REMARK    1  A    between atoms: C_2  and  C_4
REMARK    2  A    between atoms: C_4  and  N_5
REMARK    3  A    between atoms: N_8  and  C_9
REMARK    4  A    between atoms: C_9  and  C_10
REMARK    5  A    between atoms: N_15  and  C_16
REMARK    6  A    between atoms: C_16  and  C_17
REMARK    7  A    between atoms: N_22  and  C_23
REMARK    8  A    between atoms: C_23  and  C_24
REMARK                            x       y       z     vdW  Elec       q    Type
REMARK                         _______ _______ _______ _____ _____    ______ ____
ROOT
ATOM      1  N   UNL     1      -9.695  17.028  68.878  0.00  0.00    -0.268 NA
ATOM      2  C   UNL     1     -10.513  16.416  69.883  0.00  0.00    +0.090 C 
ATOM      3  C   UNL     1     -11.821  15.869  69.320  0.00  0.00    +0.090 C 
ATOM      4  N   UNL     1     -12.229  14.835  70.200  0.00  0.00    -0.261 NA
ATOM      5  C   UNL     1     -11.974  13.503  69.808  0.00  0.00    +0.090 C 
ATOM      6  C   UNL     1     -11.815  13.281  68.333  0.00  0.00    +0.090 C 
ATOM      7  N   UNL     1     -10.701  12.438  67.990  0.00  0.00    -0.261 NA
ATOM      8  C   UNL     1      -9.429  12.962  68.405  0.00  0.00    +0.090 C 
ATOM      9  C   UNL     1      -8.550  13.076  67.168  0.00  0.00    +0.090 C 
ATOM     10  N   UNL     1      -7.799  14.322  67.295  0.00  0.00    -0.261 NA
ATOM     11  C   UNL     1      -8.752  15.425  67.265  0.00  0.00    +0.090 C 
ATOM     12  C   UNL     1      -8.546  16.255  68.500  0.00  0.00    +0.090 C 
ENDROOT
BRANCH   1  13
ATOM     13  C   UNL     1     -10.457  17.527  67.763  0.00  0.00    +0.105 C 
BRANCH  13  15
ATOM     14  C   UNL     1     -10.584  19.179  66.021  0.00  0.00    +0.037 C 
ATOM     15  C   UNL     1      -9.626  18.939  67.382  0.00  0.00    +0.168 C 
ATOM     16  O   UNL     1     -10.589  19.786  68.248  0.00  0.00    -0.222 OA
ENDBRANCH  13  15
ENDBRANCH   1  13
BRANCH   4  17
ATOM     17  C   UNL     1     -13.392  15.074  70.978  0.00  0.00    +0.188 C 
BRANCH  17  18
ATOM     18  C   UNL     1     -13.245  14.272  72.234  0.00  0.00    +0.381 C 
ATOM     19  O   UNL     1     -12.667  14.906  73.339  0.00  0.00    -0.244 OA
ATOM     20  O   UNL     1     -14.222  13.511  72.501  0.00  0.00    -0.244 OA
ENDBRANCH  17  18
ENDBRANCH   4  17
BRANCH  10  21
ATOM     21  C   UNL     1      -7.127  14.277  68.587  0.00  0.00    +0.188 C 
BRANCH  21  22
ATOM     22  C   UNL     1      -5.688  13.963  68.440  0.00  0.00    +0.381 C 
ATOM     23  O   UNL     1      -4.967  13.451  69.499  0.00  0.00    -0.244 OA
ATOM     24  O   UNL     1      -5.175  13.911  67.295  0.00  0.00    -0.244 OA
ENDBRANCH  21  22
ENDBRANCH  10  21
BRANCH   7  25
ATOM     25  C   UNL     1     -10.898  11.052  68.333  0.00  0.00    +0.188 C 
BRANCH  25  26
ATOM     26  C   UNL     1     -10.596  10.242  67.112  0.00  0.00    +0.381 C 
ATOM     27  O   UNL     1     -10.760  10.771  65.829  0.00  0.00    -0.244 OA
ATOM     28  O   UNL     1     -10.684   8.981  67.204  0.00  0.00    -0.244 OA
ENDBRANCH  25  26
ENDBRANCH   7  25
TORSDOF 8
ENDMDL
MODEL 7
REMARK VINA RESULT:      -5.4      2.773      5.434
REMARK  Name = 
REMARK  8 active torsions:
REMARK  status: ('A' for Active; 'I' for Inactive)
REMARK    1  A    between atoms: C_2  and  C_4
REMARK    2  A    between atoms: C_4  and  N_5
REMARK    3  A    between atoms: N_8  and  C_9
REMARK    4  A    between atoms: C_9  and  C_10
REMARK    5  A    between atoms: N_15  and  C_16
REMARK    6  A    between atoms: C_16  and  C_17
REMARK    7  A    between atoms: N_22  and  C_23
REMARK    8  A    between atoms: C_23  and  C_24
REMARK                            x       y       z     vdW  Elec       q    Type
REMARK                         _______ _______ _______ _____ _____    ______ ____
ROOT
ATOM      1  N   UNL     1      -9.497  16.515  65.754  0.00  0.00    -0.268 NA
ATOM      2  C   UNL     1      -8.317  15.907  66.296  0.00  0.00    +0.090 C 
ATOM      3  C   UNL     1      -8.370  15.780  67.815  0.00  0.00    +0.090 C 
ATOM      4  N   UNL     1      -7.509  14.705  68.152  0.00  0.00    -0.261 NA
ATOM      5  C   UNL     1      -8.102  13.455  68.432  0.00  0.00    +0.090 C 
ATOM      6  C   UNL     1      -9.534  13.502  68.876  0.00  0.00    +0.090 C 
ATOM      7  N   UNL     1     -10.372  12.523  68.237  0.00  0.00    -0.261 NA
ATOM      8  C   UNL     1     -10.444  12.666  66.808  0.00  0.00    +0.090 C 
ATOM      9  C   UNL     1     -11.909  12.831  66.433  0.00  0.00    +0.090 C 
ATOM     10  N   UNL     1     -11.964  13.834  65.373  0.00  0.00    -0.261 NA
ATOM     11  C   UNL     1     -11.503  15.100  65.929  0.00  0.00    +0.090 C 
ATOM     12  C   UNL     1     -10.374  15.603  65.076  0.00  0.00    +0.090 C 
ENDROOT
BRANCH   1  13
ATOM     13  C   UNL     1     -10.164  17.380  66.693  0.00  0.00    +0.105 C 
BRANCH  13  15
ATOM     14  C   UNL     1     -10.650  19.639  66.030  0.00  0.00    +0.037 C 
ATOM     15  C   UNL     1      -9.281  18.804  66.538  0.00  0.00    +0.168 C 
ATOM     16  O   UNL     1      -9.559  19.182  68.012  0.00  0.00    -0.222 OA
ENDBRANCH  13  15
ENDBRANCH   1  13
BRANCH   4  17
ATOM     17  C   UNL     1      -6.315  15.030  68.847  0.00  0.00    +0.188 C 
BRANCH  17  18
ATOM     18  C   UNL     1      -5.182  14.794  67.896  0.00  0.00    +0.381 C 
ATOM     19  O   UNL     1      -5.100  13.534  67.294  0.00  0.00    -0.244 OA
ATOM     20  O   UNL     1      -4.905  15.771  67.139  0.00  0.00    -0.244 OA
ENDBRANCH  17  18
ENDBRANCH   4  17
BRANCH  10  21
ATOM     21  C   UNL     1     -11.055  13.387  64.326  0.00  0.00    +0.188 C 
BRANCH  21  22
ATOM     22  C   UNL     1     -11.621  12.252  63.562  0.00  0.00    +0.381 C 
ATOM     23  O   UNL     1     -10.942  11.054  63.474  0.00  0.00    -0.244 OA
ATOM     24  O   UNL     1     -12.826  12.276  63.212  0.00  0.00    -0.244 OA
ENDBRANCH  21  22
ENDBRANCH  10  21
BRANCH   7  25
ATOM     25  C   UNL     1     -10.121  11.173  68.675  0.00  0.00    +0.188 C 
BRANCH  25  26
ATOM     26  C   UNL     1     -11.207  10.805  69.635  0.00  0.00    +0.381 C 
ATOM     27  O   UNL     1     -10.948  10.005  70.753  0.00  0.00    -0.244 OA
ATOM     28  O   UNL     1     -12.396  10.775  69.200  0.00  0.00    -0.244 OA
ENDBRANCH  25  26
ENDBRANCH   7  25
TORSDOF 8
ENDMDL
MODEL 8
REMARK VINA RESULT:      -5.4      2.631      5.936
REMARK  Name = 
REMARK  8 active torsions:
REMARK  status: ('A' for Active; 'I' for Inactive)
REMARK    1  A    between atoms: C_2  and  C_4
REMARK    2  A    between atoms: C_4  and  N_5
REMARK    3  A    between atoms: N_8  and  C_9
REMARK    4  A    between atoms: C_9  and  C_10
REMARK    5  A    between atoms: N_15  and  C_16
REMARK    6  A    between atoms: C_16  and  C_17
REMARK    7  A    between atoms: N_22  and  C_23
REMARK    8  A    between atoms: C_23  and  C_24
REMARK                            x       y       z     vdW  Elec       q    Type
REMARK                         _______ _______ _______ _____ _____    ______ ____
ROOT
ATOM      1  N   UNL     1     -11.503  15.220  68.810  0.00  0.00    -0.268 NA
ATOM      2  C   UNL     1     -10.211  15.782  68.547  0.00  0.00    +0.090 C 
ATOM      3  C   UNL     1      -9.115  15.156  69.404  0.00  0.00    +0.090 C 
ATOM      4  N   UNL     1      -7.904  15.330  68.688  0.00  0.00    -0.261 NA
ATOM      5  C   UNL     1      -7.407  14.224  67.965  0.00  0.00    +0.090 C 
ATOM      6  C   UNL     1      -7.869  12.878  68.441  0.00  0.00    +0.090 C 
ATOM      7  N   UNL     1      -8.274  11.996  67.379  0.00  0.00    -0.261 NA
ATOM      8  C   UNL     1      -9.379  12.491  66.605  0.00  0.00    +0.090 C 
ATOM      9  C   UNL     1     -10.488  11.451  66.662  0.00  0.00    +0.090 C 
ATOM     10  N   UNL     1     -11.747  12.180  66.780  0.00  0.00    -0.261 NA
ATOM     11  C   UNL     1     -11.737  12.890  68.054  0.00  0.00    +0.090 C 
ATOM     12  C   UNL     1     -11.988  14.345  67.781  0.00  0.00    +0.090 C 
ENDROOT
BRANCH   1  13
ATOM     13  C   UNL     1     -11.619  14.680  70.140  0.00  0.00    +0.105 C 
BRANCH  13  15
ATOM     14  C   UNL     1     -13.291  14.359  71.837  0.00  0.00    +0.037 C 
ATOM     15  C   UNL     1     -12.879  15.597  70.776  0.00  0.00    +0.168 C 
ATOM     16  O   UNL     1     -11.938  16.230  71.829  0.00  0.00    -0.222 OA
ENDBRANCH  13  15
ENDBRANCH   1  13
BRANCH   4  17
ATOM     17  C   UNL     1      -6.954  16.229  69.239  0.00  0.00    +0.188 C 
BRANCH  17  18
ATOM     18  C   UNL     1      -6.952  17.446  68.367  0.00  0.00    +0.381 C 
ATOM     19  O   UNL     1      -7.794  18.501  68.734  0.00  0.00    -0.244 OA
ATOM     20  O   UNL     1      -5.815  17.792  67.931  0.00  0.00    -0.244 OA
ENDBRANCH  17  18
ENDBRANCH   4  17
BRANCH  10  21
ATOM     21  C   UNL     1     -11.784  13.133  65.677  0.00  0.00    +0.188 C 
BRANCH  21  22
ATOM     22  C   UNL     1     -12.178  12.480  64.408  0.00  0.00    +0.381 C 
ATOM     23  O   UNL     1     -13.487  12.101  64.188  0.00  0.00    -0.244 OA
ATOM     24  O   UNL     1     -11.395  12.502  63.428  0.00  0.00    -0.244 OA
ENDBRANCH  21  22
ENDBRANCH  10  21
BRANCH   7  25
ATOM     25  C   UNL     1      -7.177  11.508  66.583  0.00  0.00    +0.188 C 
BRANCH  25  26
ATOM     26  C   UNL     1      -6.805  10.159  67.111  0.00  0.00    +0.381 C 
ATOM     27  O   UNL     1      -7.782   9.225  67.471  0.00  0.00    -0.244 OA
ATOM     28  O   UNL     1      -5.687  10.040  67.693  0.00  0.00    -0.244 OA
ENDBRANCH  25  26
ENDBRANCH   7  25
TORSDOF 8
ENDMDL
MODEL 9
REMARK VINA RESULT:      -5.3      3.084      6.984
REMARK  Name = 
REMARK  8 active torsions:
REMARK  status: ('A' for Active; 'I' for Inactive)
REMARK    1  A    between atoms: C_2  and  C_4
REMARK    2  A    between atoms: C_4  and  N_5
REMARK    3  A    between atoms: N_8  and  C_9
REMARK    4  A    between atoms: C_9  and  C_10
REMARK    5  A    between atoms: N_15  and  C_16
REMARK    6  A    between atoms: C_16  and  C_17
REMARK    7  A    between atoms: N_22  and  C_23
REMARK    8  A    between atoms: C_23  and  C_24
REMARK                            x       y       z     vdW  Elec       q    Type
REMARK                         _______ _______ _______ _____ _____    ______ ____
ROOT
ATOM      1  N   UNL     1     -11.207  13.683  66.098  0.00  0.00    -0.268 NA
ATOM      2  C   UNL     1     -10.760  13.000  67.276  0.00  0.00    +0.090 C 
ATOM      3  C   UNL     1      -9.505  12.169  67.029  0.00  0.00    +0.090 C 
ATOM      4  N   UNL     1      -8.858  12.048  68.285  0.00  0.00    -0.261 NA
ATOM      5  C   UNL     1      -7.757  12.895  68.538  0.00  0.00    +0.090 C 
ATOM      6  C   UNL     1      -7.052  13.422  67.323  0.00  0.00    +0.090 C 
ATOM      7  N   UNL     1      -6.748  14.827  67.394  0.00  0.00    -0.261 NA
ATOM      8  C   UNL     1      -7.909  15.666  67.518  0.00  0.00    +0.090 C 
ATOM      9  C   UNL     1      -7.894  16.651  66.359  0.00  0.00    +0.090 C 
ATOM     10  N   UNL     1      -9.274  16.789  65.902  0.00  0.00    -0.261 NA
ATOM     11  C   UNL     1      -9.706  15.498  65.381  0.00  0.00    +0.090 C 
ATOM     12  C   UNL     1     -10.960  15.097  66.104  0.00  0.00    +0.090 C 
ENDROOT
BRANCH   1  13
ATOM     13  C   UNL     1     -10.804  13.024  64.881  0.00  0.00    +0.105 C 
BRANCH  13  15
ATOM     14  C   UNL     1     -11.954  11.741  63.205  0.00  0.00    +0.037 C 
ATOM     15  C   UNL     1     -12.150  13.260  63.900  0.00  0.00    +0.168 C 
ATOM     16  O   UNL     1     -13.090  12.678  64.983  0.00  0.00    -0.222 OA
ENDBRANCH  13  15
ENDBRANCH   1  13
BRANCH   4  17
ATOM     17  C   UNL     1      -8.837  10.758  68.877  0.00  0.00    +0.188 C 
BRANCH  17  18
ATOM     18  C   UNL     1      -8.490   9.788  67.791  0.00  0.00    +0.381 C 
ATOM     19  O   UNL     1      -7.133   9.583  67.521  0.00  0.00    -0.244 OA
ATOM     20  O   UNL     1      -9.210   8.747  67.752  0.00  0.00    -0.244 OA
ENDBRANCH  17  18
ENDBRANCH   4  17
BRANCH  10  21
ATOM     21  C   UNL     1     -10.068  17.148  67.071  0.00  0.00    +0.188 C 
BRANCH  21  22
ATOM     22  C   UNL     1     -10.494  18.565  67.024  0.00  0.00    +0.381 C 
ATOM     23  O   UNL     1     -10.526  19.328  68.173  0.00  0.00    -0.244 OA
ATOM     24  O   UNL     1     -10.576  19.155  65.919  0.00  0.00    -0.244 OA
ENDBRANCH  21  22
ENDBRANCH  10  21
BRANCH   7  25
ATOM     25  C   UNL     1      -5.699  15.145  68.328  0.00  0.00    +0.188 C 
BRANCH  25  26
ATOM     26  C   UNL     1      -4.451  15.380  67.538  0.00  0.00    +0.381 C 
ATOM     27  O   UNL     1      -4.368  16.413  66.600  0.00  0.00    -0.244 OA
ATOM     28  O   UNL     1      -3.683  14.392  67.340  0.00  0.00    -0.244 OA
ENDBRANCH  25  26
ENDBRANCH   7  25
TORSDOF 8
ENDMDL
