MODEL 1
REMARK VINA RESULT:      -3.5      0.000      0.000
REMARK  Name = 
REMARK  1 active torsions:
REMARK  status: ('A' for Active; 'I' for Inactive)
REMARK    1  A    between atoms: C_2  and  C_4
REMARK                            x       y       z     vdW  Elec       q    Type
REMARK                         _______ _______ _______ _____ _____    ______ ____
ROOT
ATOM      1  C   UNL     1     -13.701  13.889  72.401  0.00  0.00    +0.048 C 
ATOM      2  C   UNL     1     -13.962  15.514  72.581  0.00  0.00    +0.254 C 
ATOM      3  O   UNL     1     -13.268  15.834  71.262  0.00  0.00    -0.211 OA
ENDROOT
BRANCH   2   4
ATOM      4  C   UNL     1     -12.601  15.780  73.430  0.00  0.00    +0.395 C 
ATOM      5  O   UNL     1     -11.848  16.457  72.456  0.00  0.00    -0.243 OA
ATOM      6  O   UNL     1     -12.670  16.283  74.520  0.00  0.00    -0.243 OA
ENDBRANCH   2   4
TORSDOF 1
ENDMDL
MODEL 2
REMARK VINA RESULT:      -3.5      1.773      2.941
REMARK  Name = 
REMARK  1 active torsions:
REMARK  status: ('A' for Active; 'I' for Inactive)
REMARK    1  A    between atoms: C_2  and  C_4
REMARK                            x       y       z     vdW  Elec       q    Type
REMARK                         _______ _______ _______ _____ _____    ______ ____
ROOT
ATOM      1  C   UNL     1     -12.076  15.968  72.047  0.00  0.00    +0.048 C 
ATOM      2  C   UNL     1     -13.454  15.828  72.957  0.00  0.00    +0.254 C 
ATOM      3  O   UNL     1     -12.968  14.536  73.604  0.00  0.00    -0.211 OA
ENDROOT
BRANCH   2   4
ATOM      4  C   UNL     1     -14.288  15.015  71.822  0.00  0.00    +0.395 C 
ATOM      5  O   UNL     1     -14.362  13.757  72.444  0.00  0.00    -0.243 OA
ATOM      6  O   UNL     1     -15.310  15.478  71.391  0.00  0.00    -0.243 OA
ENDBRANCH   2   4
TORSDOF 1
ENDMDL
MODEL 3
REMARK VINA RESULT:      -3.5      1.789      2.500
REMARK  Name = 
REMARK  1 active torsions:
REMARK  status: ('A' for Active; 'I' for Inactive)
REMARK    1  A    between atoms: C_2  and  C_4
REMARK                            x       y       z     vdW  Elec       q    Type
REMARK                         _______ _______ _______ _____ _____    ______ ____
ROOT
ATOM      1  C   UNL     1     -12.073  16.041  72.094  0.00  0.00    +0.048 C 
ATOM      2  C   UNL     1     -13.436  15.303  71.508  0.00  0.00    +0.254 C 
ATOM      3  O   UNL     1     -14.335  16.056  72.483  0.00  0.00    -0.211 OA
ENDROOT
BRANCH   2   4
ATOM      4  C   UNL     1     -13.336  14.019  72.500  0.00  0.00    +0.395 C 
ATOM      5  O   UNL     1     -12.952  14.669  73.685  0.00  0.00    -0.243 OA
ATOM      6  O   UNL     1     -14.256  13.248  72.569  0.00  0.00    -0.243 OA
ENDBRANCH   2   4
TORSDOF 1
ENDMDL
MODEL 4
REMARK VINA RESULT:      -3.4      7.903      8.889
REMARK  Name = 
REMARK  1 active torsions:
REMARK  status: ('A' for Active; 'I' for Inactive)
REMARK    1  A    between atoms: C_2  and  C_4
REMARK                            x       y       z     vdW  Elec       q    Type
REMARK                         _______ _______ _______ _____ _____    ______ ____
ROOT
ATOM      1  C   UNL     1     -10.851  12.075  63.448  0.00  0.00    +0.048 C 
ATOM      2  C   UNL     1     -12.462  12.206  63.816  0.00  0.00    +0.254 C 
ATOM      3  O   UNL     1     -12.565  13.573  63.148  0.00  0.00    -0.211 OA
ENDROOT
BRANCH   2   4
ATOM      4  C   UNL     1     -12.216  12.872  65.278  0.00  0.00    +0.395 C 
ATOM      5  O   UNL     1     -13.196  13.879  65.242  0.00  0.00    -0.243 OA
ATOM      6  O   UNL     1     -12.185  12.169  66.253  0.00  0.00    -0.243 OA
ENDBRANCH   2   4
TORSDOF 1
ENDMDL
MODEL 5
REMARK VINA RESULT:      -3.4      7.452      8.419
REMARK  Name = 
REMARK  1 active torsions:
REMARK  status: ('A' for Active; 'I' for Inactive)
REMARK    1  A    between atoms: C_2  and  C_4
REMARK                            x       y       z     vdW  Elec       q    Type
REMARK                         _______ _______ _______ _____ _____    ______ ____
ROOT
ATOM      1  C   UNL     1     -10.973  14.792  66.670  0.00  0.00    +0.048 C 
ATOM      2  C   UNL     1     -10.481  14.930  65.094  0.00  0.00    +0.254 C 
ATOM      3  O   UNL     1     -10.097  16.394  65.279  0.00  0.00    -0.211 OA
ENDROOT
BRANCH   2   4
ATOM      4  C   UNL     1     -11.952  15.326  64.524  0.00  0.00    +0.395 C 
ATOM      5  O   UNL     1     -11.642  16.555  63.916  0.00  0.00    -0.243 OA
ATOM      6  O   UNL     1     -12.570  14.528  63.870  0.00  0.00    -0.243 OA
ENDBRANCH   2   4
TORSDOF 1
ENDMDL
MODEL 6
REMARK VINA RESULT:      -3.3      1.792      2.571
REMARK  Name = 
REMARK  1 active torsions:
REMARK  status: ('A' for Active; 'I' for Inactive)
REMARK    1  A    between atoms: C_2  and  C_4
REMARK                            x       y       z     vdW  Elec       q    Type
REMARK                         _______ _______ _______ _____ _____    ______ ____
ROOT
ATOM      1  C   UNL     1     -11.961  15.630  72.491  0.00  0.00    +0.048 C 
ATOM      2  C   UNL     1     -12.586  14.696  71.274  0.00  0.00    +0.254 C 
ATOM      3  O   UNL     1     -12.693  15.889  70.330  0.00  0.00    -0.211 OA
ENDROOT
BRANCH   2   4
ATOM      4  C   UNL     1     -14.132  14.861  71.752  0.00  0.00    +0.395 C 
ATOM      5  O   UNL     1     -14.272  13.678  72.498  0.00  0.00    -0.243 OA
ATOM      6  O   UNL     1     -14.486  15.885  72.273  0.00  0.00    -0.243 OA
ENDBRANCH   2   4
TORSDOF 1
ENDMDL
MODEL 7
REMARK VINA RESULT:      -3.3      1.553      2.028
REMARK  Name = 
REMARK  1 active torsions:
REMARK  status: ('A' for Active; 'I' for Inactive)
REMARK    1  A    between atoms: C_2  and  C_4
REMARK                            x       y       z     vdW  Elec       q    Type
REMARK                         _______ _______ _______ _____ _____    ______ ____
ROOT
ATOM      1  C   UNL     1     -13.570  13.891  72.414  0.00  0.00    +0.048 C 
ATOM      2  C   UNL     1     -13.426  15.466  72.908  0.00  0.00    +0.254 C 
ATOM      3  O   UNL     1     -14.680  15.883  72.148  0.00  0.00    -0.211 OA
ENDROOT
BRANCH   2   4
ATOM      4  C   UNL     1     -12.461  15.909  71.677  0.00  0.00    +0.395 C 
ATOM      5  O   UNL     1     -11.381  15.039  71.903  0.00  0.00    -0.243 OA
ATOM      6  O   UNL     1     -12.906  15.957  70.561  0.00  0.00    -0.243 OA
ENDBRANCH   2   4
TORSDOF 1
ENDMDL
MODEL 8
REMARK VINA RESULT:      -3.3      9.184      9.797
REMARK  Name = 
REMARK  1 active torsions:
REMARK  status: ('A' for Active; 'I' for Inactive)
REMARK    1  A    between atoms: C_2  and  C_4
REMARK                            x       y       z     vdW  Elec       q    Type
REMARK                         _______ _______ _______ _____ _____    ______ ____
ROOT
ATOM      1  C   UNL     1      -4.939  18.844  70.705  0.00  0.00    +0.048 C 
ATOM      2  C   UNL     1      -5.528  20.136  71.559  0.00  0.00    +0.254 C 
ATOM      3  O   UNL     1      -5.701  20.971  70.295  0.00  0.00    -0.211 OA
ENDROOT
BRANCH   2   4
ATOM      4  C   UNL     1      -4.067  20.783  71.858  0.00  0.00    +0.395 C 
ATOM      5  O   UNL     1      -4.459  22.077  72.240  0.00  0.00    -0.243 OA
ATOM      6  O   UNL     1      -3.298  20.205  72.579  0.00  0.00    -0.243 OA
ENDBRANCH   2   4
TORSDOF 1
ENDMDL
MODEL 9
REMARK VINA RESULT:      -3.3      7.967      8.985
REMARK  Name = 
REMARK  1 active torsions:
REMARK  status: ('A' for Active; 'I' for Inactive)
REMARK    1  A    between atoms: C_2  and  C_4
REMARK                            x       y       z     vdW  Elec       q    Type
REMARK                         _______ _______ _______ _____ _____    ______ ____
ROOT
ATOM      1  C   UNL     1     -10.685  12.530  63.882  0.00  0.00    +0.048 C 
ATOM      2  C   UNL     1     -12.081  12.206  64.713  0.00  0.00    +0.254 C 
ATOM      3  O   UNL     1     -12.886  12.065  63.426  0.00  0.00    -0.211 OA
ENDROOT
BRANCH   2   4
ATOM      4  C   UNL     1     -12.509  13.766  64.879  0.00  0.00    +0.395 C 
ATOM      5  O   UNL     1     -12.549  14.142  63.525  0.00  0.00    -0.243 OA
ATOM      6  O   UNL     1     -13.459  14.052  65.558  0.00  0.00    -0.243 OA
ENDBRANCH   2   4
TORSDOF 1
ENDMDL
