MODEL 1
REMARK VINA RESULT:      -5.6      0.000      0.000
REMARK  Name = 
REMARK  12 active torsions:
REMARK  status: ('A' for Active; 'I' for Inactive)
REMARK    1  A    between atoms: C_2  and  C_9
REMARK    2  A    between atoms: N_3  and  C_4
REMARK    3  A    between atoms: C_4  and  C_5
REMARK    4  A    between atoms: C_5  and  C_7
REMARK    5  A    between atoms: C_12  and  C_13
REMARK    6  A    between atoms: N_15  and  C_16
REMARK    7  A    between atoms: C_16  and  C_17
REMARK    8  A    between atoms: C_17  and  C_19
REMARK    9  A    between atoms: C_23  and  N_24
REMARK   10  A    between atoms: N_24  and  C_25
REMARK   11  A    between atoms: C_25  and  C_26
REMARK   12  A    between atoms: C_28  and  C_30
REMARK                            x       y       z     vdW  Elec       q    Type
REMARK                         _______ _______ _______ _____ _____    ______ ____
ROOT
ATOM      1  C   UNL     1      -6.385  15.703  67.219  0.00  0.00    +0.067 A 
ATOM      2  C   UNL     1      -5.937  16.959  66.904  0.00  0.00    +0.049 A 
ATOM      3  I   UNL     1      -4.015  17.572  67.550  0.00  0.00    -0.041 I 
ATOM      4  C   UNL     1      -6.742  17.939  66.334  0.00  0.00    +0.065 A 
ATOM      5  C   UNL     1      -8.118  17.801  66.475  0.00  0.00    +0.049 A 
ATOM      6  I   UNL     1      -9.405  19.439  66.739  0.00  0.00    -0.041 I 
ATOM      7  C   UNL     1      -8.620  16.550  66.774  0.00  0.00    +0.067 A 
ATOM      8  C   UNL     1      -7.761  15.519  67.131  0.00  0.00    +0.040 A 
ATOM      9  I   UNL     1      -8.594  13.767  67.971  0.00  0.00    -0.042 I 
ENDROOT
BRANCH   1  11
ATOM     10  O   UNL     1      -5.022  14.039  67.510  0.00  0.00    -0.268 OA
ATOM     11  C   UNL     1      -5.618  14.750  68.024  0.00  0.00    +0.266 C 
ATOM     12  N   UNL     1      -5.409  14.825  69.404  0.00  0.00    -0.199 NA
BRANCH  12  13
ATOM     13  C   UNL     1      -4.076  14.568  69.884  0.00  0.00    +0.151 C 
BRANCH  13  14
ATOM     14  C   UNL     1      -4.169  14.765  71.541  0.00  0.00    +0.206 C 
ATOM     15  O   UNL     1      -4.878  16.127  71.413  0.00  0.00    -0.218 OA
BRANCH  14  16
ATOM     16  C   UNL     1      -5.625  13.943  71.619  0.00  0.00    +0.217 C 
ATOM     17  O   UNL     1      -5.819  13.813  73.000  0.00  0.00    -0.218 OA
ENDBRANCH  14  16
ENDBRANCH  13  14
ENDBRANCH  12  13
ENDBRANCH   1  11
BRANCH   4  18
ATOM     18  N   UNL     1      -6.230  19.220  65.945  0.00  0.00    -0.253 N 
ATOM     19  C   UNL     1      -5.816  19.485  64.597  0.00  0.00    +0.263 C 
ATOM     20  O   UNL     1      -4.687  19.001  64.287  0.00  0.00    -0.272 OA
BRANCH  19  21
ATOM     21  C   UNL     1      -6.329  20.713  63.936  0.00  0.00    +0.267 C 
ATOM     22  O   UNL     1      -5.633  21.050  62.792  0.00  0.00    -0.210 OA
ENDBRANCH  19  21
BRANCH  18  23
ATOM     23  C   UNL     1      -5.355  19.840  66.943  0.00  0.00    +0.134 C 
BRANCH  23  24
ATOM     24  C   UNL     1      -6.021  20.939  67.706  0.00  0.00    +0.204 C 
ATOM     25  O   UNL     1      -6.246  20.581  69.045  0.00  0.00    -0.218 OA
ENDBRANCH  23  24
ENDBRANCH  18  23
ENDBRANCH   4  18
BRANCH   7  26
ATOM     26  C   UNL     1      -9.971  16.243  66.324  0.00  0.00    +0.266 C 
ATOM     27  N   UNL     1     -10.278  15.686  65.062  0.00  0.00    -0.199 NA
ATOM     28  O   UNL     1     -10.866  16.127  67.216  0.00  0.00    -0.268 OA
BRANCH  27  29
ATOM     29  C   UNL     1     -11.618  15.312  64.665  0.00  0.00    +0.151 C 
BRANCH  29  30
ATOM     30  C   UNL     1     -11.379  13.687  64.350  0.00  0.00    +0.206 C 
ATOM     31  O   UNL     1     -12.590  13.651  63.398  0.00  0.00    -0.218 OA
BRANCH  30  32
ATOM     32  C   UNL     1     -12.336  13.254  65.653  0.00  0.00    +0.217 C 
ATOM     33  O   UNL     1     -13.467  14.045  65.442  0.00  0.00    -0.218 OA
ENDBRANCH  30  32
ENDBRANCH  29  30
ENDBRANCH  27  29
ENDBRANCH   7  26
TORSDOF 12
ENDMDL
MODEL 2
REMARK VINA RESULT:      -5.4      1.493      1.797
REMARK  Name = 
REMARK  12 active torsions:
REMARK  status: ('A' for Active; 'I' for Inactive)
REMARK    1  A    between atoms: C_2  and  C_9
REMARK    2  A    between atoms: N_3  and  C_4
REMARK    3  A    between atoms: C_4  and  C_5
REMARK    4  A    between atoms: C_5  and  C_7
REMARK    5  A    between atoms: C_12  and  C_13
REMARK    6  A    between atoms: N_15  and  C_16
REMARK    7  A    between atoms: C_16  and  C_17
REMARK    8  A    between atoms: C_17  and  C_19
REMARK    9  A    between atoms: C_23  and  N_24
REMARK   10  A    between atoms: N_24  and  C_25
REMARK   11  A    between atoms: C_25  and  C_26
REMARK   12  A    between atoms: C_28  and  C_30
REMARK                            x       y       z     vdW  Elec       q    Type
REMARK                         _______ _______ _______ _____ _____    ______ ____
ROOT
ATOM      1  C   UNL     1      -6.580  14.992  67.701  0.00  0.00    +0.067 A 
ATOM      2  C   UNL     1      -6.186  16.292  67.877  0.00  0.00    +0.049 A 
ATOM      3  I   UNL     1      -4.372  16.704  68.889  0.00  0.00    -0.041 I 
ATOM      4  C   UNL     1      -6.999  17.384  67.590  0.00  0.00    +0.065 A 
ATOM      5  C   UNL     1      -8.371  17.165  67.533  0.00  0.00    +0.049 A 
ATOM      6  I   UNL     1      -9.777  18.575  68.198  0.00  0.00    -0.041 I 
ATOM      7  C   UNL     1      -8.817  15.873  67.338  0.00  0.00    +0.067 A 
ATOM      8  C   UNL     1      -7.929  14.808  67.413  0.00  0.00    +0.040 A 
ATOM      9  I   UNL     1      -8.720  12.850  67.521  0.00  0.00    -0.042 I 
ENDROOT
BRANCH   1  11
ATOM     10  O   UNL     1      -5.029  13.475  67.620  0.00  0.00    -0.268 OA
ATOM     11  C   UNL     1      -5.828  13.844  68.213  0.00  0.00    +0.266 C 
ATOM     12  N   UNL     1      -5.904  13.326  69.509  0.00  0.00    -0.199 NA
BRANCH  12  13
ATOM     13  C   UNL     1      -4.664  12.987  70.158  0.00  0.00    +0.151 C 
BRANCH  13  14
ATOM     14  C   UNL     1      -4.754  13.708  71.663  0.00  0.00    +0.206 C 
ATOM     15  O   UNL     1      -5.113  12.381  72.359  0.00  0.00    -0.218 OA
BRANCH  14  16
ATOM     16  C   UNL     1      -3.118  13.482  71.937  0.00  0.00    +0.217 C 
ATOM     17  O   UNL     1      -2.599  14.762  71.710  0.00  0.00    -0.218 OA
ENDBRANCH  14  16
ENDBRANCH  13  14
ENDBRANCH  12  13
ENDBRANCH   1  11
BRANCH   4  18
ATOM     18  N   UNL     1      -6.537  18.735  67.713  0.00  0.00    -0.253 N 
ATOM     19  C   UNL     1      -5.991  19.445  66.592  0.00  0.00    +0.263 C 
ATOM     20  O   UNL     1      -4.803  19.124  66.292  0.00  0.00    -0.272 OA
BRANCH  19  21
ATOM     21  C   UNL     1      -6.510  20.808  66.306  0.00  0.00    +0.267 C 
ATOM     22  O   UNL     1      -5.820  21.806  66.967  0.00  0.00    -0.210 OA
ENDBRANCH  19  21
BRANCH  18  23
ATOM     23  C   UNL     1      -5.829  19.012  68.964  0.00  0.00    +0.134 C 
BRANCH  23  24
ATOM     24  C   UNL     1      -6.561  19.961  69.856  0.00  0.00    +0.204 C 
ATOM     25  O   UNL     1      -5.691  20.877  70.468  0.00  0.00    -0.218 OA
ENDBRANCH  23  24
ENDBRANCH  18  23
ENDBRANCH   4  18
BRANCH   7  26
ATOM     26  C   UNL     1     -10.101  15.698  66.672  0.00  0.00    +0.266 C 
ATOM     27  N   UNL     1     -10.245  15.340  65.313  0.00  0.00    -0.199 NA
ATOM     28  O   UNL     1     -11.114  15.502  67.410  0.00  0.00    -0.268 OA
BRANCH  27  29
ATOM     29  C   UNL     1     -11.528  15.090  64.691  0.00  0.00    +0.151 C 
BRANCH  29  30
ATOM     30  C   UNL     1     -11.328  13.488  64.256  0.00  0.00    +0.206 C 
ATOM     31  O   UNL     1     -12.431  13.598  63.186  0.00  0.00    -0.218 OA
BRANCH  30  32
ATOM     32  C   UNL     1     -12.436  12.996  65.409  0.00  0.00    +0.217 C 
ATOM     33  O   UNL     1     -13.379  14.023  65.344  0.00  0.00    -0.218 OA
ENDBRANCH  30  32
ENDBRANCH  29  30
ENDBRANCH  27  29
ENDBRANCH   7  26
TORSDOF 12
ENDMDL
MODEL 3
REMARK VINA RESULT:      -5.4      1.527      6.792
REMARK  Name = 
REMARK  12 active torsions:
REMARK  status: ('A' for Active; 'I' for Inactive)
REMARK    1  A    between atoms: C_2  and  C_9
REMARK    2  A    between atoms: N_3  and  C_4
REMARK    3  A    between atoms: C_4  and  C_5
REMARK    4  A    between atoms: C_5  and  C_7
REMARK    5  A    between atoms: C_12  and  C_13
REMARK    6  A    between atoms: N_15  and  C_16
REMARK    7  A    between atoms: C_16  and  C_17
REMARK    8  A    between atoms: C_17  and  C_19
REMARK    9  A    between atoms: C_23  and  N_24
REMARK   10  A    between atoms: N_24  and  C_25
REMARK   11  A    between atoms: C_25  and  C_26
REMARK   12  A    between atoms: C_28  and  C_30
REMARK                            x       y       z     vdW  Elec       q    Type
REMARK                         _______ _______ _______ _____ _____    ______ ____
ROOT
ATOM      1  C   UNL     1      -8.756  15.240  67.432  0.00  0.00    +0.067 A 
ATOM      2  C   UNL     1      -8.516  16.587  67.359  0.00  0.00    +0.049 A 
ATOM      3  I   UNL     1      -9.978  17.862  66.508  0.00  0.00    -0.041 I 
ATOM      4  C   UNL     1      -7.282  17.162  67.645  0.00  0.00    +0.065 A 
ATOM      5  C   UNL     1      -6.163  16.339  67.589  0.00  0.00    +0.049 A 
ATOM      6  I   UNL     1      -4.294  17.005  66.901  0.00  0.00    -0.041 I 
ATOM      7  C   UNL     1      -6.352  14.974  67.678  0.00  0.00    +0.067 A 
ATOM      8  C   UNL     1      -7.632  14.440  67.609  0.00  0.00    +0.040 A 
ATOM      9  I   UNL     1      -7.833  12.354  67.334  0.00  0.00    -0.042 I 
ENDROOT
BRANCH   1  11
ATOM     10  O   UNL     1     -10.818  14.571  67.553  0.00  0.00    -0.268 OA
ATOM     11  C   UNL     1      -9.972  14.607  66.914  0.00  0.00    +0.266 C 
ATOM     12  N   UNL     1     -10.205  14.249  65.584  0.00  0.00    -0.199 NA
BRANCH  12  13
ATOM     13  C   UNL     1     -11.498  14.567  65.033  0.00  0.00    +0.151 C 
BRANCH  13  14
ATOM     14  C   UNL     1     -12.161  13.092  64.612  0.00  0.00    +0.206 C 
ATOM     15  O   UNL     1     -12.635  13.613  63.241  0.00  0.00    -0.218 OA
BRANCH  14  16
ATOM     16  C   UNL     1     -10.711  12.551  63.975  0.00  0.00    +0.217 C 
ATOM     17  O   UNL     1     -10.900  11.164  63.940  0.00  0.00    -0.218 OA
ENDBRANCH  14  16
ENDBRANCH  13  14
ENDBRANCH  12  13
ENDBRANCH   1  11
BRANCH   4  18
ATOM     18  N   UNL     1      -7.077  18.580  67.633  0.00  0.00    -0.253 N 
ATOM     19  C   UNL     1      -7.174  19.363  68.832  0.00  0.00    +0.263 C 
ATOM     20  O   UNL     1      -8.359  19.593  69.216  0.00  0.00    -0.272 OA
BRANCH  19  21
ATOM     21  C   UNL     1      -6.073  20.310  69.140  0.00  0.00    +0.267 C 
ATOM     22  O   UNL     1      -6.000  20.649  70.477  0.00  0.00    -0.210 OA
ENDBRANCH  19  21
BRANCH  18  23
ATOM     23  C   UNL     1      -7.644  19.254  66.463  0.00  0.00    +0.134 C 
BRANCH  23  24
ATOM     24  C   UNL     1      -6.605  19.771  65.522  0.00  0.00    +0.204 C 
ATOM     25  O   UNL     1      -6.399  18.898  64.443  0.00  0.00    -0.218 OA
ENDBRANCH  23  24
ENDBRANCH  18  23
ENDBRANCH   4  18
BRANCH   7  26
ATOM     26  C   UNL     1      -5.266  14.180  68.236  0.00  0.00    +0.266 C 
ATOM     27  N   UNL     1      -5.141  13.863  69.607  0.00  0.00    -0.199 NA
ATOM     28  O   UNL     1      -4.614  13.445  67.433  0.00  0.00    -0.268 OA
BRANCH  27  29
ATOM     29  C   UNL     1      -4.100  13.004  70.130  0.00  0.00    +0.151 C 
BRANCH  29  30
ATOM     30  C   UNL     1      -4.875  12.409  71.488  0.00  0.00    +0.206 C 
ATOM     31  O   UNL     1      -6.058  11.902  70.641  0.00  0.00    -0.218 OA
BRANCH  30  32
ATOM     32  C   UNL     1      -5.634  13.878  71.745  0.00  0.00    +0.217 C 
ATOM     33  O   UNL     1      -5.709  13.911  73.139  0.00  0.00    -0.218 OA
ENDBRANCH  30  32
ENDBRANCH  29  30
ENDBRANCH  27  29
ENDBRANCH   7  26
TORSDOF 12
ENDMDL
MODEL 4
REMARK VINA RESULT:      -5.3      2.761      6.781
REMARK  Name = 
REMARK  12 active torsions:
REMARK  status: ('A' for Active; 'I' for Inactive)
REMARK    1  A    between atoms: C_2  and  C_9
REMARK    2  A    between atoms: N_3  and  C_4
REMARK    3  A    between atoms: C_4  and  C_5
REMARK    4  A    between atoms: C_5  and  C_7
REMARK    5  A    between atoms: C_12  and  C_13
REMARK    6  A    between atoms: N_15  and  C_16
REMARK    7  A    between atoms: C_16  and  C_17
REMARK    8  A    between atoms: C_17  and  C_19
REMARK    9  A    between atoms: C_23  and  N_24
REMARK   10  A    between atoms: N_24  and  C_25
REMARK   11  A    between atoms: C_25  and  C_26
REMARK   12  A    between atoms: C_28  and  C_30
REMARK                            x       y       z     vdW  Elec       q    Type
REMARK                         _______ _______ _______ _____ _____    ______ ____
ROOT
ATOM      1  C   UNL     1      -7.443  18.417  68.388  0.00  0.00    +0.067 A 
ATOM      2  C   UNL     1      -6.441  17.540  68.707  0.00  0.00    +0.049 A 
ATOM      3  I   UNL     1      -4.428  18.070  68.320  0.00  0.00    -0.041 I 
ATOM      4  C   UNL     1      -6.671  16.228  69.110  0.00  0.00    +0.065 A 
ATOM      5  C   UNL     1      -7.895  15.660  68.776  0.00  0.00    +0.049 A 
ATOM      6  I   UNL     1      -8.107  13.637  68.255  0.00  0.00    -0.041 I 
ATOM      7  C   UNL     1      -8.942  16.504  68.465  0.00  0.00    +0.067 A 
ATOM      8  C   UNL     1      -8.714  17.862  68.283  0.00  0.00    +0.040 A 
ATOM      9  I   UNL     1     -10.248  19.027  67.411  0.00  0.00    -0.042 I 
ENDROOT
BRANCH   1  11
ATOM     10  O   UNL     1      -6.876  20.513  68.360  0.00  0.00    -0.268 OA
ATOM     11  C   UNL     1      -7.208  19.713  67.746  0.00  0.00    +0.266 C 
ATOM     12  N   UNL     1      -7.155  19.948  66.370  0.00  0.00    -0.199 NA
BRANCH  12  13
ATOM     13  C   UNL     1      -6.093  20.792  65.885  0.00  0.00    +0.151 C 
BRANCH  13  14
ATOM     14  C   UNL     1      -5.307  19.877  64.729  0.00  0.00    +0.206 C 
ATOM     15  O   UNL     1      -6.470  18.871  64.629  0.00  0.00    -0.218 OA
BRANCH  14  16
ATOM     16  C   UNL     1      -5.922  20.809  63.483  0.00  0.00    +0.217 C 
ATOM     17  O   UNL     1      -5.847  19.935  62.392  0.00  0.00    -0.218 OA
ENDBRANCH  14  16
ENDBRANCH  13  14
ENDBRANCH  12  13
ENDBRANCH   1  11
BRANCH   4  18
ATOM     18  N   UNL     1      -5.609  15.353  69.510  0.00  0.00    -0.253 N 
ATOM     19  C   UNL     1      -5.251  15.190  70.890  0.00  0.00    +0.263 C 
ATOM     20  O   UNL     1      -4.574  16.144  71.376  0.00  0.00    -0.272 OA
BRANCH  19  21
ATOM     21  C   UNL     1      -5.114  13.808  71.419  0.00  0.00    +0.267 C 
ATOM     22  O   UNL     1      -5.697  13.636  72.659  0.00  0.00    -0.210 OA
ENDBRANCH  19  21
BRANCH  18  23
ATOM     23  C   UNL     1      -4.447  15.378  68.618  0.00  0.00    +0.134 C 
BRANCH  23  24
ATOM     24  C   UNL     1      -4.186  14.065  67.956  0.00  0.00    +0.204 C 
ATOM     25  O   UNL     1      -3.280  14.190  66.891  0.00  0.00    -0.218 OA
ENDBRANCH  23  24
ENDBRANCH  18  23
ENDBRANCH   4  18
BRANCH   7  26
ATOM     26  C   UNL     1     -10.293  16.026  68.727  0.00  0.00    +0.266 C 
ATOM     27  N   UNL     1     -10.949  16.152  69.972  0.00  0.00    -0.199 NA
ATOM     28  O   UNL     1     -11.039  15.819  67.722  0.00  0.00    -0.268 OA
BRANCH  27  29
ATOM     29  C   UNL     1     -12.321  15.745  70.189  0.00  0.00    +0.151 C 
BRANCH  29  30
ATOM     30  C   UNL     1     -12.117  14.756  71.522  0.00  0.00    +0.206 C 
ATOM     31  O   UNL     1     -13.640  14.582  71.679  0.00  0.00    -0.218 OA
BRANCH  30  32
ATOM     32  C   UNL     1     -12.119  16.076  72.551  0.00  0.00    +0.217 C 
ATOM     33  O   UNL     1     -13.154  15.744  73.426  0.00  0.00    -0.218 OA
ENDBRANCH  30  32
ENDBRANCH  29  30
ENDBRANCH  27  29
ENDBRANCH   7  26
TORSDOF 12
ENDMDL
MODEL 5
REMARK VINA RESULT:      -5.3      2.467      7.210
REMARK  Name = 
REMARK  12 active torsions:
REMARK  status: ('A' for Active; 'I' for Inactive)
REMARK    1  A    between atoms: C_2  and  C_9
REMARK    2  A    between atoms: N_3  and  C_4
REMARK    3  A    between atoms: C_4  and  C_5
REMARK    4  A    between atoms: C_5  and  C_7
REMARK    5  A    between atoms: C_12  and  C_13
REMARK    6  A    between atoms: N_15  and  C_16
REMARK    7  A    between atoms: C_16  and  C_17
REMARK    8  A    between atoms: C_17  and  C_19
REMARK    9  A    between atoms: C_23  and  N_24
REMARK   10  A    between atoms: N_24  and  C_25
REMARK   11  A    between atoms: C_25  and  C_26
REMARK   12  A    between atoms: C_28  and  C_30
REMARK                            x       y       z     vdW  Elec       q    Type
REMARK                         _______ _______ _______ _____ _____    ______ ____
ROOT
ATOM      1  C   UNL     1      -7.137  16.313  69.045  0.00  0.00    +0.067 A 
ATOM      2  C   UNL     1      -6.752  17.624  69.144  0.00  0.00    +0.049 A 
ATOM      3  I   UNL     1      -7.937  19.130  68.240  0.00  0.00    -0.041 I 
ATOM      4  C   UNL     1      -5.521  18.025  69.653  0.00  0.00    +0.065 A 
ATOM      5  C   UNL     1      -4.496  17.086  69.664  0.00  0.00    +0.049 A 
ATOM      6  I   UNL     1      -2.488  17.589  69.308  0.00  0.00    -0.041 I 
ATOM      7  C   UNL     1      -4.834  15.750  69.585  0.00  0.00    +0.067 A 
ATOM      8  C   UNL     1      -6.139  15.376  69.289  0.00  0.00    +0.040 A 
ATOM      9  I   UNL     1      -6.509  13.359  68.775  0.00  0.00    -0.042 I 
ENDROOT
BRANCH   1  11
ATOM     10  O   UNL     1      -9.254  15.892  68.812  0.00  0.00    -0.268 OA
ATOM     11  C   UNL     1      -8.322  15.873  68.305  0.00  0.00    +0.266 C 
ATOM     12  N   UNL     1      -8.390  15.647  66.928  0.00  0.00    -0.199 NA
BRANCH  12  13
ATOM     13  C   UNL     1      -9.542  16.160  66.231  0.00  0.00    +0.151 C 
BRANCH  13  14
ATOM     14  C   UNL     1     -10.188  14.839  65.436  0.00  0.00    +0.206 C 
ATOM     15  O   UNL     1     -11.181  14.545  66.577  0.00  0.00    -0.218 OA
BRANCH  14  16
ATOM     16  C   UNL     1     -11.302  15.793  64.629  0.00  0.00    +0.217 C 
ATOM     17  O   UNL     1     -10.786  17.080  64.821  0.00  0.00    -0.218 OA
ENDBRANCH  14  16
ENDBRANCH  13  14
ENDBRANCH  12  13
ENDBRANCH   1  11
BRANCH   4  18
ATOM     18  N   UNL     1      -5.172  19.406  69.815  0.00  0.00    -0.253 N 
ATOM     19  C   UNL     1      -5.310  20.070  71.079  0.00  0.00    +0.263 C 
ATOM     20  O   UNL     1      -6.498  20.392  71.379  0.00  0.00    -0.272 OA
BRANCH  19  21
ATOM     21  C   UNL     1      -4.155  20.853  71.587  0.00  0.00    +0.267 C 
ATOM     22  O   UNL     1      -3.415  20.182  72.541  0.00  0.00    -0.210 OA
ENDBRANCH  19  21
BRANCH  18  23
ATOM     23  C   UNL     1      -5.548  20.252  68.681  0.00  0.00    +0.134 C 
BRANCH  23  24
ATOM     24  C   UNL     1      -4.382  20.657  67.838  0.00  0.00    +0.204 C 
ATOM     25  O   UNL     1      -4.239  19.829  66.714  0.00  0.00    -0.218 OA
ENDBRANCH  23  24
ENDBRANCH  18  23
ENDBRANCH   4  18
BRANCH   7  26
ATOM     26  C   UNL     1      -3.928  14.790  70.200  0.00  0.00    +0.266 C 
ATOM     27  N   UNL     1      -4.087  14.276  71.506  0.00  0.00    -0.199 NA
ATOM     28  O   UNL     1      -3.185  14.116  69.423  0.00  0.00    -0.268 OA
BRANCH  27  29
ATOM     29  C   UNL     1      -3.223  13.260  72.069  0.00  0.00    +0.151 C 
BRANCH  29  30
ATOM     30  C   UNL     1      -4.233  12.649  73.253  0.00  0.00    +0.206 C 
ATOM     31  O   UNL     1      -5.255  12.182  72.198  0.00  0.00    -0.218 OA
BRANCH  30  32
ATOM     32  C   UNL     1      -5.006  14.124  73.410  0.00  0.00    +0.217 C 
ATOM     33  O   UNL     1      -6.086  13.786  74.228  0.00  0.00    -0.218 OA
ENDBRANCH  30  32
ENDBRANCH  29  30
ENDBRANCH  27  29
ENDBRANCH   7  26
TORSDOF 12
ENDMDL
MODEL 6
REMARK VINA RESULT:      -5.2      2.760      6.456
REMARK  Name = 
REMARK  12 active torsions:
REMARK  status: ('A' for Active; 'I' for Inactive)
REMARK    1  A    between atoms: C_2  and  C_9
REMARK    2  A    between atoms: N_3  and  C_4
REMARK    3  A    between atoms: C_4  and  C_5
REMARK    4  A    between atoms: C_5  and  C_7
REMARK    5  A    between atoms: C_12  and  C_13
REMARK    6  A    between atoms: N_15  and  C_16
REMARK    7  A    between atoms: C_16  and  C_17
REMARK    8  A    between atoms: C_17  and  C_19
REMARK    9  A    between atoms: C_23  and  N_24
REMARK   10  A    between atoms: N_24  and  C_25
REMARK   11  A    between atoms: C_25  and  C_26
REMARK   12  A    between atoms: C_28  and  C_30
REMARK                            x       y       z     vdW  Elec       q    Type
REMARK                         _______ _______ _______ _____ _____    ______ ____
ROOT
ATOM      1  C   UNL     1      -8.961  16.598  68.723  0.00  0.00    +0.067 A 
ATOM      2  C   UNL     1      -8.405  17.848  68.671  0.00  0.00    +0.049 A 
ATOM      3  I   UNL     1      -9.660  19.539  68.442  0.00  0.00    -0.041 I 
ATOM      4  C   UNL     1      -7.036  18.074  68.576  0.00  0.00    +0.065 A 
ATOM      5  C   UNL     1      -6.246  17.036  68.096  0.00  0.00    +0.049 A 
ATOM      6  I   UNL     1      -4.563  17.353  66.881  0.00  0.00    -0.041 I 
ATOM      7  C   UNL     1      -6.756  15.754  68.144  0.00  0.00    +0.067 A 
ATOM      8  C   UNL     1      -8.092  15.544  68.463  0.00  0.00    +0.040 A 
ATOM      9  I   UNL     1      -8.913  13.626  68.120  0.00  0.00    -0.042 I 
ENDROOT
BRANCH   1  11
ATOM     10  O   UNL     1     -10.748  15.971  67.661  0.00  0.00    -0.268 OA
ATOM     11  C   UNL     1     -10.399  16.347  68.589  0.00  0.00    +0.266 C 
ATOM     12  N   UNL     1     -11.328  16.335  69.632  0.00  0.00    -0.199 NA
BRANCH  12  13
ATOM     13  C   UNL     1     -12.295  15.267  69.643  0.00  0.00    +0.151 C 
BRANCH  13  14
ATOM     14  C   UNL     1     -12.374  14.773  71.237  0.00  0.00    +0.206 C 
ATOM     15  O   UNL     1     -12.019  16.176  71.767  0.00  0.00    -0.218 OA
BRANCH  14  16
ATOM     16  C   UNL     1     -14.016  15.089  71.318  0.00  0.00    +0.217 C 
ATOM     17  O   UNL     1     -14.102  15.930  72.434  0.00  0.00    -0.218 OA
ENDBRANCH  14  16
ENDBRANCH  13  14
ENDBRANCH  12  13
ENDBRANCH   1  11
BRANCH   4  18
ATOM     18  N   UNL     1      -6.474  19.393  68.598  0.00  0.00    -0.253 N 
ATOM     19  C   UNL     1      -5.987  19.980  69.813  0.00  0.00    +0.263 C 
ATOM     20  O   UNL     1      -6.890  20.411  70.589  0.00  0.00    -0.272 OA
BRANCH  19  21
ATOM     21  C   UNL     1      -4.633  20.592  69.801  0.00  0.00    +0.267 C 
ATOM     22  O   UNL     1      -4.469  21.578  70.753  0.00  0.00    -0.210 OA
ENDBRANCH  19  21
BRANCH  18  23
ATOM     23  C   UNL     1      -7.172  20.352  67.740  0.00  0.00    +0.134 C 
BRANCH  23  24
ATOM     24  C   UNL     1      -6.346  20.817  66.585  0.00  0.00    +0.204 C 
ATOM     25  O   UNL     1      -5.659  22.005  66.881  0.00  0.00    -0.218 OA
ENDBRANCH  23  24
ENDBRANCH  18  23
ENDBRANCH   4  18
BRANCH   7  26
ATOM     26  C   UNL     1      -5.805  14.656  68.256  0.00  0.00    +0.266 C 
ATOM     27  N   UNL     1      -5.324  14.147  69.483  0.00  0.00    -0.199 NA
ATOM     28  O   UNL     1      -5.681  13.893  67.250  0.00  0.00    -0.268 OA
BRANCH  27  29
ATOM     29  C   UNL     1      -4.443  13.002  69.576  0.00  0.00    +0.151 C 
BRANCH  29  30
ATOM     30  C   UNL     1      -4.376  12.827  71.238  0.00  0.00    +0.206 C 
ATOM     31  O   UNL     1      -5.865  13.194  71.379  0.00  0.00    -0.218 OA
BRANCH  30  32
ATOM     32  C   UNL     1      -3.919  14.426  71.427  0.00  0.00    +0.217 C 
ATOM     33  O   UNL     1      -3.748  14.503  72.810  0.00  0.00    -0.218 OA
ENDBRANCH  30  32
ENDBRANCH  29  30
ENDBRANCH  27  29
ENDBRANCH   7  26
TORSDOF 12
ENDMDL
MODEL 7
REMARK VINA RESULT:      -5.2      1.571      6.018
REMARK  Name = 
REMARK  12 active torsions:
REMARK  status: ('A' for Active; 'I' for Inactive)
REMARK    1  A    between atoms: C_2  and  C_9
REMARK    2  A    between atoms: N_3  and  C_4
REMARK    3  A    between atoms: C_4  and  C_5
REMARK    4  A    between atoms: C_5  and  C_7
REMARK    5  A    between atoms: C_12  and  C_13
REMARK    6  A    between atoms: N_15  and  C_16
REMARK    7  A    between atoms: C_16  and  C_17
REMARK    8  A    between atoms: C_17  and  C_19
REMARK    9  A    between atoms: C_23  and  N_24
REMARK   10  A    between atoms: N_24  and  C_25
REMARK   11  A    between atoms: C_25  and  C_26
REMARK   12  A    between atoms: C_28  and  C_30
REMARK                            x       y       z     vdW  Elec       q    Type
REMARK                         _______ _______ _______ _____ _____    ______ ____
ROOT
ATOM      1  C   UNL     1      -7.406  18.064  68.753  0.00  0.00    +0.067 A 
ATOM      2  C   UNL     1      -6.386  17.233  69.132  0.00  0.00    +0.049 A 
ATOM      3  I   UNL     1      -4.408  17.985  69.226  0.00  0.00    -0.041 I 
ATOM      4  C   UNL     1      -6.535  15.859  69.289  0.00  0.00    +0.065 A 
ATOM      5  C   UNL     1      -7.607  15.252  68.645  0.00  0.00    +0.049 A 
ATOM      6  I   UNL     1      -7.492  13.330  67.807  0.00  0.00    -0.041 I 
ATOM      7  C   UNL     1      -8.669  16.045  68.260  0.00  0.00    +0.067 A 
ATOM      8  C   UNL     1      -8.567  17.429  68.324  0.00  0.00    +0.040 A 
ATOM      9  I   UNL     1     -10.041  18.588  67.345  0.00  0.00    -0.042 I 
ENDROOT
BRANCH   1  11
ATOM     10  O   UNL     1      -7.111  20.180  69.138  0.00  0.00    -0.268 OA
ATOM     11  C   UNL     1      -7.207  19.462  68.363  0.00  0.00    +0.266 C 
ATOM     12  N   UNL     1      -6.901  19.918  67.078  0.00  0.00    -0.199 NA
BRANCH  12  13
ATOM     13  C   UNL     1      -5.876  20.923  66.961  0.00  0.00    +0.151 C 
BRANCH  13  14
ATOM     14  C   UNL     1      -5.312  20.784  65.395  0.00  0.00    +0.206 C 
ATOM     15  O   UNL     1      -4.240  19.751  65.794  0.00  0.00    -0.218 OA
BRANCH  14  16
ATOM     16  C   UNL     1      -6.423  19.585  65.035  0.00  0.00    +0.217 C 
ATOM     17  O   UNL     1      -6.043  19.205  63.742  0.00  0.00    -0.218 OA
ENDBRANCH  14  16
ENDBRANCH  13  14
ENDBRANCH  12  13
ENDBRANCH   1  11
BRANCH   4  18
ATOM     18  N   UNL     1      -5.471  15.022  69.759  0.00  0.00    -0.253 N 
ATOM     19  C   UNL     1      -5.309  14.726  71.154  0.00  0.00    +0.263 C 
ATOM     20  O   UNL     1      -4.800  15.663  71.837  0.00  0.00    -0.272 OA
BRANCH  19  21
ATOM     21  C   UNL     1      -5.130  13.306  71.552  0.00  0.00    +0.267 C 
ATOM     22  O   UNL     1      -5.336  13.084  72.899  0.00  0.00    -0.210 OA
ENDBRANCH  19  21
BRANCH  18  23
ATOM     23  C   UNL     1      -4.197  15.234  69.070  0.00  0.00    +0.134 C 
BRANCH  23  24
ATOM     24  C   UNL     1      -3.798  14.083  68.204  0.00  0.00    +0.204 C 
ATOM     25  O   UNL     1      -3.289  14.513  66.969  0.00  0.00    -0.218 OA
ENDBRANCH  23  24
ENDBRANCH  18  23
ENDBRANCH   4  18
BRANCH   7  26
ATOM     26  C   UNL     1      -9.983  15.420  68.182  0.00  0.00    +0.266 C 
ATOM     27  N   UNL     1     -10.557  14.930  66.988  0.00  0.00    -0.199 NA
ATOM     28  O   UNL     1     -10.474  14.970  69.262  0.00  0.00    -0.268 OA
BRANCH  27  29
ATOM     29  C   UNL     1     -11.828  14.239  66.946  0.00  0.00    +0.151 C 
BRANCH  29  30
ATOM     30  C   UNL     1     -11.993  14.046  65.293  0.00  0.00    +0.206 C 
ATOM     31  O   UNL     1     -13.529  14.009  65.408  0.00  0.00    -0.218 OA
BRANCH  30  32
ATOM     32  C   UNL     1     -11.899  12.381  65.438  0.00  0.00    +0.217 C 
ATOM     33  O   UNL     1     -12.137  12.208  66.803  0.00  0.00    -0.218 OA
ENDBRANCH  30  32
ENDBRANCH  29  30
ENDBRANCH  27  29
ENDBRANCH   7  26
TORSDOF 12
ENDMDL
MODEL 8
REMARK VINA RESULT:      -5.1      4.194      6.560
REMARK  Name = 
REMARK  12 active torsions:
REMARK  status: ('A' for Active; 'I' for Inactive)
REMARK    1  A    between atoms: C_2  and  C_9
REMARK    2  A    between atoms: N_3  and  C_4
REMARK    3  A    between atoms: C_4  and  C_5
REMARK    4  A    between atoms: C_5  and  C_7
REMARK    5  A    between atoms: C_12  and  C_13
REMARK    6  A    between atoms: N_15  and  C_16
REMARK    7  A    between atoms: C_16  and  C_17
REMARK    8  A    between atoms: C_17  and  C_19
REMARK    9  A    between atoms: C_23  and  N_24
REMARK   10  A    between atoms: N_24  and  C_25
REMARK   11  A    between atoms: C_25  and  C_26
REMARK   12  A    between atoms: C_28  and  C_30
REMARK                            x       y       z     vdW  Elec       q    Type
REMARK                         _______ _______ _______ _____ _____    ______ ____
ROOT
ATOM      1  C   UNL     1      -7.208  13.074  67.864  0.00  0.00    +0.067 A 
ATOM      2  C   UNL     1      -8.288  13.828  67.486  0.00  0.00    +0.049 A 
ATOM      3  I   UNL     1      -8.051  15.911  67.189  0.00  0.00    -0.041 I 
ATOM      4  C   UNL     1      -9.590  13.341  67.459  0.00  0.00    +0.065 A 
ATOM      5  C   UNL     1      -9.871  12.217  68.227  0.00  0.00    +0.049 A 
ATOM      6  I   UNL     1     -11.703  11.943  69.216  0.00  0.00    -0.041 I 
ATOM      7  C   UNL     1      -8.818  11.414  68.617  0.00  0.00    +0.067 A 
ATOM      8  C   UNL     1      -7.509  11.838  68.428  0.00  0.00    +0.040 A 
ATOM      9  I   UNL     1      -5.962  10.778  69.405  0.00  0.00    -0.042 I 
ENDROOT
BRANCH   1  11
ATOM     10  O   UNL     1      -5.209  13.704  67.299  0.00  0.00    -0.268 OA
ATOM     11  C   UNL     1      -5.879  13.636  68.118  0.00  0.00    +0.266 C 
ATOM     12  N   UNL     1      -5.481  14.305  69.279  0.00  0.00    -0.199 NA
BRANCH  12  13
ATOM     13  C   UNL     1      -4.715  15.513  69.114  0.00  0.00    +0.151 C 
BRANCH  13  14
ATOM     14  C   UNL     1      -5.380  16.597  70.199  0.00  0.00    +0.206 C 
ATOM     15  O   UNL     1      -4.585  16.013  71.382  0.00  0.00    -0.218 OA
BRANCH  14  16
ATOM     16  C   UNL     1      -4.195  17.736  69.883  0.00  0.00    +0.217 C 
ATOM     17  O   UNL     1      -4.317  18.603  70.976  0.00  0.00    -0.218 OA
ENDBRANCH  14  16
ENDBRANCH  13  14
ENDBRANCH  12  13
ENDBRANCH   1  11
BRANCH   4  18
ATOM     18  N   UNL     1     -10.692  14.128  66.988  0.00  0.00    -0.253 N 
ATOM     19  C   UNL     1     -11.168  14.020  65.639  0.00  0.00    +0.263 C 
ATOM     20  O   UNL     1     -10.451  14.609  64.777  0.00  0.00    -0.272 OA
BRANCH  19  21
ATOM     21  C   UNL     1     -12.627  13.840  65.424  0.00  0.00    +0.267 C 
ATOM     22  O   UNL     1     -12.932  12.782  64.590  0.00  0.00    -0.210 OA
ENDBRANCH  19  21
BRANCH  18  23
ATOM     23  C   UNL     1     -10.697  15.504  67.487  0.00  0.00    +0.134 C 
BRANCH  23  24
ATOM     24  C   UNL     1     -11.642  15.714  68.625  0.00  0.00    +0.204 C 
ATOM     25  O   UNL     1     -10.972  15.754  69.857  0.00  0.00    -0.218 OA
ENDBRANCH  23  24
ENDBRANCH  18  23
ENDBRANCH   4  18
BRANCH   7  26
ATOM     26  C   UNL     1      -9.095  10.002  68.841  0.00  0.00    +0.266 C 
ATOM     27  N   UNL     1      -9.393   9.443  70.104  0.00  0.00    -0.199 NA
ATOM     28  O   UNL     1      -9.441   9.313  67.832  0.00  0.00    -0.268 OA
BRANCH  27  29
ATOM     29  C   UNL     1      -9.746   8.053  70.292  0.00  0.00    +0.151 C 
BRANCH  29  30
ATOM     30  C   UNL     1     -11.359   8.220  70.699  0.00  0.00    +0.206 C 
ATOM     31  O   UNL     1     -11.019   9.248  71.796  0.00  0.00    -0.218 OA
BRANCH  30  32
ATOM     32  C   UNL     1     -11.256   6.956  71.791  0.00  0.00    +0.217 C 
ATOM     33  O   UNL     1     -11.051   7.642  72.990  0.00  0.00    -0.218 OA
ENDBRANCH  30  32
ENDBRANCH  29  30
ENDBRANCH  27  29
ENDBRANCH   7  26
TORSDOF 12
ENDMDL
MODEL 9
REMARK VINA RESULT:      -5.0      3.713      7.531
REMARK  Name = 
REMARK  12 active torsions:
REMARK  status: ('A' for Active; 'I' for Inactive)
REMARK    1  A    between atoms: C_2  and  C_9
REMARK    2  A    between atoms: N_3  and  C_4
REMARK    3  A    between atoms: C_4  and  C_5
REMARK    4  A    between atoms: C_5  and  C_7
REMARK    5  A    between atoms: C_12  and  C_13
REMARK    6  A    between atoms: N_15  and  C_16
REMARK    7  A    between atoms: C_16  and  C_17
REMARK    8  A    between atoms: C_17  and  C_19
REMARK    9  A    between atoms: C_23  and  N_24
REMARK   10  A    between atoms: N_24  and  C_25
REMARK   11  A    between atoms: C_25  and  C_26
REMARK   12  A    between atoms: C_28  and  C_30
REMARK                            x       y       z     vdW  Elec       q    Type
REMARK                         _______ _______ _______ _____ _____    ______ ____
ROOT
ATOM      1  C   UNL     1      -9.986  14.791  67.960  0.00  0.00    +0.067 A 
ATOM      2  C   UNL     1      -9.449  13.531  67.913  0.00  0.00    +0.049 A 
ATOM      3  I   UNL     1     -10.601  11.882  68.574  0.00  0.00    -0.041 I 
ATOM      4  C   UNL     1      -8.112  13.279  67.626  0.00  0.00    +0.065 A 
ATOM      5  C   UNL     1      -7.209  14.321  67.809  0.00  0.00    +0.049 A 
ATOM      6  I   UNL     1      -5.252  14.021  68.509  0.00  0.00    -0.041 I 
ATOM      7  C   UNL     1      -7.700  15.610  67.844  0.00  0.00    +0.067 A 
ATOM      8  C   UNL     1      -9.069  15.835  67.909  0.00  0.00    +0.040 A 
ATOM      9  I   UNL     1      -9.742  17.785  68.375  0.00  0.00    -0.042 I 
ENDROOT
BRANCH   1  11
ATOM     10  O   UNL     1     -12.153  14.873  67.856  0.00  0.00    -0.268 OA
ATOM     11  C   UNL     1     -11.323  15.079  68.484  0.00  0.00    +0.266 C 
ATOM     12  N   UNL     1     -11.634  15.386  69.811  0.00  0.00    -0.199 NA
BRANCH  12  13
ATOM     13  C   UNL     1     -12.787  14.740  70.385  0.00  0.00    +0.151 C 
BRANCH  13  14
ATOM     14  C   UNL     1     -13.124  15.610  71.771  0.00  0.00    +0.206 C 
ATOM     15  O   UNL     1     -14.645  15.546  71.530  0.00  0.00    -0.218 OA
BRANCH  14  16
ATOM     16  C   UNL     1     -13.151  14.224  72.709  0.00  0.00    +0.217 C 
ATOM     17  O   UNL     1     -14.412  13.690  72.414  0.00  0.00    -0.218 OA
ENDBRANCH  14  16
ENDBRANCH  13  14
ENDBRANCH  12  13
ENDBRANCH   1  11
BRANCH   4  18
ATOM     18  N   UNL     1      -7.591  11.949  67.510  0.00  0.00    -0.253 N 
ATOM     19  C   UNL     1      -7.570  11.258  66.253  0.00  0.00    +0.263 C 
ATOM     20  O   UNL     1      -8.690  10.793  65.888  0.00  0.00    -0.272 OA
BRANCH  19  21
ATOM     21  C   UNL     1      -6.300  10.615  65.829  0.00  0.00    +0.267 C 
ATOM     22  O   UNL     1      -5.219  11.475  65.842  0.00  0.00    -0.210 OA
ENDBRANCH  19  21
BRANCH  18  23
ATOM     23  C   UNL     1      -7.932  11.076  68.636  0.00  0.00    +0.134 C 
BRANCH  23  24
ATOM     24  C   UNL     1      -6.735  10.459  69.284  0.00  0.00    +0.204 C 
ATOM     25  O   UNL     1      -6.477  11.023  70.543  0.00  0.00    -0.218 OA
ENDBRANCH  23  24
ENDBRANCH  18  23
ENDBRANCH   4  18
BRANCH   7  26
ATOM     26  C   UNL     1      -6.811  16.680  67.412  0.00  0.00    +0.266 C 
ATOM     27  N   UNL     1      -6.810  17.232  66.111  0.00  0.00    -0.199 NA
ATOM     28  O   UNL     1      -6.275  17.389  68.318  0.00  0.00    -0.268 OA
BRANCH  27  29
ATOM     29  C   UNL     1      -5.976  18.350  65.725  0.00  0.00    +0.151 C 
BRANCH  29  30
ATOM     30  C   UNL     1      -7.125  19.566  65.694  0.00  0.00    +0.206 C 
ATOM     31  O   UNL     1      -6.707  19.982  64.271  0.00  0.00    -0.218 OA
BRANCH  30  32
ATOM     32  C   UNL     1      -6.050  20.652  66.374  0.00  0.00    +0.217 C 
ATOM     33  O   UNL     1      -6.886  21.371  67.230  0.00  0.00    -0.218 OA
ENDBRANCH  30  32
ENDBRANCH  29  30
ENDBRANCH  27  29
ENDBRANCH   7  26
TORSDOF 12
ENDMDL
