MODEL 1
REMARK VINA RESULT:      -7.0      0.000      0.000
REMARK  Name = 
REMARK  7 active torsions:
REMARK  status: ('A' for Active; 'I' for Inactive)
REMARK    1  A    between atoms: C_2  and  C_4
REMARK    2  A    between atoms: C_4  and  C_5
REMARK    3  A    between atoms: C_4  and  C_11
REMARK    4  A    between atoms: C_4  and  C_17
REMARK    5  A    between atoms: N_20  and  C_21
REMARK    6  A    between atoms: C_21  and  C_22
REMARK    7  A    between atoms: C_22  and  C_23
REMARK                            x       y       z     vdW  Elec       q    Type
REMARK                         _______ _______ _______ _____ _____    ______ ____
ROOT
ATOM      1  C   UNL     1      -9.743  16.661  67.562  0.00  0.00    +0.111 C 
ENDROOT
BRANCH   1   2
ATOM      2  C   UNL     1     -10.733  16.117  68.494  0.00  0.00    -0.011 A 
ATOM      3  C   UNL     1     -10.932  16.583  69.779  0.00  0.00    -0.004 A 
ATOM      4  C   UNL     1     -11.807  15.903  70.617  0.00  0.00    -0.000 A 
ATOM      5  C   UNL     1     -12.120  14.569  70.385  0.00  0.00    -0.000 A 
ATOM      6  C   UNL     1     -11.941  14.107  69.088  0.00  0.00    -0.000 A 
ATOM      7  C   UNL     1     -11.322  14.928  68.154  0.00  0.00    -0.004 A 
ENDBRANCH   1   2
BRANCH   1   8
ATOM      8  C   UNL     1      -8.452  15.951  67.799  0.00  0.00    -0.011 A 
ATOM      9  C   UNL     1      -8.014  14.859  67.105  0.00  0.00    -0.004 A 
ATOM     10  C   UNL     1      -6.939  14.131  67.603  0.00  0.00    -0.000 A 
ATOM     11  C   UNL     1      -6.320  14.458  68.797  0.00  0.00    -0.000 A 
ATOM     12  C   UNL     1      -6.547  15.740  69.276  0.00  0.00    -0.000 A 
ATOM     13  C   UNL     1      -7.718  16.354  68.910  0.00  0.00    -0.004 A 
ENDBRANCH   1   8
BRANCH   1  14
ATOM     14  C   UNL     1      -9.366  18.137  68.154  0.00  0.00    +0.033 C 
ATOM     15  C   UNL     1      -8.311  18.477  66.956  0.00  0.00    +0.073 C 
ATOM     16  N   UNL     1      -8.523  19.891  66.789  0.00  0.00    -0.272 NA
ATOM     17  C   UNL     1      -9.877  20.189  67.150  0.00  0.00    +0.072 C 
ATOM     18  C   UNL     1     -10.578  18.850  67.327  0.00  0.00    +0.020 C 
BRANCH  16  19
ATOM     19  C   UNL     1      -7.541  20.518  67.659  0.00  0.00    +0.077 C 
BRANCH  19  20
ATOM     20  C   UNL     1      -6.300  19.637  67.569  0.00  0.00    +0.044 C 
BRANCH  20  21
ATOM     21  C   UNL     1      -5.647  19.716  68.908  0.00  0.00    -0.021 A 
ATOM     22  C   UNL     1      -4.288  19.514  69.071  0.00  0.00    -0.005 A 
ATOM     23  C   UNL     1      -3.693  20.187  70.133  0.00  0.00    +0.015 A 
ATOM     24  C   UNL     1      -2.255  20.067  70.535  0.00  0.00    +0.077 C 
ATOM     25  C   UNL     1      -2.302  20.723  71.910  0.00  0.00    +0.210 C 
ATOM     26  O   UNL     1      -3.541  20.211  72.395  0.00  0.00    -0.475 OA
ATOM     27  C   UNL     1      -4.415  20.339  71.311  0.00  0.00    +0.135 A 
ATOM     28  C   UNL     1      -5.778  20.075  71.253  0.00  0.00    +0.036 A 
ATOM     29  C   UNL     1      -6.397  19.741  70.072  0.00  0.00    -0.001 A 
ENDBRANCH  20  21
ENDBRANCH  19  20
ENDBRANCH  16  19
ENDBRANCH   1  14
BRANCH   1  31
ATOM     30  N   UNL     1     -10.397  16.810  66.135  0.00  0.00    -0.087 NA
ATOM     31  C   UNL     1     -10.106  16.779  66.185  0.00  0.00    +0.267 C 
ATOM     32  O   UNL     1      -9.964  16.146  65.143  0.00  0.00    -0.271 OA
ENDBRANCH   1  31
TORSDOF 7
ENDMDL
MODEL 2
REMARK VINA RESULT:      -6.8      2.862      5.001
REMARK  Name = 
REMARK  7 active torsions:
REMARK  status: ('A' for Active; 'I' for Inactive)
REMARK    1  A    between atoms: C_2  and  C_4
REMARK    2  A    between atoms: C_4  and  C_5
REMARK    3  A    between atoms: C_4  and  C_11
REMARK    4  A    between atoms: C_4  and  C_17
REMARK    5  A    between atoms: N_20  and  C_21
REMARK    6  A    between atoms: C_21  and  C_22
REMARK    7  A    between atoms: C_22  and  C_23
REMARK                            x       y       z     vdW  Elec       q    Type
REMARK                         _______ _______ _______ _____ _____    ______ ____
ROOT
ATOM      1  C   UNL     1     -10.503  13.117  67.073  0.00  0.00    +0.111 C 
ENDROOT
BRANCH   1   2
ATOM      2  C   UNL     1     -11.011  12.429  65.884  0.00  0.00    -0.011 A 
ATOM      3  C   UNL     1     -10.224  11.718  65.000  0.00  0.00    -0.004 A 
ATOM      4  C   UNL     1     -10.796  11.220  63.836  0.00  0.00    -0.000 A 
ATOM      5  C   UNL     1     -11.959  11.780  63.320  0.00  0.00    -0.000 A 
ATOM      6  C   UNL     1     -12.760  12.477  64.215  0.00  0.00    -0.000 A 
ATOM      7  C   UNL     1     -12.295  12.713  65.502  0.00  0.00    -0.004 A 
ENDBRANCH   1   2
BRANCH   1   8
ATOM      8  C   UNL     1     -11.286  12.638  68.250  0.00  0.00    -0.011 A 
ATOM      9  C   UNL     1     -11.803  13.436  69.230  0.00  0.00    -0.004 A 
ATOM     10  C   UNL     1     -12.264  12.848  70.404  0.00  0.00    -0.000 A 
ATOM     11  C   UNL     1     -12.183  11.485  70.624  0.00  0.00    -0.000 A 
ATOM     12  C   UNL     1     -11.993  10.691  69.502  0.00  0.00    -0.000 A 
ATOM     13  C   UNL     1     -11.359  11.259  68.426  0.00  0.00    -0.004 A 
ENDBRANCH   1   8
BRANCH   1  14
ATOM     14  C   UNL     1     -11.074  14.645  66.959  0.00  0.00    +0.033 C 
ATOM     15  C   UNL     1      -9.865  15.288  67.848  0.00  0.00    +0.073 C 
ATOM     16  N   UNL     1      -9.681  16.556  67.194  0.00  0.00    -0.272 NA
ATOM     17  C   UNL     1     -10.046  16.411  65.816  0.00  0.00    +0.072 C 
ATOM     18  C   UNL     1     -10.244  14.920  65.582  0.00  0.00    +0.020 C 
BRANCH  16  19
ATOM     19  C   UNL     1     -10.538  17.477  67.925  0.00  0.00    +0.077 C 
BRANCH  19  20
ATOM     20  C   UNL     1     -10.485  18.785  67.142  0.00  0.00    +0.044 C 
BRANCH  20  21
ATOM     21  C   UNL     1      -9.097  19.304  67.308  0.00  0.00    -0.021 A 
ATOM     22  C   UNL     1      -8.575  19.609  68.553  0.00  0.00    -0.005 A 
ATOM     23  C   UNL     1      -7.197  19.471  68.689  0.00  0.00    +0.015 A 
ATOM     24  C   UNL     1      -6.413  19.805  69.920  0.00  0.00    +0.077 C 
ATOM     25  C   UNL     1      -4.999  19.789  69.352  0.00  0.00    +0.210 C 
ATOM     26  O   UNL     1      -5.223  20.409  68.088  0.00  0.00    -0.475 OA
ATOM     27  C   UNL     1      -6.387  19.801  67.609  0.00  0.00    +0.135 A 
ATOM     28  C   UNL     1      -7.012  19.962  66.378  0.00  0.00    +0.036 A 
ATOM     29  C   UNL     1      -8.360  19.742  66.221  0.00  0.00    -0.001 A 
ENDBRANCH  20  21
ENDBRANCH  19  20
ENDBRANCH  16  19
ENDBRANCH   1  14
BRANCH   1  31
ATOM     30  N   UNL     1      -8.928  13.041  67.057  0.00  0.00    -0.087 NA
ATOM     31  C   UNL     1      -9.089  13.151  67.281  0.00  0.00    +0.267 C 
ATOM     32  O   UNL     1      -8.275  12.752  68.108  0.00  0.00    -0.271 OA
ENDBRANCH   1  31
TORSDOF 7
ENDMDL
MODEL 3
REMARK VINA RESULT:      -6.8      4.213      8.463
REMARK  Name = 
REMARK  7 active torsions:
REMARK  status: ('A' for Active; 'I' for Inactive)
REMARK    1  A    between atoms: C_2  and  C_4
REMARK    2  A    between atoms: C_4  and  C_5
REMARK    3  A    between atoms: C_4  and  C_11
REMARK    4  A    between atoms: C_4  and  C_17
REMARK    5  A    between atoms: N_20  and  C_21
REMARK    6  A    between atoms: C_21  and  C_22
REMARK    7  A    between atoms: C_22  and  C_23
REMARK                            x       y       z     vdW  Elec       q    Type
REMARK                         _______ _______ _______ _____ _____    ______ ____
ROOT
ATOM      1  C   UNL     1     -10.617  14.453  68.093  0.00  0.00    +0.111 C 
ENDROOT
BRANCH   1   2
ATOM      2  C   UNL     1      -9.201  14.434  68.465  0.00  0.00    -0.011 A 
ATOM      3  C   UNL     1      -8.625  15.292  69.381  0.00  0.00    -0.004 A 
ATOM      4  C   UNL     1      -7.247  15.269  69.555  0.00  0.00    -0.000 A 
ATOM      5  C   UNL     1      -6.413  14.774  68.559  0.00  0.00    -0.000 A 
ATOM      6  C   UNL     1      -6.988  13.894  67.651  0.00  0.00    -0.000 A 
ATOM      7  C   UNL     1      -8.362  13.687  67.682  0.00  0.00    -0.004 A 
ENDBRANCH   1   2
BRANCH   1   8
ATOM      8  C   UNL     1     -11.318  13.412  68.900  0.00  0.00    -0.011 A 
ATOM      9  C   UNL     1     -12.023  13.646  70.046  0.00  0.00    -0.004 A 
ATOM     10  C   UNL     1     -12.386  12.567  70.846  0.00  0.00    -0.000 A 
ATOM     11  C   UNL     1     -12.025  11.268  70.535  0.00  0.00    -0.000 A 
ATOM     12  C   UNL     1     -11.636  11.035  69.224  0.00  0.00    -0.000 A 
ATOM     13  C   UNL     1     -11.103  12.089  68.526  0.00  0.00    -0.004 A 
ENDBRANCH   1   8
BRANCH   1  14
ATOM     14  C   UNL     1     -10.680  13.753  66.616  0.00  0.00    +0.033 C 
ATOM     15  C   UNL     1     -12.310  13.661  66.600  0.00  0.00    +0.073 C 
ATOM     16  N   UNL     1     -12.589  13.896  65.208  0.00  0.00    -0.272 NA
ATOM     17  C   UNL     1     -11.551  14.726  64.673  0.00  0.00    +0.072 C 
ATOM     18  C   UNL     1     -10.726  15.199  65.862  0.00  0.00    +0.020 C 
BRANCH  16  19
ATOM     19  C   UNL     1     -12.635  12.571  64.610  0.00  0.00    +0.077 C 
BRANCH  19  20
ATOM     20  C   UNL     1     -11.653  12.619  63.444  0.00  0.00    +0.044 C 
BRANCH  20  21
ATOM     21  C   UNL     1     -10.624  11.579  63.735  0.00  0.00    -0.021 A 
ATOM     22  C   UNL     1     -10.422  11.089  65.012  0.00  0.00    -0.005 A 
ATOM     23  C   UNL     1      -9.957   9.781  65.099  0.00  0.00    +0.015 A 
ATOM     24  C   UNL     1      -9.609   9.070  66.370  0.00  0.00    +0.077 C 
ATOM     25  C   UNL     1      -8.856   7.869  65.811  0.00  0.00    +0.210 C 
ATOM     26  O   UNL     1      -8.123   8.493  64.760  0.00  0.00    -0.475 OA
ATOM     27  C   UNL     1      -9.054   9.333  64.142  0.00  0.00    +0.135 A 
ATOM     28  C   UNL     1      -8.903  10.114  63.003  0.00  0.00    +0.036 A 
ATOM     29  C   UNL     1      -9.658  11.245  62.800  0.00  0.00    -0.001 A 
ENDBRANCH  20  21
ENDBRANCH  19  20
ENDBRANCH  16  19
ENDBRANCH   1  14
BRANCH   1  31
ATOM     30  N   UNL     1     -11.111  15.947  67.993  0.00  0.00    -0.087 NA
ATOM     31  C   UNL     1     -11.288  15.714  68.050  0.00  0.00    +0.267 C 
ATOM     32  O   UNL     1     -12.006  16.395  68.776  0.00  0.00    -0.271 OA
ENDBRANCH   1  31
TORSDOF 7
ENDMDL
MODEL 4
REMARK VINA RESULT:      -6.8      3.337      8.045
REMARK  Name = 
REMARK  7 active torsions:
REMARK  status: ('A' for Active; 'I' for Inactive)
REMARK    1  A    between atoms: C_2  and  C_4
REMARK    2  A    between atoms: C_4  and  C_5
REMARK    3  A    between atoms: C_4  and  C_11
REMARK    4  A    between atoms: C_4  and  C_17
REMARK    5  A    between atoms: N_20  and  C_21
REMARK    6  A    between atoms: C_21  and  C_22
REMARK    7  A    between atoms: C_22  and  C_23
REMARK                            x       y       z     vdW  Elec       q    Type
REMARK                         _______ _______ _______ _____ _____    ______ ____
ROOT
ATOM      1  C   UNL     1     -10.090  15.936  68.279  0.00  0.00    +0.111 C 
ENDROOT
BRANCH   1   2
ATOM      2  C   UNL     1      -8.720  16.004  68.791  0.00  0.00    -0.011 A 
ATOM      3  C   UNL     1      -7.924  17.131  68.739  0.00  0.00    -0.004 A 
ATOM      4  C   UNL     1      -6.596  17.040  69.135  0.00  0.00    -0.000 A 
ATOM      5  C   UNL     1      -5.938  15.816  69.139  0.00  0.00    -0.000 A 
ATOM      6  C   UNL     1      -6.739  14.683  69.214  0.00  0.00    -0.000 A 
ATOM      7  C   UNL     1      -8.118  14.818  69.118  0.00  0.00    -0.004 A 
ENDBRANCH   1   2
BRANCH   1   8
ATOM      8  C   UNL     1     -10.985  15.558  69.412  0.00  0.00    -0.011 A 
ATOM      9  C   UNL     1     -11.282  16.354  70.482  0.00  0.00    -0.004 A 
ATOM     10  C   UNL     1     -11.896  15.787  71.594  0.00  0.00    -0.000 A 
ATOM     11  C   UNL     1     -12.183  14.436  71.665  0.00  0.00    -0.000 A 
ATOM     12  C   UNL     1     -12.198  13.746  70.462  0.00  0.00    -0.000 A 
ATOM     13  C   UNL     1     -11.425  14.238  69.441  0.00  0.00    -0.004 A 
ENDBRANCH   1   8
BRANCH   1  14
ATOM     14  C   UNL     1     -10.150  14.557  67.402  0.00  0.00    +0.033 C 
ATOM     15  C   UNL     1     -11.657  14.840  66.842  0.00  0.00    +0.073 C 
ATOM     16  N   UNL     1     -11.567  14.299  65.512  0.00  0.00    -0.272 NA
ATOM     17  C   UNL     1     -10.211  14.420  65.065  0.00  0.00    +0.072 C 
ATOM     18  C   UNL     1      -9.498  15.285  66.096  0.00  0.00    +0.020 C 
BRANCH  16  19
ATOM     19  C   UNL     1     -12.011  12.920  65.642  0.00  0.00    +0.077 C 
BRANCH  19  20
ATOM     20  C   UNL     1     -10.911  12.079  65.002  0.00  0.00    +0.044 C 
BRANCH  20  21
ATOM     21  C   UNL     1     -10.597  11.003  65.987  0.00  0.00    -0.021 A 
ATOM     22  C   UNL     1     -10.570  11.246  67.348  0.00  0.00    -0.005 A 
ATOM     23  C   UNL     1     -10.891  10.168  68.167  0.00  0.00    +0.015 A 
ATOM     24  C   UNL     1     -10.865  10.182  69.665  0.00  0.00    +0.077 C 
ATOM     25  C   UNL     1     -10.952   8.688  69.952  0.00  0.00    +0.210 C 
ATOM     26  O   UNL     1     -10.106   8.180  68.923  0.00  0.00    -0.475 OA
ATOM     27  C   UNL     1     -10.482   8.897  67.783  0.00  0.00    +0.135 A 
ATOM     28  C   UNL     1     -10.042   8.746  66.473  0.00  0.00    +0.036 A 
ATOM     29  C   UNL     1     -10.071   9.789  65.579  0.00  0.00    -0.001 A 
ENDBRANCH  20  21
ENDBRANCH  19  20
ENDBRANCH  16  19
ENDBRANCH   1  14
BRANCH   1  31
ATOM     30  N   UNL     1     -10.367  17.146  67.308  0.00  0.00    -0.087 NA
ATOM     31  C   UNL     1     -10.571  17.024  67.488  0.00  0.00    +0.267 C 
ATOM     32  O   UNL     1     -11.120  18.108  67.659  0.00  0.00    -0.271 OA
ENDBRANCH   1  31
TORSDOF 7
ENDMDL
MODEL 5
REMARK VINA RESULT:      -6.6      2.294      7.065
REMARK  Name = 
REMARK  7 active torsions:
REMARK  status: ('A' for Active; 'I' for Inactive)
REMARK    1  A    between atoms: C_2  and  C_4
REMARK    2  A    between atoms: C_4  and  C_5
REMARK    3  A    between atoms: C_4  and  C_11
REMARK    4  A    between atoms: C_4  and  C_17
REMARK    5  A    between atoms: N_20  and  C_21
REMARK    6  A    between atoms: C_21  and  C_22
REMARK    7  A    between atoms: C_22  and  C_23
REMARK                            x       y       z     vdW  Elec       q    Type
REMARK                         _______ _______ _______ _____ _____    ______ ____
ROOT
ATOM      1  C   UNL     1      -6.744  17.742  67.611  0.00  0.00    +0.111 C 
ENDROOT
BRANCH   1   2
ATOM      2  C   UNL     1      -6.032  18.532  68.618  0.00  0.00    -0.011 A 
ATOM      3  C   UNL     1      -5.717  18.080  69.884  0.00  0.00    -0.004 A 
ATOM      4  C   UNL     1      -5.158  18.963  70.798  0.00  0.00    -0.000 A 
ATOM      5  C   UNL     1      -5.325  20.335  70.654  0.00  0.00    -0.000 A 
ATOM      6  C   UNL     1      -5.620  20.792  69.375  0.00  0.00    -0.000 A 
ATOM      7  C   UNL     1      -5.887  19.871  68.370  0.00  0.00    -0.004 A 
ENDBRANCH   1   2
BRANCH   1   8
ATOM      8  C   UNL     1      -8.113  18.317  67.461  0.00  0.00    -0.011 A 
ATOM      9  C   UNL     1      -8.596  18.916  66.332  0.00  0.00    -0.004 A 
ATOM     10  C   UNL     1      -9.774  19.651  66.412  0.00  0.00    -0.000 A 
ATOM     11  C   UNL     1     -10.453  19.824  67.605  0.00  0.00    -0.000 A 
ATOM     12  C   UNL     1     -10.143  18.934  68.623  0.00  0.00    -0.000 A 
ATOM     13  C   UNL     1      -8.892  18.371  68.612  0.00  0.00    -0.004 A 
ENDBRANCH   1   8
BRANCH   1  14
ATOM     14  C   UNL     1      -7.111  16.333  68.355  0.00  0.00    +0.033 C 
ATOM     15  C   UNL     1      -8.116  15.833  67.170  0.00  0.00    +0.073 C 
ATOM     16  N   UNL     1      -7.868  14.416  67.173  0.00  0.00    -0.272 NA
ATOM     17  C   UNL     1      -6.521  14.194  67.609  0.00  0.00    +0.072 C 
ATOM     18  C   UNL     1      -5.855  15.562  67.654  0.00  0.00    +0.020 C 
BRANCH  16  19
ATOM     19  C   UNL     1      -8.866  13.867  68.077  0.00  0.00    +0.077 C 
BRANCH  19  20
ATOM     20  C   UNL     1     -10.053  14.821  67.996  0.00  0.00    +0.044 C 
BRANCH  20  21
ATOM     21  C   UNL     1     -10.851  14.584  69.234  0.00  0.00    -0.021 A 
ATOM     22  C   UNL     1     -10.750  15.413  70.337  0.00  0.00    -0.005 A 
ATOM     23  C   UNL     1     -11.888  15.517  71.130  0.00  0.00    +0.015 A 
ATOM     24  C   UNL     1     -11.987  16.302  72.401  0.00  0.00    +0.077 C 
ATOM     25  C   UNL     1     -13.296  15.754  72.957  0.00  0.00    +0.210 C 
ATOM     26  O   UNL     1     -13.160  14.375  72.619  0.00  0.00    -0.475 OA
ATOM     27  C   UNL     1     -12.680  14.389  71.306  0.00  0.00    +0.135 A 
ATOM     28  C   UNL     1     -12.451  13.318  70.450  0.00  0.00    +0.036 A 
ATOM     29  C   UNL     1     -11.529  13.393  69.433  0.00  0.00    -0.001 A 
ENDBRANCH  20  21
ENDBRANCH  19  20
ENDBRANCH  16  19
ENDBRANCH   1  14
BRANCH   1  31
ATOM     30  N   UNL     1      -5.784  17.468  66.390  0.00  0.00    -0.087 NA
ATOM     31  C   UNL     1      -6.081  17.469  66.375  0.00  0.00    +0.267 C 
ATOM     32  O   UNL     1      -6.053  17.916  65.232  0.00  0.00    -0.271 OA
ENDBRANCH   1  31
TORSDOF 7
ENDMDL
MODEL 6
REMARK VINA RESULT:      -6.6      3.942      8.150
REMARK  Name = 
REMARK  7 active torsions:
REMARK  status: ('A' for Active; 'I' for Inactive)
REMARK    1  A    between atoms: C_2  and  C_4
REMARK    2  A    between atoms: C_4  and  C_5
REMARK    3  A    between atoms: C_4  and  C_11
REMARK    4  A    between atoms: C_4  and  C_17
REMARK    5  A    between atoms: N_20  and  C_21
REMARK    6  A    between atoms: C_21  and  C_22
REMARK    7  A    between atoms: C_22  and  C_23
REMARK                            x       y       z     vdW  Elec       q    Type
REMARK                         _______ _______ _______ _____ _____    ______ ____
ROOT
ATOM      1  C   UNL     1     -10.354  15.453  67.627  0.00  0.00    +0.111 C 
ENDROOT
BRANCH   1   2
ATOM      2  C   UNL     1      -9.869  16.727  67.090  0.00  0.00    -0.011 A 
ATOM      3  C   UNL     1      -8.664  16.887  66.435  0.00  0.00    -0.004 A 
ATOM      4  C   UNL     1      -8.248  18.166  66.087  0.00  0.00    -0.000 A 
ATOM      5  C   UNL     1      -8.746  19.280  66.753  0.00  0.00    -0.000 A 
ATOM      6  C   UNL     1      -9.969  19.124  67.393  0.00  0.00    -0.000 A 
ATOM      7  C   UNL     1     -10.537  17.859  67.474  0.00  0.00    -0.004 A 
ENDBRANCH   1   2
BRANCH   1   8
ATOM      8  C   UNL     1      -9.208  14.771  68.297  0.00  0.00    -0.011 A 
ATOM      9  C   UNL     1      -8.402  15.333  69.245  0.00  0.00    -0.004 A 
ATOM     10  C   UNL     1      -7.212  14.695  69.581  0.00  0.00    -0.000 A 
ATOM     11  C   UNL     1      -6.802  13.529  68.960  0.00  0.00    -0.000 A 
ATOM     12  C   UNL     1      -7.781  12.816  68.284  0.00  0.00    -0.000 A 
ATOM     13  C   UNL     1      -8.855  13.520  67.800  0.00  0.00    -0.004 A 
ENDBRANCH   1   8
BRANCH   1  14
ATOM     14  C   UNL     1     -10.536  14.483  66.324  0.00  0.00    +0.033 C 
ATOM     15  C   UNL     1     -12.102  14.150  66.644  0.00  0.00    +0.073 C 
ATOM     16  N   UNL     1     -12.649  14.071  65.316  0.00  0.00    -0.272 NA
ATOM     17  C   UNL     1     -11.882  14.928  64.460  0.00  0.00    +0.072 C 
ATOM     18  C   UNL     1     -10.969  15.735  65.372  0.00  0.00    +0.020 C 
BRANCH  16  19
ATOM     19  C   UNL     1     -12.554  12.664  64.959  0.00  0.00    +0.077 C 
BRANCH  19  20
ATOM     20  C   UNL     1     -11.758  12.629  63.658  0.00  0.00    +0.044 C 
BRANCH  20  21
ATOM     21  C   UNL     1     -10.676  11.624  63.870  0.00  0.00    -0.021 A 
ATOM     22  C   UNL     1     -10.408  11.092  65.118  0.00  0.00    -0.005 A 
ATOM     23  C   UNL     1      -9.886   9.803  65.134  0.00  0.00    +0.015 A 
ATOM     24  C   UNL     1      -9.462   9.057  66.362  0.00  0.00    +0.077 C 
ATOM     25  C   UNL     1      -8.680   7.914  65.728  0.00  0.00    +0.210 C 
ATOM     26  O   UNL     1      -8.012   8.611  64.679  0.00  0.00    -0.475 OA
ATOM     27  C   UNL     1      -9.000   9.433  64.129  0.00  0.00    +0.135 A 
ATOM     28  C   UNL     1      -8.923  10.266  63.019  0.00  0.00    +0.036 A 
ATOM     29  C   UNL     1      -9.732  11.369  62.890  0.00  0.00    -0.001 A 
ENDBRANCH  20  21
ENDBRANCH  19  20
ENDBRANCH  16  19
ENDBRANCH   1  14
BRANCH   1  31
ATOM     30  N   UNL     1     -11.692  15.725  68.414  0.00  0.00    -0.087 NA
ATOM     31  C   UNL     1     -11.563  15.459  68.389  0.00  0.00    +0.267 C 
ATOM     32  O   UNL     1     -11.940  15.131  69.510  0.00  0.00    -0.271 OA
ENDBRANCH   1  31
TORSDOF 7
ENDMDL
MODEL 7
REMARK VINA RESULT:      -6.6      5.233      9.657
REMARK  Name = 
REMARK  7 active torsions:
REMARK  status: ('A' for Active; 'I' for Inactive)
REMARK    1  A    between atoms: C_2  and  C_4
REMARK    2  A    between atoms: C_4  and  C_5
REMARK    3  A    between atoms: C_4  and  C_11
REMARK    4  A    between atoms: C_4  and  C_17
REMARK    5  A    between atoms: N_20  and  C_21
REMARK    6  A    between atoms: C_21  and  C_22
REMARK    7  A    between atoms: C_22  and  C_23
REMARK                            x       y       z     vdW  Elec       q    Type
REMARK                         _______ _______ _______ _____ _____    ______ ____
ROOT
ATOM      1  C   UNL     1     -10.837  12.895  66.396  0.00  0.00    +0.111 C 
ENDROOT
BRANCH   1   2
ATOM      2  C   UNL     1     -10.042  14.117  66.261  0.00  0.00    -0.011 A 
ATOM      3  C   UNL     1      -8.870  14.363  66.949  0.00  0.00    -0.004 A 
ATOM      4  C   UNL     1      -8.272  15.612  66.841  0.00  0.00    -0.000 A 
ATOM      5  C   UNL     1      -9.014  16.724  66.459  0.00  0.00    -0.000 A 
ATOM      6  C   UNL     1     -10.181  16.476  65.748  0.00  0.00    -0.000 A 
ATOM      7  C   UNL     1     -10.621  15.167  65.600  0.00  0.00    -0.004 A 
ENDBRANCH   1   2
BRANCH   1   8
ATOM      8  C   UNL     1     -11.475  12.909  67.745  0.00  0.00    -0.011 A 
ATOM      9  C   UNL     1     -12.063  13.997  68.327  0.00  0.00    -0.004 A 
ATOM     10  C   UNL     1     -12.366  13.952  69.684  0.00  0.00    -0.000 A 
ATOM     11  C   UNL     1     -12.061  12.856  70.470  0.00  0.00    -0.000 A 
ATOM     12  C   UNL     1     -11.804  11.670  69.797  0.00  0.00    -0.000 A 
ATOM     13  C   UNL     1     -11.322  11.761  68.516  0.00  0.00    -0.004 A 
ENDBRANCH   1   8
BRANCH   1  14
ATOM     14  C   UNL     1      -9.746  11.697  66.615  0.00  0.00    +0.033 C 
ATOM     15  C   UNL     1     -10.822  10.504  66.324  0.00  0.00    +0.073 C 
ATOM     16  N   UNL     1      -9.995   9.540  65.646  0.00  0.00    -0.272 NA
ATOM     17  C   UNL     1      -8.954  10.244  64.958  0.00  0.00    +0.072 C 
ATOM     18  C   UNL     1      -9.308  11.722  65.043  0.00  0.00    +0.020 C 
BRANCH  16  19
ATOM     19  C   UNL     1      -9.504   8.667  66.700  0.00  0.00    +0.077 C 
BRANCH  19  20
ATOM     20  C   UNL     1     -10.578   7.598  66.873  0.00  0.00    +0.044 C 
BRANCH  20  21
ATOM     21  C   UNL     1     -10.564   7.238  68.321  0.00  0.00    -0.021 A 
ATOM     22  C   UNL     1     -10.320   8.179  69.305  0.00  0.00    -0.005 A 
ATOM     23  C   UNL     1     -10.915   7.941  70.539  0.00  0.00    +0.015 A 
ATOM     24  C   UNL     1     -10.738   8.787  71.762  0.00  0.00    +0.077 C 
ATOM     25  C   UNL     1     -11.314   7.856  72.822  0.00  0.00    +0.210 C 
ATOM     26  O   UNL     1     -10.805   6.604  72.367  0.00  0.00    -0.475 OA
ATOM     27  C   UNL     1     -11.017   6.628  70.985  0.00  0.00    +0.135 A 
ATOM     28  C   UNL     1     -10.790   5.626  70.050  0.00  0.00    +0.036 A 
ATOM     29  C   UNL     1     -10.540   5.915  68.730  0.00  0.00    -0.001 A 
ENDBRANCH  20  21
ENDBRANCH  19  20
ENDBRANCH  16  19
ENDBRANCH   1  14
BRANCH   1  31
ATOM     30  N   UNL     1     -11.659  12.671  65.069  0.00  0.00    -0.087 NA
ATOM     31  C   UNL     1     -11.722  12.544  65.330  0.00  0.00    +0.267 C 
ATOM     32  O   UNL     1     -12.925  12.574  65.091  0.00  0.00    -0.271 OA
ENDBRANCH   1  31
TORSDOF 7
ENDMDL
MODEL 8
REMARK VINA RESULT:      -6.5      4.318      9.013
REMARK  Name = 
REMARK  7 active torsions:
REMARK  status: ('A' for Active; 'I' for Inactive)
REMARK    1  A    between atoms: C_2  and  C_4
REMARK    2  A    between atoms: C_4  and  C_5
REMARK    3  A    between atoms: C_4  and  C_11
REMARK    4  A    between atoms: C_4  and  C_17
REMARK    5  A    between atoms: N_20  and  C_21
REMARK    6  A    between atoms: C_21  and  C_22
REMARK    7  A    between atoms: C_22  and  C_23
REMARK                            x       y       z     vdW  Elec       q    Type
REMARK                         _______ _______ _______ _____ _____    ______ ____
ROOT
ATOM      1  C   UNL     1     -10.800  13.961  67.326  0.00  0.00    +0.111 C 
ENDROOT
BRANCH   1   2
ATOM      2  C   UNL     1      -9.546  14.712  67.242  0.00  0.00    -0.011 A 
ATOM      3  C   UNL     1      -8.644  14.841  68.280  0.00  0.00    -0.004 A 
ATOM      4  C   UNL     1      -7.554  15.688  68.127  0.00  0.00    -0.000 A 
ATOM      5  C   UNL     1      -7.581  16.720  67.197  0.00  0.00    -0.000 A 
ATOM      6  C   UNL     1      -8.472  16.579  66.141  0.00  0.00    -0.000 A 
ATOM      7  C   UNL     1      -9.380  15.528  66.155  0.00  0.00    -0.004 A 
ENDBRANCH   1   2
BRANCH   1   8
ATOM      8  C   UNL     1     -11.498  14.372  68.579  0.00  0.00    -0.011 A 
ATOM      9  C   UNL     1     -11.704  15.661  68.980  0.00  0.00    -0.004 A 
ATOM     10  C   UNL     1     -12.113  15.903  70.288  0.00  0.00    -0.000 A 
ATOM     11  C   UNL     1     -12.284  14.881  71.205  0.00  0.00    -0.000 A 
ATOM     12  C   UNL     1     -12.414  13.602  70.683  0.00  0.00    -0.000 A 
ATOM     13  C   UNL     1     -11.829  13.353  69.467  0.00  0.00    -0.004 A 
ENDBRANCH   1   8
BRANCH   1  14
ATOM     14  C   UNL     1     -10.360  12.440  67.735  0.00  0.00    +0.033 C 
ATOM     15  C   UNL     1     -11.121  11.753  66.465  0.00  0.00    +0.073 C 
ATOM     16  N   UNL     1     -10.222  10.674  66.151  0.00  0.00    -0.272 NA
ATOM     17  C   UNL     1      -8.897  11.065  66.530  0.00  0.00    +0.072 C 
ATOM     18  C   UNL     1      -8.973  12.544  66.882  0.00  0.00    +0.020 C 
BRANCH  16  19
ATOM     19  C   UNL     1     -10.728   9.539  66.906  0.00  0.00    +0.077 C 
BRANCH  19  20
ATOM     20  C   UNL     1      -9.588   9.129  67.833  0.00  0.00    +0.044 C 
BRANCH  20  21
ATOM     21  C   UNL     1     -10.225   8.804  69.142  0.00  0.00    -0.021 A 
ATOM     22  C   UNL     1     -10.911   9.754  69.876  0.00  0.00    -0.005 A 
ATOM     23  C   UNL     1     -11.941   9.278  70.681  0.00  0.00    +0.015 A 
ATOM     24  C   UNL     1     -12.773  10.113  71.605  0.00  0.00    +0.077 C 
ATOM     25  C   UNL     1     -13.441   9.020  72.430  0.00  0.00    +0.210 C 
ATOM     26  O   UNL     1     -12.354   8.111  72.580  0.00  0.00    -0.475 OA
ATOM     27  C   UNL     1     -11.780   8.047  71.306  0.00  0.00    +0.135 A 
ATOM     28  C   UNL     1     -10.739   7.244  70.858  0.00  0.00    +0.036 A 
ATOM     29  C   UNL     1      -9.945   7.618  69.800  0.00  0.00    -0.001 A 
ENDBRANCH  20  21
ENDBRANCH  19  20
ENDBRANCH  16  19
ENDBRANCH   1  14
BRANCH   1  31
ATOM     30  N   UNL     1     -11.553  14.094  65.947  0.00  0.00    -0.087 NA
ATOM     31  C   UNL     1     -11.641  13.919  66.171  0.00  0.00    +0.267 C 
ATOM     32  O   UNL     1     -12.822  14.097  65.891  0.00  0.00    -0.271 OA
ENDBRANCH   1  31
TORSDOF 7
ENDMDL
MODEL 9
REMARK VINA RESULT:      -6.5      2.498      3.712
REMARK  Name = 
REMARK  7 active torsions:
REMARK  status: ('A' for Active; 'I' for Inactive)
REMARK    1  A    between atoms: C_2  and  C_4
REMARK    2  A    between atoms: C_4  and  C_5
REMARK    3  A    between atoms: C_4  and  C_11
REMARK    4  A    between atoms: C_4  and  C_17
REMARK    5  A    between atoms: N_20  and  C_21
REMARK    6  A    between atoms: C_21  and  C_22
REMARK    7  A    between atoms: C_22  and  C_23
REMARK                            x       y       z     vdW  Elec       q    Type
REMARK                         _______ _______ _______ _____ _____    ______ ____
ROOT
ATOM      1  C   UNL     1     -11.200  13.402  66.809  0.00  0.00    +0.111 C 
ENDROOT
BRANCH   1   2
ATOM      2  C   UNL     1     -11.702  12.832  68.062  0.00  0.00    -0.011 A 
ATOM      3  C   UNL     1     -11.681  13.485  69.278  0.00  0.00    -0.004 A 
ATOM      4  C   UNL     1     -12.062  12.796  70.422  0.00  0.00    -0.000 A 
ATOM      5  C   UNL     1     -12.019  11.407  70.462  0.00  0.00    -0.000 A 
ATOM      6  C   UNL     1     -12.063  10.751  69.239  0.00  0.00    -0.000 A 
ATOM      7  C   UNL     1     -11.984  11.492  68.067  0.00  0.00    -0.004 A 
ENDBRANCH   1   2
BRANCH   1   8
ATOM      8  C   UNL     1     -10.255  12.419  66.205  0.00  0.00    -0.011 A 
ATOM      9  C   UNL     1     -10.527  11.624  65.127  0.00  0.00    -0.004 A 
ATOM     10  C   UNL     1      -9.673  10.564  64.840  0.00  0.00    -0.000 A 
ATOM     11  C   UNL     1      -8.577  10.268  65.630  0.00  0.00    -0.000 A 
ATOM     12  C   UNL     1      -8.139  11.276  66.477  0.00  0.00    -0.000 A 
ATOM     13  C   UNL     1      -9.064  12.201  66.891  0.00  0.00    -0.004 A 
ENDBRANCH   1   8
BRANCH   1  14
ATOM     14  C   UNL     1     -10.144  14.565  67.263  0.00  0.00    +0.033 C 
ATOM     15  C   UNL     1      -9.865  15.071  65.737  0.00  0.00    +0.073 C 
ATOM     16  N   UNL     1      -9.703  16.487  65.937  0.00  0.00    -0.272 NA
ATOM     17  C   UNL     1     -10.483  16.874  67.075  0.00  0.00    +0.072 C 
ATOM     18  C   UNL     1     -11.335  15.667  67.440  0.00  0.00    +0.020 C 
BRANCH  16  19
ATOM     19  C   UNL     1      -8.273  16.674  66.125  0.00  0.00    +0.077 C 
BRANCH  19  20
ATOM     20  C   UNL     1      -8.107  18.134  66.534  0.00  0.00    +0.044 C 
BRANCH  20  21
ATOM     21  C   UNL     1      -7.196  18.125  67.715  0.00  0.00    -0.021 A 
ATOM     22  C   UNL     1      -6.587  19.278  68.177  0.00  0.00    -0.005 A 
ATOM     23  C   UNL     1      -6.307  19.318  69.539  0.00  0.00    +0.015 A 
ATOM     24  C   UNL     1      -5.597  20.433  70.242  0.00  0.00    +0.077 C 
ATOM     25  C   UNL     1      -5.287  19.760  71.573  0.00  0.00    +0.210 C 
ATOM     26  O   UNL     1      -4.937  18.453  71.124  0.00  0.00    -0.475 OA
ATOM     27  C   UNL     1      -5.911  18.145  70.170  0.00  0.00    +0.135 A 
ATOM     28  C   UNL     1      -6.105  16.958  69.473  0.00  0.00    +0.036 A 
ATOM     29  C   UNL     1      -6.720  16.937  68.244  0.00  0.00    -0.001 A 
ENDBRANCH  20  21
ENDBRANCH  19  20
ENDBRANCH  16  19
ENDBRANCH   1  14
BRANCH   1  31
ATOM     30  N   UNL     1     -12.392  14.062  66.016  0.00  0.00    -0.087 NA
ATOM     31  C   UNL     1     -12.147  13.951  65.890  0.00  0.00    +0.267 C 
ATOM     32  O   UNL     1     -12.776  13.592  64.900  0.00  0.00    -0.271 OA
ENDBRANCH   1  31
TORSDOF 7
ENDMDL
