MODEL 1
REMARK VINA RESULT:      -8.5      0.000      0.000
REMARK  Name = 
REMARK  4 active torsions:
REMARK  status: ('A' for Active; 'I' for Inactive)
REMARK    1  A    between atoms: C_2  and  C_4
REMARK    2  A    between atoms: N_11  and  C_12
REMARK    3  A    between atoms: C_15  and  N_16
REMARK    4  A    between atoms: N_26  and  C_27
REMARK                            x       y       z     vdW  Elec       q    Type
REMARK                         _______ _______ _______ _____ _____    ______ ____
ROOT
ATOM      1  C   UNL     1     -11.974  11.540  69.983  0.00  0.00    +0.087 A 
ATOM      2  C   UNL     1     -12.236  12.750  70.605  0.00  0.00    +0.264 A 
ATOM      3  O   UNL     1     -12.437  12.729  71.857  0.00  0.00    -0.267 OA
ATOM      4  N   UNL     1     -12.090  13.920  69.977  0.00  0.00    -0.282 N 
ATOM      5  C   UNL     1     -11.609  13.972  68.714  0.00  0.00    +0.150 A 
ATOM      6  C   UNL     1     -11.042  12.803  68.233  0.00  0.00    +0.050 A 
ATOM      7  C   UNL     1     -10.452  12.816  66.987  0.00  0.00    +0.105 A 
ATOM      8  N   UNL     1     -10.122  14.026  66.491  0.00  0.00    -0.210 NA
ATOM      9  C   UNL     1     -10.780  15.133  66.915  0.00  0.00    +0.244 A 
ATOM     10  N   UNL     1     -10.243  16.370  66.431  0.00  0.00    -0.159 NA
ATOM     11  N   UNL     1     -11.574  15.126  68.005  0.00  0.00    -0.195 NA
ATOM     12  C   UNL     1     -11.340  11.563  68.758  0.00  0.00    -0.010 A 
ATOM     13  C   UNL     1     -11.333  10.358  67.890  0.00  0.00    +0.031 C 
ENDROOT
BRANCH  10  14
ATOM     14  C   UNL     1      -8.827  16.518  66.600  0.00  0.00    +0.155 A 
ATOM     15  N   UNL     1      -8.078  17.256  65.750  0.00  0.00    -0.226 NA
ATOM     16  C   UNL     1      -7.096  18.053  66.238  0.00  0.00    +0.115 A 
ATOM     17  C   UNL     1      -6.673  17.936  67.557  0.00  0.00    +0.067 A 
ATOM     18  C   UNL     1      -7.106  16.789  68.209  0.00  0.00    +0.019 A 
ATOM     19  C   UNL     1      -8.158  16.030  67.709  0.00  0.00    +0.037 A 
BRANCH  17  20
ATOM     20  N   UNL     1      -6.236  19.098  68.269  0.00  0.00    -0.303 N 
ATOM     21  C   UNL     1      -5.334  20.061  67.691  0.00  0.00    +0.110 C 
ATOM     22  C   UNL     1      -4.539  20.809  68.723  0.00  0.00    +0.110 C 
ATOM     23  N   UNL     1      -5.313  21.187  69.882  0.00  0.00    -0.214 NA
ATOM     24  C   UNL     1      -6.061  20.085  70.438  0.00  0.00    +0.110 C 
ATOM     25  C   UNL     1      -7.019  19.508  69.427  0.00  0.00    +0.110 C 
ENDBRANCH  17  20
ENDBRANCH  10  14
BRANCH   4  26
ATOM     26  C   UNL     1     -12.887  15.049  70.418  0.00  0.00    +0.090 C 
ATOM     27  C   UNL     1     -13.880  14.605  71.454  0.00  0.00    +0.023 C 
ATOM     28  C   UNL     1     -13.527  15.292  72.742  0.00  0.00    +0.002 C 
ATOM     29  C   UNL     1     -12.157  15.887  72.576  0.00  0.00    +0.002 C 
ATOM     30  C   UNL     1     -11.942  16.016  71.088  0.00  0.00    +0.023 C 
ENDBRANCH   4  26
BRANCH   1  32
ATOM     31  C   UNL     1     -11.439   9.502  71.375  0.00  0.00    +0.077 C 
ATOM     32  C   UNL     1     -12.419  10.292  70.572  0.00  0.00    +0.178 C 
ATOM     33  O   UNL     1     -13.617  10.249  70.980  0.00  0.00    -0.291 OA
ENDBRANCH   1  32
TORSDOF 4
ENDMDL
MODEL 2
REMARK VINA RESULT:      -8.4      1.934      3.004
REMARK  Name = 
REMARK  4 active torsions:
REMARK  status: ('A' for Active; 'I' for Inactive)
REMARK    1  A    between atoms: C_2  and  C_4
REMARK    2  A    between atoms: N_11  and  C_12
REMARK    3  A    between atoms: C_15  and  N_16
REMARK    4  A    between atoms: N_26  and  C_27
REMARK                            x       y       z     vdW  Elec       q    Type
REMARK                         _______ _______ _______ _____ _____    ______ ____
ROOT
ATOM      1  C   UNL     1     -11.086  12.931  68.396  0.00  0.00    +0.087 A 
ATOM      2  C   UNL     1     -11.529  13.610  69.519  0.00  0.00    +0.264 A 
ATOM      3  O   UNL     1     -11.644  12.945  70.593  0.00  0.00    -0.267 OA
ATOM      4  N   UNL     1     -11.642  14.941  69.549  0.00  0.00    -0.282 N 
ATOM      5  C   UNL     1     -11.257  15.691  68.491  0.00  0.00    +0.150 A 
ATOM      6  C   UNL     1     -10.514  15.038  67.523  0.00  0.00    +0.050 A 
ATOM      7  C   UNL     1     -10.015  15.768  66.465  0.00  0.00    +0.105 A 
ATOM      8  N   UNL     1      -9.947  17.104  66.636  0.00  0.00    -0.210 NA
ATOM      9  C   UNL     1     -10.771  17.715  67.522  0.00  0.00    +0.244 A 
ATOM     10  N   UNL     1     -10.504  19.107  67.725  0.00  0.00    -0.159 NA
ATOM     11  N   UNL     1     -11.481  17.027  68.438  0.00  0.00    -0.195 NA
ATOM     12  C   UNL     1     -10.544  13.669  67.363  0.00  0.00    -0.010 A 
ATOM     13  C   UNL     1     -10.367  13.064  66.018  0.00  0.00    +0.031 C 
ENDROOT
BRANCH  10  14
ATOM     14  C   UNL     1      -9.133  19.424  67.998  0.00  0.00    +0.155 A 
ATOM     15  N   UNL     1      -8.430  18.791  68.965  0.00  0.00    -0.226 NA
ATOM     16  C   UNL     1      -7.143  18.436  68.737  0.00  0.00    +0.115 A 
ATOM     17  C   UNL     1      -6.452  18.930  67.637  0.00  0.00    +0.067 A 
ATOM     18  C   UNL     1      -7.062  20.000  66.997  0.00  0.00    +0.019 A 
ATOM     19  C   UNL     1      -8.403  20.297  67.210  0.00  0.00    +0.037 A 
BRANCH  17  20
ATOM     20  N   UNL     1      -5.469  18.115  66.989  0.00  0.00    -0.303 N 
ATOM     21  C   UNL     1      -4.690  17.135  67.703  0.00  0.00    +0.110 C 
ATOM     22  C   UNL     1      -3.366  16.854  67.050  0.00  0.00    +0.110 C 
ATOM     23  N   UNL     1      -3.441  16.770  65.611  0.00  0.00    -0.214 NA
ATOM     24  C   UNL     1      -4.132  17.892  65.021  0.00  0.00    +0.110 C 
ATOM     25  C   UNL     1      -5.545  18.000  65.539  0.00  0.00    +0.110 C 
ENDBRANCH  17  20
ENDBRANCH  10  14
BRANCH   4  26
ATOM     26  C   UNL     1     -12.605  15.536  70.456  0.00  0.00    +0.090 C 
ATOM     27  C   UNL     1     -13.452  14.465  71.082  0.00  0.00    +0.023 C 
ATOM     28  C   UNL     1     -13.166  14.469  72.557  0.00  0.00    +0.002 C 
ATOM     29  C   UNL     1     -11.934  15.301  72.776  0.00  0.00    +0.002 C 
ATOM     30  C   UNL     1     -11.817  16.191  71.563  0.00  0.00    +0.023 C 
ENDBRANCH   4  26
BRANCH   1  32
ATOM     31  C   UNL     1     -10.188  10.614  68.844  0.00  0.00    +0.077 C 
ATOM     32  C   UNL     1     -11.253  11.495  68.283  0.00  0.00    +0.178 C 
ATOM     33  O   UNL     1     -12.435  11.050  68.380  0.00  0.00    -0.291 OA
ENDBRANCH   1  32
TORSDOF 4
ENDMDL
MODEL 3
REMARK VINA RESULT:      -7.8      2.086      3.120
REMARK  Name = 
REMARK  4 active torsions:
REMARK  status: ('A' for Active; 'I' for Inactive)
REMARK    1  A    between atoms: C_2  and  C_4
REMARK    2  A    between atoms: N_11  and  C_12
REMARK    3  A    between atoms: C_15  and  N_16
REMARK    4  A    between atoms: N_26  and  C_27
REMARK                            x       y       z     vdW  Elec       q    Type
REMARK                         _______ _______ _______ _____ _____    ______ ____
ROOT
ATOM      1  C   UNL     1     -12.011  11.419  70.165  0.00  0.00    +0.087 A 
ATOM      2  C   UNL     1     -12.396  12.539  70.882  0.00  0.00    +0.264 A 
ATOM      3  O   UNL     1     -12.659  12.381  72.113  0.00  0.00    -0.267 OA
ATOM      4  N   UNL     1     -12.307  13.773  70.378  0.00  0.00    -0.282 N 
ATOM      5  C   UNL     1     -11.766  13.983  69.156  0.00  0.00    +0.150 A 
ATOM      6  C   UNL     1     -11.088  12.911  68.601  0.00  0.00    +0.050 A 
ATOM      7  C   UNL     1     -10.438  13.089  67.399  0.00  0.00    +0.105 A 
ATOM      8  N   UNL     1     -10.176  14.362  67.039  0.00  0.00    -0.210 NA
ATOM      9  C   UNL     1     -10.937  15.373  67.528  0.00  0.00    +0.244 A 
ATOM     10  N   UNL     1     -10.471  16.686  67.196  0.00  0.00    -0.159 NA
ATOM     11  N   UNL     1     -11.783  15.202  68.563  0.00  0.00    -0.195 NA
ATOM     12  C   UNL     1     -11.318  11.608  68.987  0.00  0.00    -0.010 A 
ATOM     13  C   UNL     1     -11.174  10.497  68.011  0.00  0.00    +0.031 C 
ENDROOT
BRANCH  10  14
ATOM     14  C   UNL     1      -9.082  16.917  67.461  0.00  0.00    +0.155 A 
ATOM     15  N   UNL     1      -8.584  16.927  68.719  0.00  0.00    -0.226 NA
ATOM     16  C   UNL     1      -7.390  16.339  68.974  0.00  0.00    +0.115 A 
ATOM     17  C   UNL     1      -6.550  15.954  67.936  0.00  0.00    +0.067 A 
ATOM     18  C   UNL     1      -6.883  16.472  66.692  0.00  0.00    +0.019 A 
ATOM     19  C   UNL     1      -8.140  17.013  66.451  0.00  0.00    +0.037 A 
BRANCH  17  20
ATOM     20  N   UNL     1      -5.728  14.791  68.081  0.00  0.00    -0.303 N 
ATOM     21  C   UNL     1      -6.268  13.456  68.037  0.00  0.00    +0.110 C 
ATOM     22  C   UNL     1      -5.432  12.462  68.793  0.00  0.00    +0.110 C 
ATOM     23  N   UNL     1      -4.013  12.645  68.604  0.00  0.00    -0.214 NA
ATOM     24  C   UNL     1      -3.592  14.010  68.815  0.00  0.00    +0.110 C 
ATOM     25  C   UNL     1      -4.296  14.953  67.871  0.00  0.00    +0.110 C 
ENDBRANCH  17  20
ENDBRANCH  10  14
BRANCH   4  26
ATOM     26  C   UNL     1     -13.209  14.794  70.877  0.00  0.00    +0.090 C 
ATOM     27  C   UNL     1     -13.839  14.340  72.163  0.00  0.00    +0.023 C 
ATOM     28  C   UNL     1     -13.369  15.267  73.247  0.00  0.00    +0.002 C 
ATOM     29  C   UNL     1     -12.224  16.067  72.693  0.00  0.00    +0.002 C 
ATOM     30  C   UNL     1     -12.367  16.006  71.192  0.00  0.00    +0.023 C 
ENDBRANCH   4  26
BRANCH   1  32
ATOM     31  C   UNL     1     -11.434   9.335  71.470  0.00  0.00    +0.077 C 
ATOM     32  C   UNL     1     -12.389  10.090  70.606  0.00  0.00    +0.178 C 
ATOM     33  O   UNL     1     -13.616   9.900  70.856  0.00  0.00    -0.291 OA
ENDBRANCH   1  32
TORSDOF 4
ENDMDL
MODEL 4
REMARK VINA RESULT:      -7.7      3.529      7.829
REMARK  Name = 
REMARK  4 active torsions:
REMARK  status: ('A' for Active; 'I' for Inactive)
REMARK    1  A    between atoms: C_2  and  C_4
REMARK    2  A    between atoms: N_11  and  C_12
REMARK    3  A    between atoms: C_15  and  N_16
REMARK    4  A    between atoms: N_26  and  C_27
REMARK                            x       y       z     vdW  Elec       q    Type
REMARK                         _______ _______ _______ _____ _____    ______ ____
ROOT
ATOM      1  C   UNL     1     -12.687  14.505  71.694  0.00  0.00    +0.087 A 
ATOM      2  C   UNL     1     -11.841  15.073  70.757  0.00  0.00    +0.264 A 
ATOM      3  O   UNL     1     -11.335  16.202  71.039  0.00  0.00    -0.267 OA
ATOM      4  N   UNL     1     -11.399  14.399  69.692  0.00  0.00    -0.282 N 
ATOM      5  C   UNL     1     -11.713  13.094  69.522  0.00  0.00    +0.150 A 
ATOM      6  C   UNL     1     -12.269  12.456  70.618  0.00  0.00    +0.050 A 
ATOM      7  C   UNL     1     -12.528  11.104  70.538  0.00  0.00    +0.105 A 
ATOM      8  N   UNL     1     -11.880  10.424  69.571  0.00  0.00    -0.210 NA
ATOM      9  C   UNL     1     -11.445  11.075  68.463  0.00  0.00    +0.244 A 
ATOM     10  N   UNL     1     -10.643  10.281  67.581  0.00  0.00    -0.159 NA
ATOM     11  N   UNL     1     -11.394  12.420  68.390  0.00  0.00    -0.195 NA
ATOM     12  C   UNL     1     -12.901  13.142  71.634  0.00  0.00    -0.010 A 
ATOM     13  C   UNL     1     -14.035  12.525  72.368  0.00  0.00    +0.031 C 
ENDROOT
BRANCH  10  14
ATOM     14  C   UNL     1      -9.569   9.575  68.215  0.00  0.00    +0.155 A 
ATOM     15  N   UNL     1      -8.655  10.205  68.988  0.00  0.00    -0.226 NA
ATOM     16  C   UNL     1      -8.234   9.626  70.139  0.00  0.00    +0.115 A 
ATOM     17  C   UNL     1      -8.523   8.294  70.413  0.00  0.00    +0.067 A 
ATOM     18  C   UNL     1      -8.990   7.563  69.328  0.00  0.00    +0.019 A 
ATOM     19  C   UNL     1      -9.471   8.195  68.188  0.00  0.00    +0.037 A 
BRANCH  17  20
ATOM     20  N   UNL     1      -8.745   7.878  71.764  0.00  0.00    -0.303 N 
ATOM     21  C   UNL     1      -7.680   7.397  72.606  0.00  0.00    +0.110 C 
ATOM     22  C   UNL     1      -8.163   6.470  73.686  0.00  0.00    +0.110 C 
ATOM     23  N   UNL     1      -9.396   6.898  74.301  0.00  0.00    -0.214 NA
ATOM     24  C   UNL     1     -10.421   7.218  73.335  0.00  0.00    +0.110 C 
ATOM     25  C   UNL     1      -9.974   8.321  72.408  0.00  0.00    +0.110 C 
ENDBRANCH  17  20
ENDBRANCH  10  14
BRANCH   4  26
ATOM     26  C   UNL     1     -11.032  15.142  68.502  0.00  0.00    +0.090 C 
ATOM     27  C   UNL     1     -11.252  16.611  68.724  0.00  0.00    +0.023 C 
ATOM     28  C   UNL     1      -9.910  17.282  68.665  0.00  0.00    +0.002 C 
ATOM     29  C   UNL     1      -8.863  16.206  68.730  0.00  0.00    +0.002 C 
ATOM     30  C   UNL     1      -9.551  14.935  68.297  0.00  0.00    +0.023 C 
ENDBRANCH   4  26
BRANCH   1  32
ATOM     31  C   UNL     1     -12.597  15.908  73.791  0.00  0.00    +0.077 C 
ATOM     32  C   UNL     1     -13.383  15.329  72.662  0.00  0.00    +0.178 C 
ATOM     33  O   UNL     1     -14.320  16.059  72.221  0.00  0.00    -0.291 OA
ENDBRANCH   1  32
TORSDOF 4
ENDMDL
MODEL 5
REMARK VINA RESULT:      -7.6      4.157      9.570
REMARK  Name = 
REMARK  4 active torsions:
REMARK  status: ('A' for Active; 'I' for Inactive)
REMARK    1  A    between atoms: C_2  and  C_4
REMARK    2  A    between atoms: N_11  and  C_12
REMARK    3  A    between atoms: C_15  and  N_16
REMARK    4  A    between atoms: N_26  and  C_27
REMARK                            x       y       z     vdW  Elec       q    Type
REMARK                         _______ _______ _______ _____ _____    ______ ____
ROOT
ATOM      1  C   UNL     1     -10.547  15.103  66.609  0.00  0.00    +0.087 A 
ATOM      2  C   UNL     1     -10.449  13.950  65.848  0.00  0.00    +0.264 A 
ATOM      3  O   UNL     1      -9.725  14.000  64.808  0.00  0.00    -0.267 OA
ATOM      4  N   UNL     1     -10.917  12.773  66.272  0.00  0.00    -0.282 N 
ATOM      5  C   UNL     1     -11.453  12.648  67.508  0.00  0.00    +0.150 A 
ATOM      6  C   UNL     1     -11.241  13.710  68.371  0.00  0.00    +0.050 A 
ATOM      7  C   UNL     1     -11.683  13.604  69.673  0.00  0.00    +0.105 A 
ATOM      8  N   UNL     1     -11.934  12.358  70.123  0.00  0.00    -0.210 NA
ATOM      9  C   UNL     1     -12.242  11.371  69.245  0.00  0.00    +0.244 A 
ATOM     10  N   UNL     1     -12.340  10.065  69.825  0.00  0.00    -0.159 NA
ATOM     11  N   UNL     1     -12.055  11.505  67.917  0.00  0.00    -0.195 NA
ATOM     12  C   UNL     1     -10.944  14.980  67.926  0.00  0.00    -0.010 A 
ATOM     13  C   UNL     1     -11.394  16.171  68.691  0.00  0.00    +0.031 C 
ENDROOT
BRANCH  10  14
ATOM     14  C   UNL     1     -11.232   9.689  70.652  0.00  0.00    +0.155 A 
ATOM     15  N   UNL     1     -11.401   9.244  71.918  0.00  0.00    -0.226 NA
ATOM     16  C   UNL     1     -10.656   8.206  72.371  0.00  0.00    +0.115 A 
ATOM     17  C   UNL     1      -9.552   7.757  71.657  0.00  0.00    +0.067 A 
ATOM     18  C   UNL     1      -9.119   8.612  70.652  0.00  0.00    +0.019 A 
ATOM     19  C   UNL     1      -9.935   9.628  70.171  0.00  0.00    +0.037 A 
BRANCH  17  20
ATOM     20  N   UNL     1      -9.213   6.366  71.671  0.00  0.00    -0.303 N 
ATOM     21  C   UNL     1      -9.501   5.492  70.562  0.00  0.00    +0.110 C 
ATOM     22  C   UNL     1      -9.653   4.056  70.975  0.00  0.00    +0.110 C 
ATOM     23  N   UNL     1      -8.685   3.635  71.960  0.00  0.00    -0.214 NA
ATOM     24  C   UNL     1      -8.602   4.538  73.084  0.00  0.00    +0.110 C 
ATOM     25  C   UNL     1      -8.220   5.929  72.643  0.00  0.00    +0.110 C 
ENDBRANCH  17  20
ENDBRANCH  10  14
BRANCH   4  26
ATOM     26  C   UNL     1     -11.315  11.788  65.285  0.00  0.00    +0.090 C 
ATOM     27  C   UNL     1     -11.179  12.359  63.902  0.00  0.00    +0.023 C 
ATOM     28  C   UNL     1     -10.120  11.567  63.190  0.00  0.00    +0.002 C 
ATOM     29  C   UNL     1      -9.400  10.744  64.221  0.00  0.00    +0.002 C 
ATOM     30  C   UNL     1     -10.341  10.641  65.396  0.00  0.00    +0.023 C 
ENDBRANCH   4  26
BRANCH   1  32
ATOM     31  C   UNL     1      -8.953  17.012  66.169  0.00  0.00    +0.077 C 
ATOM     32  C   UNL     1     -10.309  16.405  66.018  0.00  0.00    +0.178 C 
ATOM     33  O   UNL     1     -10.895  16.650  64.922  0.00  0.00    -0.291 OA
ENDBRANCH   1  32
TORSDOF 4
ENDMDL
MODEL 6
REMARK VINA RESULT:      -7.5      1.704      2.410
REMARK  Name = 
REMARK  4 active torsions:
REMARK  status: ('A' for Active; 'I' for Inactive)
REMARK    1  A    between atoms: C_2  and  C_4
REMARK    2  A    between atoms: N_11  and  C_12
REMARK    3  A    between atoms: C_15  and  N_16
REMARK    4  A    between atoms: N_26  and  C_27
REMARK                            x       y       z     vdW  Elec       q    Type
REMARK                         _______ _______ _______ _____ _____    ______ ____
ROOT
ATOM      1  C   UNL     1     -11.042  12.762  67.813  0.00  0.00    +0.087 A 
ATOM      2  C   UNL     1     -11.305  13.588  68.894  0.00  0.00    +0.264 A 
ATOM      3  O   UNL     1     -11.338  13.050  70.042  0.00  0.00    -0.267 OA
ATOM      4  N   UNL     1     -11.324  14.919  68.786  0.00  0.00    -0.282 N 
ATOM      5  C   UNL     1     -11.017  15.522  67.614  0.00  0.00    +0.150 A 
ATOM      6  C   UNL     1     -10.437  14.714  66.650  0.00  0.00    +0.050 A 
ATOM      7  C   UNL     1     -10.018  15.287  65.469  0.00  0.00    +0.105 A 
ATOM      8  N   UNL     1      -9.841  16.624  65.479  0.00  0.00    -0.210 NA
ATOM      9  C   UNL     1     -10.514  17.388  66.375  0.00  0.00    +0.244 A 
ATOM     10  N   UNL     1     -10.132  18.769  66.389  0.00  0.00    -0.159 NA
ATOM     11  N   UNL     1     -11.156  16.858  67.435  0.00  0.00    -0.195 NA
ATOM     12  C   UNL     1     -10.577  13.342  66.650  0.00  0.00    -0.010 A 
ATOM     13  C   UNL     1     -10.599  12.588  65.371  0.00  0.00    +0.031 C 
ENDROOT
BRANCH  10  14
ATOM     14  C   UNL     1      -8.721  19.002  66.473  0.00  0.00    +0.155 A 
ATOM     15  N   UNL     1      -8.212  20.218  66.782  0.00  0.00    -0.226 NA
ATOM     16  C   UNL     1      -7.151  20.309  67.619  0.00  0.00    +0.115 A 
ATOM     17  C   UNL     1      -6.416  19.182  67.963  0.00  0.00    +0.067 A 
ATOM     18  C   UNL     1      -6.660  18.063  67.177  0.00  0.00    +0.019 A 
ATOM     19  C   UNL     1      -7.793  17.980  66.376  0.00  0.00    +0.037 A 
BRANCH  17  20
ATOM     20  N   UNL     1      -5.831  19.083  69.266  0.00  0.00    -0.303 N 
ATOM     21  C   UNL     1      -5.210  17.874  69.742  0.00  0.00    +0.110 C 
ATOM     22  C   UNL     1      -5.228  17.757  71.240  0.00  0.00    +0.110 C 
ATOM     23  N   UNL     1      -4.941  19.000  71.916  0.00  0.00    -0.214 NA
ATOM     24  C   UNL     1      -5.739  20.100  71.427  0.00  0.00    +0.110 C 
ATOM     25  C   UNL     1      -5.513  20.327  69.953  0.00  0.00    +0.110 C 
ENDBRANCH  17  20
ENDBRANCH  10  14
BRANCH   4  26
ATOM     26  C   UNL     1     -12.133  15.680  69.718  0.00  0.00    +0.090 C 
ATOM     27  C   UNL     1     -13.119  14.776  70.402  0.00  0.00    +0.023 C 
ATOM     28  C   UNL     1     -12.770  14.752  71.863  0.00  0.00    +0.002 C 
ATOM     29  C   UNL     1     -11.408  15.368  72.013  0.00  0.00    +0.002 C 
ATOM     30  C   UNL     1     -11.198  16.209  70.778  0.00  0.00    +0.023 C 
ENDBRANCH   4  26
BRANCH   1  32
ATOM     31  C   UNL     1     -10.176  10.411  68.130  0.00  0.00    +0.077 C 
ATOM     32  C   UNL     1     -11.318  11.340  67.882  0.00  0.00    +0.178 C 
ATOM     33  O   UNL     1     -12.421  10.997  68.402  0.00  0.00    -0.291 OA
ENDBRANCH   1  32
TORSDOF 4
ENDMDL
MODEL 7
REMARK VINA RESULT:      -7.4      4.032      7.888
REMARK  Name = 
REMARK  4 active torsions:
REMARK  status: ('A' for Active; 'I' for Inactive)
REMARK    1  A    between atoms: C_2  and  C_4
REMARK    2  A    between atoms: N_11  and  C_12
REMARK    3  A    between atoms: C_15  and  N_16
REMARK    4  A    between atoms: N_26  and  C_27
REMARK                            x       y       z     vdW  Elec       q    Type
REMARK                         _______ _______ _______ _____ _____    ______ ____
ROOT
ATOM      1  C   UNL     1      -6.869  16.627  68.993  0.00  0.00    +0.087 A 
ATOM      2  C   UNL     1      -7.741  17.595  68.523  0.00  0.00    +0.264 A 
ATOM      3  O   UNL     1      -7.256  18.736  68.258  0.00  0.00    -0.267 OA
ATOM      4  N   UNL     1      -8.996  17.310  68.165  0.00  0.00    -0.282 N 
ATOM      5  C   UNL     1      -9.447  16.034  68.183  0.00  0.00    +0.150 A 
ATOM      6  C   UNL     1      -8.482  15.052  68.327  0.00  0.00    +0.050 A 
ATOM      7  C   UNL     1      -8.867  13.730  68.262  0.00  0.00    +0.105 A 
ATOM      8  N   UNL     1     -10.059  13.478  67.686  0.00  0.00    -0.210 NA
ATOM      9  C   UNL     1     -11.015  14.440  67.663  0.00  0.00    +0.244 A 
ATOM     10  N   UNL     1     -12.178  14.108  66.895  0.00  0.00    -0.159 NA
ATOM     11  N   UNL     1     -10.747  15.729  67.954  0.00  0.00    -0.195 NA
ATOM     12  C   UNL     1      -7.243  15.304  68.879  0.00  0.00    -0.010 A 
ATOM     13  C   UNL     1      -6.535  14.251  69.651  0.00  0.00    +0.031 C 
ENDROOT
BRANCH  10  14
ATOM     14  C   UNL     1     -11.909  13.622  65.574  0.00  0.00    +0.155 A 
ATOM     15  N   UNL     1     -10.798  13.980  64.891  0.00  0.00    -0.226 NA
ATOM     16  C   UNL     1     -10.127  13.053  64.165  0.00  0.00    +0.115 A 
ATOM     17  C   UNL     1     -10.691  11.811  63.899  0.00  0.00    +0.067 A 
ATOM     18  C   UNL     1     -12.051  11.719  64.166  0.00  0.00    +0.019 A 
ATOM     19  C   UNL     1     -12.693  12.657  64.966  0.00  0.00    +0.037 A 
BRANCH  17  20
ATOM     20  N   UNL     1      -9.854  10.654  63.806  0.00  0.00    -0.303 N 
ATOM     21  C   UNL     1      -9.711   9.718  64.892  0.00  0.00    +0.110 C 
ATOM     22  C   UNL     1      -8.403   8.981  64.859  0.00  0.00    +0.110 C 
ATOM     23  N   UNL     1      -8.006   8.574  63.532  0.00  0.00    -0.214 NA
ATOM     24  C   UNL     1      -8.067   9.653  62.575  0.00  0.00    +0.110 C 
ATOM     25  C   UNL     1      -9.463  10.216  62.473  0.00  0.00    +0.110 C 
ENDBRANCH  17  20
ENDBRANCH  10  14
BRANCH   4  26
ATOM     26  C   UNL     1      -9.996  18.357  68.245  0.00  0.00    +0.090 C 
ATOM     27  C   UNL     1      -9.345  19.667  68.584  0.00  0.00    +0.023 C 
ATOM     28  C   UNL     1      -9.540  20.585  67.411  0.00  0.00    +0.002 C 
ATOM     29  C   UNL     1     -10.015  19.748  66.257  0.00  0.00    +0.002 C 
ATOM     30  C   UNL     1     -10.595  18.496  66.867  0.00  0.00    +0.023 C 
ENDBRANCH   4  26
BRANCH   1  32
ATOM     31  C   UNL     1      -4.409  17.168  68.808  0.00  0.00    +0.077 C 
ATOM     32  C   UNL     1      -5.630  17.001  69.649  0.00  0.00    +0.178 C 
ATOM     33  O   UNL     1      -5.724  17.789  70.636  0.00  0.00    -0.291 OA
ENDBRANCH   1  32
TORSDOF 4
ENDMDL
MODEL 8
REMARK VINA RESULT:      -7.3      2.761      4.816
REMARK  Name = 
REMARK  4 active torsions:
REMARK  status: ('A' for Active; 'I' for Inactive)
REMARK    1  A    between atoms: C_2  and  C_4
REMARK    2  A    between atoms: N_11  and  C_12
REMARK    3  A    between atoms: C_15  and  N_16
REMARK    4  A    between atoms: N_26  and  C_27
REMARK                            x       y       z     vdW  Elec       q    Type
REMARK                         _______ _______ _______ _____ _____    ______ ____
ROOT
ATOM      1  C   UNL     1      -8.260   9.543  70.176  0.00  0.00    +0.087 A 
ATOM      2  C   UNL     1      -9.583   9.486  70.583  0.00  0.00    +0.264 A 
ATOM      3  O   UNL     1      -9.804   9.252  71.810  0.00  0.00    -0.267 OA
ATOM      4  N   UNL     1     -10.590   9.856  69.788  0.00  0.00    -0.282 N 
ATOM      5  C   UNL     1     -10.348  10.372  68.560  0.00  0.00    +0.150 A 
ATOM      6  C   UNL     1      -9.037  10.732  68.303  0.00  0.00    +0.050 A 
ATOM      7  C   UNL     1      -8.742  11.347  67.104  0.00  0.00    +0.105 A 
ATOM      8  N   UNL     1      -9.777  11.901  66.442  0.00  0.00    -0.210 NA
ATOM      9  C   UNL     1     -11.036  11.442  66.649  0.00  0.00    +0.244 A 
ATOM     10  N   UNL     1     -12.064  12.205  66.007  0.00  0.00    -0.159 NA
ATOM     11  N   UNL     1     -11.346  10.631  67.681  0.00  0.00    -0.195 NA
ATOM     12  C   UNL     1      -7.971  10.203  68.999  0.00  0.00    -0.010 A 
ATOM     13  C   UNL     1      -6.656  10.016  68.334  0.00  0.00    +0.031 C 
ENDROOT
BRANCH  10  14
ATOM     14  C   UNL     1     -11.991  13.619  66.228  0.00  0.00    +0.155 A 
ATOM     15  N   UNL     1     -12.116  14.159  67.462  0.00  0.00    -0.226 NA
ATOM     16  C   UNL     1     -11.311  15.185  67.831  0.00  0.00    +0.115 A 
ATOM     17  C   UNL     1     -10.542  15.861  66.891  0.00  0.00    +0.067 A 
ATOM     18  C   UNL     1     -10.883  15.609  65.568  0.00  0.00    +0.019 A 
ATOM     19  C   UNL     1     -11.661  14.511  65.222  0.00  0.00    +0.037 A 
BRANCH  17  20
ATOM     20  N   UNL     1      -9.262  16.382  67.261  0.00  0.00    -0.303 N 
ATOM     21  C   UNL     1      -9.035  17.043  68.521  0.00  0.00    +0.110 C 
ATOM     22  C   UNL     1      -7.893  18.019  68.471  0.00  0.00    +0.110 C 
ATOM     23  N   UNL     1      -6.756  17.535  67.724  0.00  0.00    -0.214 NA
ATOM     24  C   UNL     1      -7.118  17.026  66.422  0.00  0.00    +0.110 C 
ATOM     25  C   UNL     1      -8.101  15.887  66.533  0.00  0.00    +0.110 C 
ENDBRANCH  17  20
ENDBRANCH  10  14
BRANCH   4  26
ATOM     26  C   UNL     1     -11.897   9.264  70.001  0.00  0.00    +0.090 C 
ATOM     27  C   UNL     1     -11.823   8.228  71.086  0.00  0.00    +0.023 C 
ATOM     28  C   UNL     1     -12.669   8.712  72.229  0.00  0.00    +0.002 C 
ATOM     29  C   UNL     1     -12.988  10.158  71.975  0.00  0.00    +0.002 C 
ATOM     30  C   UNL     1     -12.802  10.367  70.492  0.00  0.00    +0.023 C 
ENDBRANCH   4  26
BRANCH   1  32
ATOM     31  C   UNL     1      -6.737   7.545  70.432  0.00  0.00    +0.077 C 
ATOM     32  C   UNL     1      -7.222   8.866  70.929  0.00  0.00    +0.178 C 
ATOM     33  O   UNL     1      -6.344   9.598  71.475  0.00  0.00    -0.291 OA
ENDBRANCH   1  32
TORSDOF 4
ENDMDL
MODEL 9
REMARK VINA RESULT:      -7.2      3.746      8.059
REMARK  Name = 
REMARK  4 active torsions:
REMARK  status: ('A' for Active; 'I' for Inactive)
REMARK    1  A    between atoms: C_2  and  C_4
REMARK    2  A    between atoms: N_11  and  C_12
REMARK    3  A    between atoms: C_15  and  N_16
REMARK    4  A    between atoms: N_26  and  C_27
REMARK                            x       y       z     vdW  Elec       q    Type
REMARK                         _______ _______ _______ _____ _____    ______ ____
ROOT
ATOM      1  C   UNL     1      -6.228  17.163  67.174  0.00  0.00    +0.087 A 
ATOM      2  C   UNL     1      -7.382  17.929  67.157  0.00  0.00    +0.264 A 
ATOM      3  O   UNL     1      -7.371  18.982  66.450  0.00  0.00    -0.267 OA
ATOM      4  N   UNL     1      -8.531  17.500  67.687  0.00  0.00    -0.282 N 
ATOM      5  C   UNL     1      -8.629  16.254  68.206  0.00  0.00    +0.150 A 
ATOM      6  C   UNL     1      -7.584  15.393  67.917  0.00  0.00    +0.050 A 
ATOM      7  C   UNL     1      -7.668  14.083  68.342  0.00  0.00    +0.105 A 
ATOM      8  N   UNL     1      -8.898  13.632  68.658  0.00  0.00    -0.210 NA
ATOM      9  C   UNL     1      -9.863  14.506  69.039  0.00  0.00    +0.244 A 
ATOM     10  N   UNL     1     -11.162  13.927  69.203  0.00  0.00    -0.159 NA
ATOM     11  N   UNL     1      -9.736  15.837  68.868  0.00  0.00    -0.195 NA
ATOM     12  C   UNL     1      -6.332  15.840  67.554  0.00  0.00    -0.010 A 
ATOM     13  C   UNL     1      -5.119  15.065  67.921  0.00  0.00    +0.031 C 
ENDROOT
BRANCH  10  14
ATOM     14  C   UNL     1     -11.606  13.122  68.104  0.00  0.00    +0.155 A 
ATOM     15  N   UNL     1     -11.933  13.660  66.907  0.00  0.00    -0.226 NA
ATOM     16  C   UNL     1     -11.556  13.036  65.764  0.00  0.00    +0.115 A 
ATOM     17  C   UNL     1     -11.069  11.735  65.791  0.00  0.00    +0.067 A 
ATOM     18  C   UNL     1     -11.279  11.057  66.985  0.00  0.00    +0.019 A 
ATOM     19  C   UNL     1     -11.605  11.739  68.151  0.00  0.00    +0.037 A 
BRANCH  17  20
ATOM     20  N   UNL     1     -10.067  11.331  64.853  0.00  0.00    -0.303 N 
ATOM     21  C   UNL     1     -10.070  11.778  63.483  0.00  0.00    +0.110 C 
ATOM     22  C   UNL     1      -9.377  10.821  62.554  0.00  0.00    +0.110 C 
ATOM     23  N   UNL     1      -8.163  10.266  63.103  0.00  0.00    -0.214 NA
ATOM     24  C   UNL     1      -8.344   9.729  64.431  0.00  0.00    +0.110 C 
ATOM     25  C   UNL     1      -8.826  10.789  65.389  0.00  0.00    +0.110 C 
ENDBRANCH  17  20
ENDBRANCH  10  14
BRANCH   4  26
ATOM     26  C   UNL     1      -9.488  18.481  68.159  0.00  0.00    +0.090 C 
ATOM     27  C   UNL     1      -8.892  19.858  68.085  0.00  0.00    +0.023 C 
ATOM     28  C   UNL     1      -9.693  20.642  67.084  0.00  0.00    +0.002 C 
ATOM     29  C   UNL     1     -10.550  19.667  66.328  0.00  0.00    +0.002 C 
ATOM     30  C   UNL     1     -10.658  18.445  67.206  0.00  0.00    +0.023 C 
ENDBRANCH   4  26
BRANCH   1  32
ATOM     31  C   UNL     1      -4.530  17.858  65.439  0.00  0.00    +0.077 C 
ATOM     32  C   UNL     1      -4.940  17.756  66.870  0.00  0.00    +0.178 C 
ATOM     33  O   UNL     1      -4.560  18.708  67.614  0.00  0.00    -0.291 OA
ENDBRANCH   1  32
TORSDOF 4
ENDMDL
