MODEL 1
REMARK VINA RESULT:      -6.3      0.000      0.000
REMARK  Name = 
REMARK  6 active torsions:
REMARK  status: ('A' for Active; 'I' for Inactive)
REMARK    1  A    between atoms: C_7  and  C_8
REMARK    2  A    between atoms: C_13  and  C_14
REMARK    3  A    between atoms: C_21  and  C_22
REMARK    4  A    between atoms: C_23  and  C_24
REMARK    5  A    between atoms: C_24  and  C_25
REMARK    6  A    between atoms: C_30  and  C_31
REMARK                            x       y       z     vdW  Elec       q    Type
REMARK                         _______ _______ _______ _____ _____    ______ ____
ROOT
ATOM      1  C   UNL     1      -9.436   5.974  66.907  0.00  0.00    +0.032 C 
ATOM      2  C   UNL     1      -8.901   6.717  67.888  0.00  0.00    -0.005 C 
ATOM      3  C   UNL     1      -9.460   7.896  68.129  0.00  0.00    +0.124 C 
ATOM      4  C   UNL     1      -9.049   8.848  69.172  0.00  0.00    +0.280 C 
ATOM      5  O   UNL     1      -7.995   8.612  69.796  0.00  0.00    -0.267 OA
ATOM      6  N   UNL     1     -10.100   9.753  69.574  0.00  0.00    -0.191 NA
ATOM      7  C   UNL     1     -11.537   9.093  69.555  0.00  0.00    +0.194 C 
ATOM      8  C   UNL     1     -12.356  10.248  70.337  0.00  0.00    +0.337 C 
ATOM      9  O   UNL     1     -13.386   9.782  70.937  0.00  0.00    -0.248 OA
ATOM     10  O   UNL     1     -12.665  11.120  69.281  0.00  0.00    -0.446 OA
ATOM     11  C   UNL     1     -11.513  12.131  69.459  0.00  0.00    +0.198 C 
ATOM     12  C   UNL     1     -11.863  12.842  68.012  0.00  0.00    +0.113 C 
ATOM     13  C   UNL     1     -11.099  14.072  67.910  0.00  0.00    +0.155 C 
ATOM     14  O   UNL     1     -11.734  14.999  67.393  0.00  0.00    -0.296 OA
ATOM     15  C   UNL     1      -9.773  14.427  68.304  0.00  0.00    +0.074 C 
ATOM     16  C   UNL     1      -8.710  13.216  68.069  0.00  0.00    +0.086 C 
ATOM     17  C   UNL     1      -9.285  12.741  66.656  0.00  0.00    +0.242 C 
ATOM     18  O   UNL     1      -9.748  13.518  65.853  0.00  0.00    -0.273 OA
ATOM     19  N   UNL     1      -8.586  11.587  66.176  0.00  0.00    -0.197 NA
ATOM     20  C   UNL     1      -8.552  10.391  67.191  0.00  0.00    +0.185 C 
ATOM     21  C   UNL     1     -10.054   9.893  66.894  0.00  0.00    +0.266 C 
ATOM     22  O   UNL     1     -10.836  10.620  66.274  0.00  0.00    -0.271 OA
ATOM     23  N   UNL     1     -10.386   8.545  67.250  0.00  0.00    -0.173 NA
ENDROOT
BRANCH   7  24
ATOM     24  C   UNL     1     -11.330   8.325  70.994  0.00  0.00    +0.031 C 
ATOM     25  C   UNL     1     -10.327   9.010  71.798  0.00  0.00    +0.002 C 
ATOM     26  C   UNL     1     -11.383   6.909  70.869  0.00  0.00    +0.002 C 
ENDBRANCH   7  24
BRANCH  16  27
ATOM     27  C   UNL     1      -7.583  14.205  67.416  0.00  0.00    +0.009 C 
ATOM     28  C   UNL     1      -6.303  13.698  68.083  0.00  0.00    +0.001 C 
ATOM     29  C   UNL     1      -7.716  15.580  67.934  0.00  0.00    +0.001 C 
ENDBRANCH  16  27
BRANCH  20  30
ATOM     30  C   UNL     1      -7.918   9.372  66.062  0.00  0.00    +0.100 C 
ATOM     31  S   UNL     1      -6.173   9.150  66.525  0.00  0.00    -0.080 S 
ENDBRANCH  20  30
BRANCH  11  32
ATOM     32  C   UNL     1     -12.429  13.232  70.218  0.00  0.00    +0.013 C 
ATOM     33  C   UNL     1     -12.458  13.299  71.500  0.00  0.00    -0.026 C 
BRANCH  33  34
ATOM     34  C   UNL     1     -13.651  13.667  72.339  0.00  0.00    +0.038 C 
BRANCH  34  35
ATOM     35  C   UNL     1     -13.515  15.169  72.575  0.00  0.00    +0.073 C 
ATOM     36  S   UNL     1     -12.495  15.557  74.004  0.00  0.00    -0.082 S 
ENDBRANCH  34  35
ENDBRANCH  33  34
ENDBRANCH  11  32
TORSDOF 6
ENDMDL
MODEL 2
REMARK VINA RESULT:      -6.1      2.993      7.436
REMARK  Name = 
REMARK  6 active torsions:
REMARK  status: ('A' for Active; 'I' for Inactive)
REMARK    1  A    between atoms: C_7  and  C_8
REMARK    2  A    between atoms: C_13  and  C_14
REMARK    3  A    between atoms: C_21  and  C_22
REMARK    4  A    between atoms: C_23  and  C_24
REMARK    5  A    between atoms: C_24  and  C_25
REMARK    6  A    between atoms: C_30  and  C_31
REMARK                            x       y       z     vdW  Elec       q    Type
REMARK                         _______ _______ _______ _____ _____    ______ ____
ROOT
ATOM      1  C   UNL     1      -6.347  18.620  65.728  0.00  0.00    +0.032 C 
ATOM      2  C   UNL     1      -6.407  18.213  67.005  0.00  0.00    -0.005 C 
ATOM      3  C   UNL     1      -6.969  17.035  67.241  0.00  0.00    +0.124 C 
ATOM      4  C   UNL     1      -7.109  16.394  68.558  0.00  0.00    +0.280 C 
ATOM      5  O   UNL     1      -6.814  17.065  69.568  0.00  0.00    -0.267 OA
ATOM      6  N   UNL     1      -7.243  14.958  68.489  0.00  0.00    -0.191 NA
ATOM      7  C   UNL     1      -6.402  14.305  67.320  0.00  0.00    +0.194 C 
ATOM      8  C   UNL     1      -6.538  12.751  67.749  0.00  0.00    +0.337 C 
ATOM      9  O   UNL     1      -5.552  12.051  67.331  0.00  0.00    -0.248 OA
ATOM     10  O   UNL     1      -7.763  12.414  67.152  0.00  0.00    -0.446 OA
ATOM     11  C   UNL     1      -8.686  12.598  68.375  0.00  0.00    +0.198 C 
ATOM     12  C   UNL     1     -10.030  12.469  67.428  0.00  0.00    +0.113 C 
ATOM     13  C   UNL     1     -11.190  12.349  68.293  0.00  0.00    +0.155 C 
ATOM     14  O   UNL     1     -12.030  11.543  67.874  0.00  0.00    -0.296 OA
ATOM     15  C   UNL     1     -11.542  12.959  69.536  0.00  0.00    +0.074 C 
ATOM     16  C   UNL     1     -11.081  14.520  69.613  0.00  0.00    +0.086 C 
ATOM     17  C   UNL     1     -11.482  14.902  68.114  0.00  0.00    +0.242 C 
ATOM     18  O   UNL     1     -12.437  14.414  67.556  0.00  0.00    -0.273 OA
ATOM     19  N   UNL     1     -11.125  16.256  67.815  0.00  0.00    -0.197 NA
ATOM     20  C   UNL     1      -9.618  16.597  68.090  0.00  0.00    +0.185 C 
ATOM     21  C   UNL     1      -9.055  15.906  66.750  0.00  0.00    +0.266 C 
ATOM     22  O   UNL     1      -9.776  15.146  66.095  0.00  0.00    -0.271 OA
ATOM     23  N   UNL     1      -7.760  16.313  66.290  0.00  0.00    -0.173 NA
ENDROOT
BRANCH   7  24
ATOM     24  C   UNL     1      -4.984  14.366  68.150  0.00  0.00    +0.031 C 
ATOM     25  C   UNL     1      -5.221  14.200  69.578  0.00  0.00    +0.002 C 
ATOM     26  C   UNL     1      -4.087  15.337  67.625  0.00  0.00    +0.002 C 
ENDBRANCH   7  24
BRANCH  16  27
ATOM     27  C   UNL     1     -12.508  15.007  70.248  0.00  0.00    +0.009 C 
ATOM     28  C   UNL     1     -12.046  15.966  71.347  0.00  0.00    +0.001 C 
ATOM     29  C   UNL     1     -13.158  13.916  71.000  0.00  0.00    +0.001 C 
ENDBRANCH  16  27
BRANCH  20  30
ATOM     30  C   UNL     1      -9.753  18.066  67.357  0.00  0.00    +0.100 C 
ATOM     31  S   UNL     1      -9.724  19.291  68.701  0.00  0.00    -0.080 S 
ENDBRANCH  20  30
BRANCH  11  32
ATOM     32  C   UNL     1      -8.771  11.014  68.707  0.00  0.00    +0.013 C 
ATOM     33  C   UNL     1      -8.689  10.136  67.773  0.00  0.00    -0.026 C 
BRANCH  33  34
ATOM     34  C   UNL     1      -9.415   8.819  67.732  0.00  0.00    +0.038 C 
BRANCH  34  35
ATOM     35  C   UNL     1     -10.188   8.838  66.416  0.00  0.00    +0.073 C 
ATOM     36  S   UNL     1      -9.246   9.570  65.071  0.00  0.00    -0.082 S 
ENDBRANCH  34  35
ENDBRANCH  33  34
ENDBRANCH  11  32
TORSDOF 6
ENDMDL
MODEL 3
REMARK VINA RESULT:      -6.0      3.002      6.903
REMARK  Name = 
REMARK  6 active torsions:
REMARK  status: ('A' for Active; 'I' for Inactive)
REMARK    1  A    between atoms: C_7  and  C_8
REMARK    2  A    between atoms: C_13  and  C_14
REMARK    3  A    between atoms: C_21  and  C_22
REMARK    4  A    between atoms: C_23  and  C_24
REMARK    5  A    between atoms: C_24  and  C_25
REMARK    6  A    between atoms: C_30  and  C_31
REMARK                            x       y       z     vdW  Elec       q    Type
REMARK                         _______ _______ _______ _____ _____    ______ ____
ROOT
ATOM      1  C   UNL     1      -4.924  17.947  66.748  0.00  0.00    +0.032 C 
ATOM      2  C   UNL     1      -5.215  17.389  67.932  0.00  0.00    -0.005 C 
ATOM      3  C   UNL     1      -6.024  16.338  67.926  0.00  0.00    +0.124 C 
ATOM      4  C   UNL     1      -6.445  15.566  69.105  0.00  0.00    +0.280 C 
ATOM      5  O   UNL     1      -6.144  16.010  70.231  0.00  0.00    -0.267 OA
ATOM      6  N   UNL     1      -6.852  14.216  68.795  0.00  0.00    -0.191 NA
ATOM      7  C   UNL     1      -6.025  13.566  67.613  0.00  0.00    +0.194 C 
ATOM      8  C   UNL     1      -6.517  12.034  67.773  0.00  0.00    +0.337 C 
ATOM      9  O   UNL     1      -5.647  11.204  67.335  0.00  0.00    -0.248 OA
ATOM     10  O   UNL     1      -7.705  12.054  67.025  0.00  0.00    -0.446 OA
ATOM     11  C   UNL     1      -8.711  12.259  68.176  0.00  0.00    +0.198 C 
ATOM     12  C   UNL     1      -9.932  12.556  67.107  0.00  0.00    +0.113 C 
ATOM     13  C   UNL     1     -11.187  12.568  67.837  0.00  0.00    +0.155 C 
ATOM     14  O   UNL     1     -12.114  12.027  67.222  0.00  0.00    -0.296 OA
ATOM     15  C   UNL     1     -11.556  13.060  69.126  0.00  0.00    +0.074 C 
ATOM     16  C   UNL     1     -10.807  14.459  69.494  0.00  0.00    +0.086 C 
ATOM     17  C   UNL     1     -10.942  15.124  68.047  0.00  0.00    +0.242 C 
ATOM     18  O   UNL     1     -11.902  14.934  67.336  0.00  0.00    -0.273 OA
ATOM     19  N   UNL     1     -10.290  16.397  68.002  0.00  0.00    -0.197 NA
ATOM     20  C   UNL     1      -8.789  16.366  68.459  0.00  0.00    +0.185 C 
ATOM     21  C   UNL     1      -8.219  15.763  67.079  0.00  0.00    +0.266 C 
ATOM     22  O   UNL     1      -8.993  15.275  66.250  0.00  0.00    -0.271 OA
ATOM     23  N   UNL     1      -6.824  15.942  66.805  0.00  0.00    -0.173 NA
ENDROOT
BRANCH   7  24
ATOM     24  C   UNL     1      -4.732  13.205  68.563  0.00  0.00    +0.031 C 
ATOM     25  C   UNL     1      -5.162  12.936  69.929  0.00  0.00    +0.002 C 
ATOM     26  C   UNL     1      -3.592  13.998  68.255  0.00  0.00    +0.002 C 
ENDBRANCH   7  24
BRANCH  16  27
ATOM     27  C   UNL     1     -12.173  15.148  70.072  0.00  0.00    +0.009 C 
ATOM     28  C   UNL     1     -11.630  15.988  71.229  0.00  0.00    +0.001 C 
ATOM     29  C   UNL     1     -13.029  14.152  70.746  0.00  0.00    +0.001 C 
ENDBRANCH  16  27
BRANCH  20  30
ATOM     30  C   UNL     1      -8.541  17.916  67.963  0.00  0.00    +0.100 C 
ATOM     31  S   UNL     1     -10.198  18.613  67.680  0.00  0.00    -0.080 S 
ENDBRANCH  20  30
BRANCH  11  32
ATOM     32  C   UNL     1      -9.149  10.700  68.240  0.00  0.00    +0.013 C 
ATOM     33  C   UNL     1      -9.324  10.107  69.366  0.00  0.00    -0.026 C 
BRANCH  33  34
ATOM     34  C   UNL     1      -9.019   8.664  69.661  0.00  0.00    +0.038 C 
BRANCH  34  35
ATOM     35  C   UNL     1     -10.063   8.246  70.693  0.00  0.00    +0.073 C 
ATOM     36  S   UNL     1     -11.272   9.536  71.017  0.00  0.00    -0.082 S 
ENDBRANCH  34  35
ENDBRANCH  33  34
ENDBRANCH  11  32
TORSDOF 6
ENDMDL
MODEL 4
REMARK VINA RESULT:      -6.0      4.222      8.730
REMARK  Name = 
REMARK  6 active torsions:
REMARK  status: ('A' for Active; 'I' for Inactive)
REMARK    1  A    between atoms: C_7  and  C_8
REMARK    2  A    between atoms: C_13  and  C_14
REMARK    3  A    between atoms: C_21  and  C_22
REMARK    4  A    between atoms: C_23  and  C_24
REMARK    5  A    between atoms: C_24  and  C_25
REMARK    6  A    between atoms: C_30  and  C_31
REMARK                            x       y       z     vdW  Elec       q    Type
REMARK                         _______ _______ _______ _____ _____    ______ ____
ROOT
ATOM      1  C   UNL     1      -6.037  21.112  66.634  0.00  0.00    +0.032 C 
ATOM      2  C   UNL     1      -6.153  20.516  67.830  0.00  0.00    -0.005 C 
ATOM      3  C   UNL     1      -6.477  19.230  67.839  0.00  0.00    +0.124 C 
ATOM      4  C   UNL     1      -6.625  18.385  69.034  0.00  0.00    +0.280 C 
ATOM      5  O   UNL     1      -6.593  18.943  70.150  0.00  0.00    -0.267 OA
ATOM      6  N   UNL     1      -6.445  16.977  68.772  0.00  0.00    -0.191 NA
ATOM      7  C   UNL     1      -5.360  16.680  67.660  0.00  0.00    +0.194 C 
ATOM      8  C   UNL     1      -5.212  15.083  67.872  0.00  0.00    +0.337 C 
ATOM      9  O   UNL     1      -4.060  14.657  67.513  0.00  0.00    -0.248 OA
ATOM     10  O   UNL     1      -6.264  14.609  67.073  0.00  0.00    -0.446 OA
ATOM     11  C   UNL     1      -7.335  14.426  68.168  0.00  0.00    +0.198 C 
ATOM     12  C   UNL     1      -8.508  14.182  67.033  0.00  0.00    +0.113 C 
ATOM     13  C   UNL     1      -9.706  13.713  67.707  0.00  0.00    +0.155 C 
ATOM     14  O   UNL     1     -10.305  12.831  67.079  0.00  0.00    -0.296 OA
ATOM     15  C   UNL     1     -10.315  14.052  68.953  0.00  0.00    +0.074 C 
ATOM     16  C   UNL     1     -10.206  15.642  69.285  0.00  0.00    +0.086 C 
ATOM     17  C   UNL     1     -10.508  16.159  67.804  0.00  0.00    +0.242 C 
ATOM     18  O   UNL     1     -11.270  15.583  67.061  0.00  0.00    -0.273 OA
ATOM     19  N   UNL     1     -10.412  17.585  67.726  0.00  0.00    -0.197 NA
ATOM     20  C   UNL     1      -9.052  18.167  68.249  0.00  0.00    +0.185 C 
ATOM     21  C   UNL     1      -8.210  17.805  66.926  0.00  0.00    +0.266 C 
ATOM     22  O   UNL     1      -8.676  17.026  66.088  0.00  0.00    -0.271 OA
ATOM     23  N   UNL     1      -6.986  18.518  66.705  0.00  0.00    -0.173 NA
ENDROOT
BRANCH   7  24
ATOM     24  C   UNL     1      -4.089  16.890  68.682  0.00  0.00    +0.031 C 
ATOM     25  C   UNL     1      -4.454  16.504  70.038  0.00  0.00    +0.002 C 
ATOM     26  C   UNL     1      -3.343  18.066  68.389  0.00  0.00    +0.002 C 
ENDBRANCH   7  24
BRANCH  16  27
ATOM     27  C   UNL     1     -11.765  15.745  69.770  0.00  0.00    +0.009 C 
ATOM     28  C   UNL     1     -11.612  16.287  71.192  0.00  0.00    +0.001 C 
ATOM     29  C   UNL     1     -12.348  14.405  69.977  0.00  0.00    +0.001 C 
ENDBRANCH  16  27
BRANCH  20  30
ATOM     30  C   UNL     1      -9.411  19.674  67.690  0.00  0.00    +0.100 C 
ATOM     31  S   UNL     1     -10.628  19.429  66.361  0.00  0.00    -0.080 S 
ENDBRANCH  20  30
BRANCH  11  32
ATOM     32  C   UNL     1      -7.122  12.824  68.288  0.00  0.00    +0.013 C 
ATOM     33  C   UNL     1      -6.886  12.108  67.248  0.00  0.00    -0.026 C 
BRANCH  33  34
ATOM     34  C   UNL     1      -7.354  10.696  67.023  0.00  0.00    +0.038 C 
BRANCH  34  35
ATOM     35  C   UNL     1      -7.959  10.703  65.621  0.00  0.00    +0.073 C 
ATOM     36  S   UNL     1      -9.426   9.672  65.496  0.00  0.00    -0.082 S 
ENDBRANCH  34  35
ENDBRANCH  33  34
ENDBRANCH  11  32
TORSDOF 6
ENDMDL
MODEL 5
REMARK VINA RESULT:      -5.8      3.361      5.658
REMARK  Name = 
REMARK  6 active torsions:
REMARK  status: ('A' for Active; 'I' for Inactive)
REMARK    1  A    between atoms: C_7  and  C_8
REMARK    2  A    between atoms: C_13  and  C_14
REMARK    3  A    between atoms: C_21  and  C_22
REMARK    4  A    between atoms: C_23  and  C_24
REMARK    5  A    between atoms: C_24  and  C_25
REMARK    6  A    between atoms: C_30  and  C_31
REMARK                            x       y       z     vdW  Elec       q    Type
REMARK                         _______ _______ _______ _____ _____    ______ ____
ROOT
ATOM      1  C   UNL     1      -5.004   9.559  69.730  0.00  0.00    +0.032 C 
ATOM      2  C   UNL     1      -4.951  10.257  68.586  0.00  0.00    -0.005 C 
ATOM      3  C   UNL     1      -5.913  11.145  68.371  0.00  0.00    +0.124 C 
ATOM      4  C   UNL     1      -6.025  12.029  67.202  0.00  0.00    +0.280 C 
ATOM      5  O   UNL     1      -5.241  11.840  66.249  0.00  0.00    -0.267 OA
ATOM      6  N   UNL     1      -6.801  13.221  67.451  0.00  0.00    -0.191 NA
ATOM      7  C   UNL     1      -6.631  13.784  68.920  0.00  0.00    +0.194 C 
ATOM      8  C   UNL     1      -7.350  15.220  68.724  0.00  0.00    +0.337 C 
ATOM      9  O   UNL     1      -6.906  16.093  69.547  0.00  0.00    -0.248 OA
ATOM     10  O   UNL     1      -8.695  14.877  68.935  0.00  0.00    -0.446 OA
ATOM     11  C   UNL     1      -9.134  14.711  67.465  0.00  0.00    +0.198 C 
ATOM     12  C   UNL     1     -10.568  14.040  67.930  0.00  0.00    +0.113 C 
ATOM     13  C   UNL     1     -11.429  13.949  66.765  0.00  0.00    +0.155 C 
ATOM     14  O   UNL     1     -12.612  14.217  67.010  0.00  0.00    -0.296 OA
ATOM     15  C   UNL     1     -11.180  13.632  65.394  0.00  0.00    +0.074 C 
ATOM     16  C   UNL     1     -10.063  12.458  65.223  0.00  0.00    +0.086 C 
ATOM     17  C   UNL     1     -10.576  11.542  66.427  0.00  0.00    +0.242 C 
ATOM     18  O   UNL     1     -11.747  11.447  66.714  0.00  0.00    -0.273 OA
ATOM     19  N   UNL     1      -9.726  10.404  66.606  0.00  0.00    -0.197 NA
ATOM     20  C   UNL     1      -8.208  10.758  66.786  0.00  0.00    +0.185 C 
ATOM     21  C   UNL     1      -8.334  11.200  68.329  0.00  0.00    +0.266 C 
ATOM     22  O   UNL     1      -9.446  11.405  68.826  0.00  0.00    -0.271 OA
ATOM     23  N   UNL     1      -7.136  11.206  69.115  0.00  0.00    -0.173 NA
ENDROOT
BRANCH   7  24
ATOM     24  C   UNL     1      -5.191  14.509  68.599  0.00  0.00    +0.031 C 
ATOM     25  C   UNL     1      -4.370  14.567  69.801  0.00  0.00    +0.002 C 
ATOM     26  C   UNL     1      -5.321  15.604  67.700  0.00  0.00    +0.002 C 
ENDBRANCH   7  24
BRANCH  16  27
ATOM     27  C   UNL     1     -10.934  11.665  64.087  0.00  0.00    +0.009 C 
ATOM     28  C   UNL     1      -9.868  11.365  63.033  0.00  0.00    +0.001 C 
ATOM     29  C   UNL     1     -11.857  12.580  63.388  0.00  0.00    +0.001 C 
ENDBRANCH  16  27
BRANCH  20  30
ATOM     30  C   UNL     1      -7.830   9.207  67.190  0.00  0.00    +0.100 C 
ATOM     31  S   UNL     1      -8.843   8.156  66.105  0.00  0.00    -0.080 S 
ENDBRANCH  20  30
BRANCH  11  32
ATOM     32  C   UNL     1      -9.846  16.165  67.381  0.00  0.00    +0.013 C 
ATOM     33  C   UNL     1      -9.506  17.017  66.482  0.00  0.00    -0.026 C 
BRANCH  33  34
ATOM     34  C   UNL     1      -9.473  18.512  66.650  0.00  0.00    +0.038 C 
BRANCH  34  35
ATOM     35  C   UNL     1      -9.169  18.734  68.129  0.00  0.00    +0.073 C 
ATOM     36  S   UNL     1      -7.543  19.450  68.403  0.00  0.00    -0.082 S 
ENDBRANCH  34  35
ENDBRANCH  33  34
ENDBRANCH  11  32
TORSDOF 6
ENDMDL
MODEL 6
REMARK VINA RESULT:      -5.8      3.122      5.130
REMARK  Name = 
REMARK  6 active torsions:
REMARK  status: ('A' for Active; 'I' for Inactive)
REMARK    1  A    between atoms: C_7  and  C_8
REMARK    2  A    between atoms: C_13  and  C_14
REMARK    3  A    between atoms: C_21  and  C_22
REMARK    4  A    between atoms: C_23  and  C_24
REMARK    5  A    between atoms: C_24  and  C_25
REMARK    6  A    between atoms: C_30  and  C_31
REMARK                            x       y       z     vdW  Elec       q    Type
REMARK                         _______ _______ _______ _____ _____    ______ ____
ROOT
ATOM      1  C   UNL     1      -6.451   8.005  70.276  0.00  0.00    +0.032 C 
ATOM      2  C   UNL     1      -6.119   8.588  69.114  0.00  0.00    -0.005 C 
ATOM      3  C   UNL     1      -6.740   9.717  68.801  0.00  0.00    +0.124 C 
ATOM      4  C   UNL     1      -6.505  10.526  67.595  0.00  0.00    +0.280 C 
ATOM      5  O   UNL     1      -5.769  10.049  66.707  0.00  0.00    -0.267 OA
ATOM      6  N   UNL     1      -6.878  11.912  67.748  0.00  0.00    -0.191 NA
ATOM      7  C   UNL     1      -6.619  12.475  69.204  0.00  0.00    +0.194 C 
ATOM      8  C   UNL     1      -6.838  14.051  68.908  0.00  0.00    +0.337 C 
ATOM      9  O   UNL     1      -6.187  14.786  69.728  0.00  0.00    -0.248 OA
ATOM     10  O   UNL     1      -8.231  14.157  69.037  0.00  0.00    -0.446 OA
ATOM     11  C   UNL     1      -8.620  14.055  67.548  0.00  0.00    +0.198 C 
ATOM     12  C   UNL     1     -10.215  13.891  67.937  0.00  0.00    +0.113 C 
ATOM     13  C   UNL     1     -10.998  14.008  66.719  0.00  0.00    +0.155 C 
ATOM     14  O   UNL     1     -12.047  14.645  66.873  0.00  0.00    -0.296 OA
ATOM     15  C   UNL     1     -10.787  13.554  65.382  0.00  0.00    +0.074 C 
ATOM     16  C   UNL     1     -10.089  12.083  65.330  0.00  0.00    +0.086 C 
ATOM     17  C   UNL     1     -10.928  11.440  66.528  0.00  0.00    +0.242 C 
ATOM     18  O   UNL     1     -12.083  11.732  66.737  0.00  0.00    -0.273 OA
ATOM     19  N   UNL     1     -10.491  10.106  66.806  0.00  0.00    -0.197 NA
ATOM     20  C   UNL     1      -8.951   9.979  67.077  0.00  0.00    +0.185 C 
ATOM     21  C   UNL     1      -9.014  10.522  68.591  0.00  0.00    +0.266 C 
ATOM     22  O   UNL     1     -10.030  11.092  69.003  0.00  0.00    -0.271 OA
ATOM     23  N   UNL     1      -7.919  10.199  69.457  0.00  0.00    -0.173 NA
ENDROOT
BRANCH   7  24
ATOM     24  C   UNL     1      -5.009  12.696  68.957  0.00  0.00    +0.031 C 
ATOM     25  C   UNL     1      -4.742  12.985  67.554  0.00  0.00    +0.002 C 
ATOM     26  C   UNL     1      -4.213  11.801  69.724  0.00  0.00    +0.002 C 
ENDBRANCH   7  24
BRANCH  16  27
ATOM     27  C   UNL     1     -11.103  11.539  64.166  0.00  0.00    +0.009 C 
ATOM     28  C   UNL     1     -10.122  10.956  63.148  0.00  0.00    +0.001 C 
ATOM     29  C   UNL     1     -11.727  12.659  63.436  0.00  0.00    +0.001 C 
ENDBRANCH  16  27
BRANCH  20  30
ATOM     30  C   UNL     1      -9.103   8.412  67.561  0.00  0.00    +0.100 C 
ATOM     31  S   UNL     1      -8.474   7.407  66.182  0.00  0.00    -0.080 S 
ENDBRANCH  20  30
BRANCH  11  32
ATOM     32  C   UNL     1      -8.832  15.651  67.363  0.00  0.00    +0.013 C 
ATOM     33  C   UNL     1      -9.241  16.381  68.337  0.00  0.00    -0.026 C 
BRANCH  33  34
ATOM     34  C   UNL     1     -10.133  17.588  68.222  0.00  0.00    +0.038 C 
BRANCH  34  35
ATOM     35  C   UNL     1     -10.254  17.844  66.723  0.00  0.00    +0.073 C 
ATOM     36  S   UNL     1     -10.256  19.596  66.318  0.00  0.00    -0.082 S 
ENDBRANCH  34  35
ENDBRANCH  33  34
ENDBRANCH  11  32
TORSDOF 6
ENDMDL
MODEL 7
REMARK VINA RESULT:      -5.7      4.380      8.519
REMARK  Name = 
REMARK  6 active torsions:
REMARK  status: ('A' for Active; 'I' for Inactive)
REMARK    1  A    between atoms: C_7  and  C_8
REMARK    2  A    between atoms: C_13  and  C_14
REMARK    3  A    between atoms: C_21  and  C_22
REMARK    4  A    between atoms: C_23  and  C_24
REMARK    5  A    between atoms: C_24  and  C_25
REMARK    6  A    between atoms: C_30  and  C_31
REMARK                            x       y       z     vdW  Elec       q    Type
REMARK                         _______ _______ _______ _____ _____    ______ ____
ROOT
ATOM      1  C   UNL     1      -6.571  20.373  65.234  0.00  0.00    +0.032 C 
ATOM      2  C   UNL     1      -6.655  20.059  66.536  0.00  0.00    -0.005 C 
ATOM      3  C   UNL     1      -6.852  18.783  66.840  0.00  0.00    +0.124 C 
ATOM      4  C   UNL     1      -6.945  18.224  68.198  0.00  0.00    +0.280 C 
ATOM      5  O   UNL     1      -6.994  19.022  69.155  0.00  0.00    -0.267 OA
ATOM      6  N   UNL     1      -6.621  16.819  68.267  0.00  0.00    -0.191 NA
ATOM      7  C   UNL     1      -5.485  16.386  67.254  0.00  0.00    +0.194 C 
ATOM      8  C   UNL     1      -5.187  14.903  67.827  0.00  0.00    +0.337 C 
ATOM      9  O   UNL     1      -3.991  14.525  67.577  0.00  0.00    -0.248 OA
ATOM     10  O   UNL     1      -6.168  14.155  67.159  0.00  0.00    -0.446 OA
ATOM     11  C   UNL     1      -7.241  14.120  68.266  0.00  0.00    +0.198 C 
ATOM     12  C   UNL     1      -8.357  13.506  67.218  0.00  0.00    +0.113 C 
ATOM     13  C   UNL     1      -9.518  13.085  67.980  0.00  0.00    +0.155 C 
ATOM     14  O   UNL     1     -10.013  12.027  67.572  0.00  0.00    -0.296 OA
ATOM     15  C   UNL     1     -10.188  13.636  69.116  0.00  0.00    +0.074 C 
ATOM     16  C   UNL     1     -10.243  15.264  69.072  0.00  0.00    +0.086 C 
ATOM     17  C   UNL     1     -10.559  15.394  67.512  0.00  0.00    +0.242 C 
ATOM     18  O   UNL     1     -11.244  14.590  66.922  0.00  0.00    -0.273 OA
ATOM     19  N   UNL     1     -10.603  16.767  67.107  0.00  0.00    -0.197 NA
ATOM     20  C   UNL     1      -9.319  17.587  67.483  0.00  0.00    +0.185 C 
ATOM     21  C   UNL     1      -8.414  17.018  66.279  0.00  0.00    +0.266 C 
ATOM     22  O   UNL     1      -8.782  16.026  65.643  0.00  0.00    -0.271 OA
ATOM     23  N   UNL     1      -7.262  17.782  65.900  0.00  0.00    -0.173 NA
ENDROOT
BRANCH   7  24
ATOM     24  C   UNL     1      -4.266  16.952  68.200  0.00  0.00    +0.031 C 
ATOM     25  C   UNL     1      -4.621  16.845  69.609  0.00  0.00    +0.002 C 
ATOM     26  C   UNL     1      -3.637  18.102  67.648  0.00  0.00    +0.002 C 
ENDBRANCH   7  24
BRANCH  16  27
ATOM     27  C   UNL     1     -11.816  15.317  69.520  0.00  0.00    +0.009 C 
ATOM     28  C   UNL     1     -11.745  16.147  70.802  0.00  0.00    +0.001 C 
ATOM     29  C   UNL     1     -12.280  13.998  69.993  0.00  0.00    +0.001 C 
ENDBRANCH  16  27
BRANCH  20  30
ATOM     30  C   UNL     1      -9.811  18.882  66.592  0.00  0.00    +0.100 C 
ATOM     31  S   UNL     1     -10.261  20.166  67.799  0.00  0.00    -0.080 S 
ENDBRANCH  20  30
BRANCH  11  32
ATOM     32  C   UNL     1      -6.874  12.618  68.751  0.00  0.00    +0.013 C 
ATOM     33  C   UNL     1      -6.193  12.416  69.821  0.00  0.00    -0.026 C 
BRANCH  33  34
ATOM     34  C   UNL     1      -5.199  11.308  70.039  0.00  0.00    +0.038 C 
BRANCH  34  35
ATOM     35  C   UNL     1      -4.794  11.427  71.505  0.00  0.00    +0.073 C 
ATOM     36  S   UNL     1      -3.107  10.881  71.804  0.00  0.00    -0.082 S 
ENDBRANCH  34  35
ENDBRANCH  33  34
ENDBRANCH  11  32
TORSDOF 6
ENDMDL
MODEL 8
REMARK VINA RESULT:      -5.4      3.242      7.331
REMARK  Name = 
REMARK  6 active torsions:
REMARK  status: ('A' for Active; 'I' for Inactive)
REMARK    1  A    between atoms: C_7  and  C_8
REMARK    2  A    between atoms: C_13  and  C_14
REMARK    3  A    between atoms: C_21  and  C_22
REMARK    4  A    between atoms: C_23  and  C_24
REMARK    5  A    between atoms: C_24  and  C_25
REMARK    6  A    between atoms: C_30  and  C_31
REMARK                            x       y       z     vdW  Elec       q    Type
REMARK                         _______ _______ _______ _____ _____    ______ ____
ROOT
ATOM      1  C   UNL     1     -12.674  11.404  70.004  0.00  0.00    +0.032 C 
ATOM      2  C   UNL     1     -11.612  12.095  69.563  0.00  0.00    -0.005 C 
ATOM      3  C   UNL     1     -11.054  11.693  68.429  0.00  0.00    +0.124 C 
ATOM      4  C   UNL     1      -9.907  12.324  67.760  0.00  0.00    +0.280 C 
ATOM      5  O   UNL     1      -9.299  13.227  68.372  0.00  0.00    -0.267 OA
ATOM      6  N   UNL     1      -9.844  12.054  66.344  0.00  0.00    -0.191 NA
ATOM      7  C   UNL     1     -11.267  11.955  65.660  0.00  0.00    +0.194 C 
ATOM      8  C   UNL     1     -10.805  11.975  64.110  0.00  0.00    +0.337 C 
ATOM      9  O   UNL     1     -11.717  12.442  63.345  0.00  0.00    -0.248 OA
ATOM     10  O   UNL     1     -10.528  10.616  63.896  0.00  0.00    -0.446 OA
ATOM     11  C   UNL     1      -9.002  10.642  64.116  0.00  0.00    +0.198 C 
ATOM     12  C   UNL     1      -8.937   8.994  64.130  0.00  0.00    +0.113 C 
ATOM     13  C   UNL     1      -7.543   8.590  64.079  0.00  0.00    +0.155 C 
ATOM     14  O   UNL     1      -7.347   7.603  63.360  0.00  0.00    -0.296 OA
ATOM     15  C   UNL     1      -6.357   9.117  64.676  0.00  0.00    +0.074 C 
ATOM     16  C   UNL     1      -6.613   9.661  66.190  0.00  0.00    +0.086 C 
ATOM     17  C   UNL     1      -7.572   8.469  66.652  0.00  0.00    +0.242 C 
ATOM     18  O   UNL     1      -7.424   7.333  66.263  0.00  0.00    -0.273 OA
ATOM     19  N   UNL     1      -8.060   8.686  67.980  0.00  0.00    -0.197 NA
ATOM     20  C   UNL     1      -8.763  10.074  68.186  0.00  0.00    +0.185 C 
ATOM     21  C   UNL     1     -10.152   9.649  67.494  0.00  0.00    +0.266 C 
ATOM     22  O   UNL     1     -10.218   8.617  66.818  0.00  0.00    -0.271 OA
ATOM     23  N   UNL     1     -11.313  10.429  67.806  0.00  0.00    -0.173 NA
ENDROOT
BRANCH   7  24
ATOM     24  C   UNL     1     -11.468  13.585  65.576  0.00  0.00    +0.031 C 
ATOM     25  C   UNL     1     -10.187  14.247  65.362  0.00  0.00    +0.002 C 
ATOM     26  C   UNL     1     -12.437  14.062  66.501  0.00  0.00    +0.002 C 
ENDBRANCH   7  24
BRANCH  16  27
ATOM     27  C   UNL     1      -5.256   8.959  66.774  0.00  0.00    +0.009 C 
ATOM     28  C   UNL     1      -4.726  10.044  67.712  0.00  0.00    +0.001 C 
ATOM     29  C   UNL     1      -4.213   8.868  65.734  0.00  0.00    +0.001 C 
ENDBRANCH  16  27
BRANCH  20  30
ATOM     30  C   UNL     1      -9.300   9.649  69.684  0.00  0.00    +0.100 C 
ATOM     31  S   UNL     1      -7.852   8.973  70.552  0.00  0.00    -0.080 S 
ENDBRANCH  20  30
BRANCH  11  32
ATOM     32  C   UNL     1      -8.646  10.640  62.535  0.00  0.00    +0.013 C 
ATOM     33  C   UNL     1      -9.354   9.971  61.698  0.00  0.00    -0.026 C 
BRANCH  33  34
ATOM     34  C   UNL     1      -8.844   9.279  60.463  0.00  0.00    +0.038 C 
BRANCH  34  35
ATOM     35  C   UNL     1      -9.438   7.874  60.528  0.00  0.00    +0.073 C 
ATOM     36  S   UNL     1     -10.748   7.620  59.323  0.00  0.00    -0.082 S 
ENDBRANCH  34  35
ENDBRANCH  33  34
ENDBRANCH  11  32
TORSDOF 6
ENDMDL
MODEL 9
REMARK VINA RESULT:      -5.3      2.610      3.219
REMARK  Name = 
REMARK  6 active torsions:
REMARK  status: ('A' for Active; 'I' for Inactive)
REMARK    1  A    between atoms: C_7  and  C_8
REMARK    2  A    between atoms: C_13  and  C_14
REMARK    3  A    between atoms: C_21  and  C_22
REMARK    4  A    between atoms: C_23  and  C_24
REMARK    5  A    between atoms: C_24  and  C_25
REMARK    6  A    between atoms: C_30  and  C_31
REMARK                            x       y       z     vdW  Elec       q    Type
REMARK                         _______ _______ _______ _____ _____    ______ ____
ROOT
ATOM      1  C   UNL     1      -4.829   6.059  67.451  0.00  0.00    +0.032 C 
ATOM      2  C   UNL     1      -4.960   7.020  68.378  0.00  0.00    -0.005 C 
ATOM      3  C   UNL     1      -6.133   7.634  68.454  0.00  0.00    +0.124 C 
ATOM      4  C   UNL     1      -6.494   8.690  69.413  0.00  0.00    +0.280 C 
ATOM      5  O   UNL     1      -5.587   9.166  70.126  0.00  0.00    -0.267 OA
ATOM      6  N   UNL     1      -7.915   8.797  69.646  0.00  0.00    -0.191 NA
ATOM      7  C   UNL     1      -8.664   7.404  69.606  0.00  0.00    +0.194 C 
ATOM      8  C   UNL     1     -10.093   7.868  70.204  0.00  0.00    +0.337 C 
ATOM      9  O   UNL     1     -10.705   6.905  70.783  0.00  0.00    -0.248 OA
ATOM     10  O   UNL     1     -10.733   8.328  69.043  0.00  0.00    -0.446 OA
ATOM     11  C   UNL     1     -10.439   9.835  69.185  0.00  0.00    +0.198 C 
ATOM     12  C   UNL     1     -10.972  10.123  67.650  0.00  0.00    +0.113 C 
ATOM     13  C   UNL     1     -11.083  11.558  67.466  0.00  0.00    +0.155 C 
ATOM     14  O   UNL     1     -12.079  11.891  66.812  0.00  0.00    -0.296 OA
ATOM     15  C   UNL     1     -10.285  12.659  67.905  0.00  0.00    +0.074 C 
ATOM     16  C   UNL     1      -8.692  12.322  67.871  0.00  0.00    +0.086 C 
ATOM     17  C   UNL     1      -8.702  11.532  66.482  0.00  0.00    +0.242 C 
ATOM     18  O   UNL     1      -9.439  11.834  65.572  0.00  0.00    -0.273 OA
ATOM     19  N   UNL     1      -7.404  11.010  66.176  0.00  0.00    -0.197 NA
ATOM     20  C   UNL     1      -6.784  10.125  67.313  0.00  0.00    +0.185 C 
ATOM     21  C   UNL     1      -7.649   8.810  66.975  0.00  0.00    +0.266 C 
ATOM     22  O   UNL     1      -8.632   8.889  66.232  0.00  0.00    -0.271 OA
ATOM     23  N   UNL     1      -7.154   7.552  67.453  0.00  0.00    -0.173 NA
ENDROOT
BRANCH   7  24
ATOM     24  C   UNL     1      -8.210   6.985  71.129  0.00  0.00    +0.031 C 
ATOM     25  C   UNL     1      -8.071   8.170  71.965  0.00  0.00    +0.002 C 
ATOM     26  C   UNL     1      -7.270   5.917  71.143  0.00  0.00    +0.002 C 
ENDBRANCH   7  24
BRANCH  16  27
ATOM     27  C   UNL     1      -8.306  13.759  67.189  0.00  0.00    +0.009 C 
ATOM     28  C   UNL     1      -6.937  14.039  67.810  0.00  0.00    +0.001 C 
ATOM     29  C   UNL     1      -9.151  14.846  67.722  0.00  0.00    +0.001 C 
ENDBRANCH  16  27
BRANCH  20  30
ATOM     30  C   UNL     1      -5.543   9.641  66.345  0.00  0.00    +0.100 C 
ATOM     31  S   UNL     1      -4.080  10.550  66.929  0.00  0.00    -0.080 S 
ENDBRANCH  20  30
BRANCH  11  32
ATOM     32  C   UNL     1     -11.911  10.197  69.760  0.00  0.00    +0.013 C 
ATOM     33  C   UNL     1     -12.059  10.684  70.939  0.00  0.00    -0.026 C 
BRANCH  33  34
ATOM     34  C   UNL     1     -13.214  10.417  71.866  0.00  0.00    +0.038 C 
BRANCH  34  35
ATOM     35  C   UNL     1     -13.130   8.925  72.177  0.00  0.00    +0.073 C 
ATOM     36  S   UNL     1     -14.650   8.048  71.784  0.00  0.00    -0.082 S 
ENDBRANCH  34  35
ENDBRANCH  33  34
ENDBRANCH  11  32
TORSDOF 6
ENDMDL
