MODEL 1
REMARK VINA RESULT:      -6.7      0.000      0.000
REMARK  Name = 
REMARK  4 active torsions:
REMARK  status: ('A' for Active; 'I' for Inactive)
REMARK    1  A    between atoms: O_2  and  C_3
REMARK    2  A    between atoms: C_9  and  C_10
REMARK    3  A    between atoms: C_10  and  C_11
REMARK    4  A    between atoms: C_17  and  C_19
REMARK                            x       y       z     vdW  Elec       q    Type
REMARK                         _______ _______ _______ _____ _____    ______ ____
ROOT
ATOM      1  C   UNL     1     -12.045  15.793  71.208  0.00  0.00    +0.139 A 
ATOM      2  C   UNL     1     -11.299  16.295  70.148  0.00  0.00    +0.038 A 
ATOM      3  C   UNL     1     -11.317  15.601  68.945  0.00  0.00    +0.017 A 
ATOM      4  C   UNL     1     -10.758  15.898  67.708  0.00  0.00    +0.003 A 
ATOM      5  C   UNL     1     -10.949  14.736  66.970  0.00  0.00    +0.041 A 
ATOM      6  N   UNL     1     -11.228  13.705  67.794  0.00  0.00    -0.279 N 
ATOM      7  C   UNL     1     -11.035  12.303  67.568  0.00  0.00    +0.264 C 
ATOM      8  O   UNL     1     -12.058  11.563  67.696  0.00  0.00    -0.267 OA
ATOM      9  C   UNL     1     -10.806  14.599  65.487  0.00  0.00    +0.050 C 
ATOM     10  C   UNL     1     -11.672  14.259  68.949  0.00  0.00    +0.066 A 
ATOM     11  C   UNL     1     -12.450  13.748  69.979  0.00  0.00    +0.021 A 
ATOM     12  C   UNL     1     -12.726  14.595  71.040  0.00  0.00    +0.038 A 
ENDROOT
BRANCH   7  13
ATOM     13  C   UNL     1      -9.730  11.795  68.013  0.00  0.00    +0.057 A 
ATOM     14  C   UNL     1      -9.605  10.667  68.798  0.00  0.00    +0.006 A 
ATOM     15  C   UNL     1      -8.346  10.355  69.299  0.00  0.00    +0.012 A 
ATOM     16  C   UNL     1      -7.200  10.955  68.792  0.00  0.00    +0.058 A 
ATOM     17 CL   UNL     1      -5.744  11.103  69.770  0.00  0.00    -0.082 Cl
ATOM     18  C   UNL     1      -7.394  11.760  67.680  0.00  0.00    +0.012 A 
ATOM     19  C   UNL     1      -8.640  12.105  67.207  0.00  0.00    +0.006 A 
ENDBRANCH   7  13
BRANCH   1  21
ATOM     20  C   UNL     1     -12.413  15.575  73.638  0.00  0.00    +0.252 C 
ATOM     21  O   UNL     1     -11.873  16.239  72.516  0.00  0.00    -0.471 OA
ENDBRANCH   1  21
BRANCH   4  22
ATOM     22  C   UNL     1      -9.668  16.879  67.404  0.00  0.00    +0.142 C 
BRANCH  22  23
ATOM     23  C   UNL     1     -10.223  18.118  66.832  0.00  0.00    +0.369 C 
ATOM     24  O   UNL     1     -10.619  18.060  65.491  0.00  0.00    -0.245 OA
ATOM     25  O   UNL     1     -10.991  18.794  67.581  0.00  0.00    -0.245 OA
ENDBRANCH  22  23
ENDBRANCH   4  22
TORSDOF 4
ENDMDL
MODEL 2
REMARK VINA RESULT:      -6.4      2.328      3.175
REMARK  Name = 
REMARK  4 active torsions:
REMARK  status: ('A' for Active; 'I' for Inactive)
REMARK    1  A    between atoms: O_2  and  C_3
REMARK    2  A    between atoms: C_9  and  C_10
REMARK    3  A    between atoms: C_10  and  C_11
REMARK    4  A    between atoms: C_17  and  C_19
REMARK                            x       y       z     vdW  Elec       q    Type
REMARK                         _______ _______ _______ _____ _____    ______ ____
ROOT
ATOM      1  C   UNL     1     -11.928  13.475  69.406  0.00  0.00    +0.139 A 
ATOM      2  C   UNL     1     -11.614  13.951  68.139  0.00  0.00    +0.038 A 
ATOM      3  C   UNL     1     -11.479  13.032  67.106  0.00  0.00    +0.017 A 
ATOM      4  C   UNL     1     -11.265  13.209  65.744  0.00  0.00    +0.003 A 
ATOM      5  C   UNL     1     -11.022  11.923  65.276  0.00  0.00    +0.041 A 
ATOM      6  N   UNL     1     -10.720  11.105  66.306  0.00  0.00    -0.279 N 
ATOM      7  C   UNL     1      -9.966   9.886  66.287  0.00  0.00    +0.264 C 
ATOM      8  O   UNL     1     -10.541   8.859  66.761  0.00  0.00    -0.267 OA
ATOM      9  C   UNL     1     -11.021  11.491  63.844  0.00  0.00    +0.050 C 
ATOM     10  C   UNL     1     -11.212  11.706  67.418  0.00  0.00    +0.066 A 
ATOM     11  C   UNL     1     -11.554  11.201  68.664  0.00  0.00    +0.021 A 
ATOM     12  C   UNL     1     -12.036  12.103  69.599  0.00  0.00    +0.038 A 
ENDROOT
BRANCH   7  13
ATOM     13  C   UNL     1      -8.526  10.065  66.516  0.00  0.00    +0.057 A 
ATOM     14  C   UNL     1      -7.911   9.674  67.689  0.00  0.00    +0.006 A 
ATOM     15  C   UNL     1      -6.579  10.027  67.877  0.00  0.00    +0.012 A 
ATOM     16  C   UNL     1      -5.796  10.475  66.820  0.00  0.00    +0.058 A 
ATOM     17 CL   UNL     1      -4.400  11.510  67.100  0.00  0.00    -0.082 Cl
ATOM     18  C   UNL     1      -6.392  10.408  65.570  0.00  0.00    +0.012 A 
ATOM     19  C   UNL     1      -7.721  10.101  65.384  0.00  0.00    +0.006 A 
ENDBRANCH   7  13
BRANCH   1  21
ATOM     20  C   UNL     1     -12.358  15.556  70.659  0.00  0.00    +0.252 C 
ATOM     21  O   UNL     1     -11.806  14.261  70.548  0.00  0.00    -0.471 OA
ENDBRANCH   1  21
BRANCH   4  22
ATOM     22  C   UNL     1     -10.758  14.433  65.046  0.00  0.00    +0.142 C 
BRANCH  22  23
ATOM     23  C   UNL     1     -11.873  15.226  64.503  0.00  0.00    +0.369 C 
ATOM     24  O   UNL     1     -11.547  16.486  63.988  0.00  0.00    -0.245 OA
ATOM     25  O   UNL     1     -12.747  14.593  63.836  0.00  0.00    -0.245 OA
ENDBRANCH  22  23
ENDBRANCH   4  22
TORSDOF 4
ENDMDL
MODEL 3
REMARK VINA RESULT:      -6.4      3.672      5.229
REMARK  Name = 
REMARK  4 active torsions:
REMARK  status: ('A' for Active; 'I' for Inactive)
REMARK    1  A    between atoms: O_2  and  C_3
REMARK    2  A    between atoms: C_9  and  C_10
REMARK    3  A    between atoms: C_10  and  C_11
REMARK    4  A    between atoms: C_17  and  C_19
REMARK                            x       y       z     vdW  Elec       q    Type
REMARK                         _______ _______ _______ _____ _____    ______ ____
ROOT
ATOM      1  C   UNL     1      -8.474  16.392  66.467  0.00  0.00    +0.139 A 
ATOM      2  C   UNL     1      -9.768  15.899  66.352  0.00  0.00    +0.038 A 
ATOM      3  C   UNL     1     -10.043  14.647  66.887  0.00  0.00    +0.017 A 
ATOM      4  C   UNL     1     -11.236  13.943  67.005  0.00  0.00    +0.003 A 
ATOM      5  C   UNL     1     -10.837  12.683  67.435  0.00  0.00    +0.041 A 
ATOM      6  N   UNL     1      -9.517  12.515  67.213  0.00  0.00    -0.279 N 
ATOM      7  C   UNL     1      -8.788  11.292  67.046  0.00  0.00    +0.264 C 
ATOM      8  O   UNL     1      -7.806  11.108  67.829  0.00  0.00    -0.267 OA
ATOM      9  C   UNL     1     -11.726  11.623  68.003  0.00  0.00    +0.050 C 
ATOM     10  C   UNL     1      -8.995  13.761  67.097  0.00  0.00    +0.066 A 
ATOM     11  C   UNL     1      -7.701  14.237  67.253  0.00  0.00    +0.021 A 
ATOM     12  C   UNL     1      -7.501  15.594  67.055  0.00  0.00    +0.038 A 
ENDROOT
BRANCH   7  13
ATOM     13  C   UNL     1      -8.684  10.839  65.653  0.00  0.00    +0.057 A 
ATOM     14  C   UNL     1      -7.582  10.153  65.180  0.00  0.00    +0.006 A 
ATOM     15  C   UNL     1      -7.503   9.906  63.814  0.00  0.00    +0.012 A 
ATOM     16  C   UNL     1      -8.612  10.052  62.990  0.00  0.00    +0.058 A 
ATOM     17 CL   UNL     1      -8.428  10.390  61.272  0.00  0.00    -0.082 Cl
ATOM     18  C   UNL     1      -9.805  10.319  63.643  0.00  0.00    +0.012 A 
ATOM     19  C   UNL     1      -9.881  10.607  64.987  0.00  0.00    +0.006 A 
ENDBRANCH   7  13
BRANCH   1  21
ATOM     20  C   UNL     1      -6.714  17.997  65.823  0.00  0.00    +0.252 C 
ATOM     21  O   UNL     1      -8.026  17.486  65.730  0.00  0.00    -0.471 OA
ENDBRANCH   1  21
BRANCH   4  22
ATOM     22  C   UNL     1     -12.517  14.178  66.266  0.00  0.00    +0.142 C 
BRANCH  22  23
ATOM     23  C   UNL     1     -12.431  13.656  64.891  0.00  0.00    +0.369 C 
ATOM     24  O   UNL     1     -13.073  12.436  64.648  0.00  0.00    -0.245 OA
ATOM     25  O   UNL     1     -12.539  14.505  63.955  0.00  0.00    -0.245 OA
ENDBRANCH  22  23
ENDBRANCH   4  22
TORSDOF 4
ENDMDL
MODEL 4
REMARK VINA RESULT:      -6.3      2.679      6.214
REMARK  Name = 
REMARK  4 active torsions:
REMARK  status: ('A' for Active; 'I' for Inactive)
REMARK    1  A    between atoms: O_2  and  C_3
REMARK    2  A    between atoms: C_9  and  C_10
REMARK    3  A    between atoms: C_10  and  C_11
REMARK    4  A    between atoms: C_17  and  C_19
REMARK                            x       y       z     vdW  Elec       q    Type
REMARK                         _______ _______ _______ _____ _____    ______ ____
ROOT
ATOM      1  C   UNL     1     -10.730  13.468  64.941  0.00  0.00    +0.139 A 
ATOM      2  C   UNL     1     -10.844  13.053  66.263  0.00  0.00    +0.038 A 
ATOM      3  C   UNL     1     -11.202  13.995  67.219  0.00  0.00    +0.017 A 
ATOM      4  C   UNL     1     -11.477  13.865  68.575  0.00  0.00    +0.003 A 
ATOM      5  C   UNL     1     -11.571  15.178  69.022  0.00  0.00    +0.041 A 
ATOM      6  N   UNL     1     -11.013  16.014  68.122  0.00  0.00    -0.279 N 
ATOM      7  C   UNL     1     -10.465  17.321  68.338  0.00  0.00    +0.264 C 
ATOM      8  O   UNL     1     -10.944  18.259  67.630  0.00  0.00    -0.267 OA
ATOM      9  C   UNL     1     -12.140  15.625  70.331  0.00  0.00    +0.050 C 
ATOM     10  C   UNL     1     -10.995  15.340  66.946  0.00  0.00    +0.066 A 
ATOM     11  C   UNL     1     -10.918  15.780  65.632  0.00  0.00    +0.021 A 
ATOM     12  C   UNL     1     -10.919  14.811  64.642  0.00  0.00    +0.038 A 
ENDROOT
BRANCH   7  13
ATOM     13  C   UNL     1      -9.029  17.327  68.651  0.00  0.00    +0.057 A 
ATOM     14  C   UNL     1      -8.285  16.166  68.726  0.00  0.00    +0.006 A 
ATOM     15  C   UNL     1      -6.975  16.258  69.183  0.00  0.00    +0.012 A 
ATOM     16  C   UNL     1      -6.325  17.483  69.267  0.00  0.00    +0.058 A 
ATOM     17 CL   UNL     1      -4.999  17.732  70.397  0.00  0.00    -0.082 Cl
ATOM     18  C   UNL     1      -7.020  18.561  68.738  0.00  0.00    +0.012 A 
ATOM     19  C   UNL     1      -8.330  18.483  68.324  0.00  0.00    +0.006 A 
ENDBRANCH   7  13
BRANCH   1  21
ATOM     20  C   UNL     1     -10.629  11.455  63.519  0.00  0.00    +0.252 C 
ATOM     21  O   UNL     1     -10.111  12.689  63.968  0.00  0.00    -0.471 OA
ENDBRANCH   1  21
BRANCH   4  22
ATOM     22  C   UNL     1     -11.119  12.726  69.479  0.00  0.00    +0.142 C 
BRANCH  22  23
ATOM     23  C   UNL     1     -12.190  11.716  69.498  0.00  0.00    +0.369 C 
ATOM     24  O   UNL     1     -12.176  10.775  68.462  0.00  0.00    -0.245 OA
ATOM     25  O   UNL     1     -12.507  11.247  70.634  0.00  0.00    -0.245 OA
ENDBRANCH  22  23
ENDBRANCH   4  22
TORSDOF 4
ENDMDL
MODEL 5
REMARK VINA RESULT:      -6.3      2.846      5.921
REMARK  Name = 
REMARK  4 active torsions:
REMARK  status: ('A' for Active; 'I' for Inactive)
REMARK    1  A    between atoms: O_2  and  C_3
REMARK    2  A    between atoms: C_9  and  C_10
REMARK    3  A    between atoms: C_10  and  C_11
REMARK    4  A    between atoms: C_17  and  C_19
REMARK                            x       y       z     vdW  Elec       q    Type
REMARK                         _______ _______ _______ _____ _____    ______ ____
ROOT
ATOM      1  C   UNL     1      -9.177   9.981  67.429  0.00  0.00    +0.139 A 
ATOM      2  C   UNL     1     -10.204  10.590  66.718  0.00  0.00    +0.038 A 
ATOM      3  C   UNL     1     -10.172  11.971  66.569  0.00  0.00    +0.017 A 
ATOM      4  C   UNL     1     -10.990  12.834  65.850  0.00  0.00    +0.003 A 
ATOM      5  C   UNL     1     -10.575  14.098  66.254  0.00  0.00    +0.041 A 
ATOM      6  N   UNL     1      -9.862  14.007  67.396  0.00  0.00    -0.279 N 
ATOM      7  C   UNL     1      -9.650  15.010  68.399  0.00  0.00    +0.264 C 
ATOM      8  O   UNL     1      -8.443  15.285  68.676  0.00  0.00    -0.267 OA
ATOM      9  C   UNL     1     -10.911  15.393  65.584  0.00  0.00    +0.050 C 
ATOM     10  C   UNL     1      -9.426  12.725  67.464  0.00  0.00    +0.066 A 
ATOM     11  C   UNL     1      -8.371  12.145  68.155  0.00  0.00    +0.021 A 
ATOM     12  C   UNL     1      -8.198  10.779  68.008  0.00  0.00    +0.038 A 
ENDROOT
BRANCH   7  13
ATOM     13  C   UNL     1     -10.646  15.000  69.479  0.00  0.00    +0.057 A 
ATOM     14  C   UNL     1     -11.089  16.159  70.085  0.00  0.00    +0.006 A 
ATOM     15  C   UNL     1     -11.909  16.041  71.201  0.00  0.00    +0.012 A 
ATOM     16  C   UNL     1     -12.522  14.836  71.520  0.00  0.00    +0.058 A 
ATOM     17 CL   UNL     1     -12.991  14.467  73.176  0.00  0.00    -0.082 Cl
ATOM     18  C   UNL     1     -12.368  13.825  70.583  0.00  0.00    +0.012 A 
ATOM     19  C   UNL     1     -11.524  13.924  69.500  0.00  0.00    +0.006 A 
ENDBRANCH   7  13
BRANCH   1  21
ATOM     20  C   UNL     1     -10.376   8.154  68.573  0.00  0.00    +0.252 C 
ATOM     21  O   UNL     1      -9.260   8.666  67.876  0.00  0.00    -0.471 OA
ENDBRANCH   1  21
BRANCH   4  22
ATOM     22  C   UNL     1     -12.362  12.566  65.314  0.00  0.00    +0.142 C 
BRANCH  22  23
ATOM     23  C   UNL     1     -12.327  12.374  63.855  0.00  0.00    +0.369 C 
ATOM     24  O   UNL     1     -12.481  13.525  63.073  0.00  0.00    -0.245 OA
ATOM     25  O   UNL     1     -11.475  11.545  63.412  0.00  0.00    -0.245 OA
ENDBRANCH  22  23
ENDBRANCH   4  22
TORSDOF 4
ENDMDL
MODEL 6
REMARK VINA RESULT:      -6.2      2.734      6.102
REMARK  Name = 
REMARK  4 active torsions:
REMARK  status: ('A' for Active; 'I' for Inactive)
REMARK    1  A    between atoms: O_2  and  C_3
REMARK    2  A    between atoms: C_9  and  C_10
REMARK    3  A    between atoms: C_10  and  C_11
REMARK    4  A    between atoms: C_17  and  C_19
REMARK                            x       y       z     vdW  Elec       q    Type
REMARK                         _______ _______ _______ _____ _____    ______ ____
ROOT
ATOM      1  C   UNL     1      -6.803  12.831  67.648  0.00  0.00    +0.139 A 
ATOM      2  C   UNL     1      -7.933  12.093  67.315  0.00  0.00    +0.038 A 
ATOM      3  C   UNL     1      -9.062  12.778  66.882  0.00  0.00    +0.017 A 
ATOM      4  C   UNL     1     -10.283  12.321  66.403  0.00  0.00    +0.003 A 
ATOM      5  C   UNL     1     -11.061  13.470  66.328  0.00  0.00    +0.041 A 
ATOM      6  N   UNL     1     -10.505  14.454  67.064  0.00  0.00    -0.279 N 
ATOM      7  C   UNL     1     -11.141  15.594  67.656  0.00  0.00    +0.264 C 
ATOM      8  O   UNL     1     -10.668  16.730  67.347  0.00  0.00    -0.267 OA
ATOM      9  C   UNL     1     -12.363  13.608  65.603  0.00  0.00    +0.050 C 
ATOM     10  C   UNL     1      -9.200  14.120  67.211  0.00  0.00    +0.066 A 
ATOM     11  C   UNL     1      -8.080  14.883  67.508  0.00  0.00    +0.021 A 
ATOM     12  C   UNL     1      -6.868  14.217  67.590  0.00  0.00    +0.038 A 
ENDROOT
BRANCH   7  13
ATOM     13  C   UNL     1     -11.619  15.372  69.028  0.00  0.00    +0.057 A 
ATOM     14  C   UNL     1     -12.046  14.135  69.469  0.00  0.00    +0.006 A 
ATOM     15  C   UNL     1     -12.628  14.056  70.729  0.00  0.00    +0.012 A 
ATOM     16  C   UNL     1     -12.510  15.095  71.644  0.00  0.00    +0.058 A 
ATOM     17 CL   UNL     1     -13.709  15.329  72.912  0.00  0.00    -0.082 Cl
ATOM     18  C   UNL     1     -11.669  16.129  71.262  0.00  0.00    +0.012 A 
ATOM     19  C   UNL     1     -11.126  16.233  70.001  0.00  0.00    +0.006 A 
ENDBRANCH   7  13
BRANCH   1  21
ATOM     20  C   UNL     1      -5.462  12.583  69.704  0.00  0.00    +0.252 C 
ATOM     21  O   UNL     1      -5.736  12.281  68.352  0.00  0.00    -0.471 OA
ENDBRANCH   1  21
BRANCH   4  22
ATOM     22  C   UNL     1     -10.873  10.952  66.552  0.00  0.00    +0.142 C 
BRANCH  22  23
ATOM     23  C   UNL     1     -11.075  10.620  67.972  0.00  0.00    +0.369 C 
ATOM     24  O   UNL     1     -12.327  10.933  68.512  0.00  0.00    -0.245 OA
ATOM     25  O   UNL     1     -10.588   9.519  68.371  0.00  0.00    -0.245 OA
ENDBRANCH  22  23
ENDBRANCH   4  22
TORSDOF 4
ENDMDL
MODEL 7
REMARK VINA RESULT:      -6.2      2.590      4.751
REMARK  Name = 
REMARK  4 active torsions:
REMARK  status: ('A' for Active; 'I' for Inactive)
REMARK    1  A    between atoms: O_2  and  C_3
REMARK    2  A    between atoms: C_9  and  C_10
REMARK    3  A    between atoms: C_10  and  C_11
REMARK    4  A    between atoms: C_17  and  C_19
REMARK                            x       y       z     vdW  Elec       q    Type
REMARK                         _______ _______ _______ _____ _____    ______ ____
ROOT
ATOM      1  C   UNL     1     -11.912  10.319  69.984  0.00  0.00    +0.139 A 
ATOM      2  C   UNL     1     -12.153  11.547  70.588  0.00  0.00    +0.038 A 
ATOM      3  C   UNL     1     -11.902  12.700  69.855  0.00  0.00    +0.017 A 
ATOM      4  C   UNL     1     -12.127  14.040  70.150  0.00  0.00    +0.003 A 
ATOM      5  C   UNL     1     -11.487  14.718  69.119  0.00  0.00    +0.041 A 
ATOM      6  N   UNL     1     -10.624  13.894  68.489  0.00  0.00    -0.279 N 
ATOM      7  C   UNL     1      -9.456  14.235  67.731  0.00  0.00    +0.264 C 
ATOM      8  O   UNL     1      -9.406  13.796  66.541  0.00  0.00    -0.267 OA
ATOM      9  C   UNL     1     -11.657  16.164  68.775  0.00  0.00    +0.050 C 
ATOM     10  C   UNL     1     -11.032  12.634  68.776  0.00  0.00    +0.066 A 
ATOM     11  C   UNL     1     -10.809  11.423  68.134  0.00  0.00    +0.021 A 
ATOM     12  C   UNL     1     -11.379  10.296  68.702  0.00  0.00    +0.038 A 
ENDROOT
BRANCH   7  13
ATOM     13  C   UNL     1      -8.219  14.290  68.522  0.00  0.00    +0.057 A 
ATOM     14  C   UNL     1      -7.328  13.237  68.573  0.00  0.00    +0.006 A 
ATOM     15  C   UNL     1      -6.269  13.319  69.471  0.00  0.00    +0.012 A 
ATOM     16  C   UNL     1      -5.925  14.525  70.069  0.00  0.00    +0.058 A 
ATOM     17 CL   UNL     1      -5.090  14.563  71.619  0.00  0.00    -0.082 Cl
ATOM     18  C   UNL     1      -6.612  15.636  69.604  0.00  0.00    +0.012 A 
ATOM     19  C   UNL     1      -7.687  15.554  68.749  0.00  0.00    +0.006 A 
ENDBRANCH   7  13
BRANCH   1  21
ATOM     20  C   UNL     1     -12.888   8.700  71.570  0.00  0.00    +0.252 C 
ATOM     21  O   UNL     1     -11.855   9.132  70.709  0.00  0.00    -0.471 OA
ENDBRANCH   1  21
BRANCH   4  22
ATOM     22  C   UNL     1     -12.374  14.655  71.492  0.00  0.00    +0.142 C 
BRANCH  22  23
ATOM     23  C   UNL     1     -13.811  14.652  71.813  0.00  0.00    +0.369 C 
ATOM     24  O   UNL     1     -14.279  13.565  72.559  0.00  0.00    -0.245 OA
ATOM     25  O   UNL     1     -14.324  15.769  72.129  0.00  0.00    -0.245 OA
ENDBRANCH  22  23
ENDBRANCH   4  22
TORSDOF 4
ENDMDL
MODEL 8
REMARK VINA RESULT:      -6.1      3.855      7.539
REMARK  Name = 
REMARK  4 active torsions:
REMARK  status: ('A' for Active; 'I' for Inactive)
REMARK    1  A    between atoms: O_2  and  C_3
REMARK    2  A    between atoms: C_9  and  C_10
REMARK    3  A    between atoms: C_10  and  C_11
REMARK    4  A    between atoms: C_17  and  C_19
REMARK                            x       y       z     vdW  Elec       q    Type
REMARK                         _______ _______ _______ _____ _____    ______ ____
ROOT
ATOM      1  C   UNL     1      -8.505  10.289  63.532  0.00  0.00    +0.139 A 
ATOM      2  C   UNL     1      -8.395  10.266  64.917  0.00  0.00    +0.038 A 
ATOM      3  C   UNL     1      -9.522  10.573  65.670  0.00  0.00    +0.017 A 
ATOM      4  C   UNL     1      -9.741  10.546  67.042  0.00  0.00    +0.003 A 
ATOM      5  C   UNL     1     -10.985  11.148  67.191  0.00  0.00    +0.041 A 
ATOM      6  N   UNL     1     -11.305  11.832  66.073  0.00  0.00    -0.279 N 
ATOM      7  C   UNL     1     -12.199  12.943  65.931  0.00  0.00    +0.264 C 
ATOM      8  O   UNL     1     -13.136  12.811  65.086  0.00  0.00    -0.267 OA
ATOM      9  C   UNL     1     -11.839  11.118  68.419  0.00  0.00    +0.050 C 
ATOM     10  C   UNL     1     -10.542  11.307  65.082  0.00  0.00    +0.066 A 
ATOM     11  C   UNL     1     -10.692  11.311  63.702  0.00  0.00    +0.021 A 
ATOM     12  C   UNL     1      -9.711  10.674  62.961  0.00  0.00    +0.038 A 
ENDROOT
BRANCH   7  13
ATOM     13  C   UNL     1     -11.556  14.256  66.081  0.00  0.00    +0.057 A 
ATOM     14  C   UNL     1     -10.869  14.615  67.224  0.00  0.00    +0.006 A 
ATOM     15  C   UNL     1     -10.432  15.930  67.338  0.00  0.00    +0.012 A 
ATOM     16  C   UNL     1     -10.400  16.776  66.237  0.00  0.00    +0.058 A 
ATOM     17 CL   UNL     1     -10.496  18.523  66.432  0.00  0.00    -0.082 Cl
ATOM     18  C   UNL     1     -10.695  16.179  65.021  0.00  0.00    +0.012 A 
ATOM     19  C   UNL     1     -11.168  14.892  64.908  0.00  0.00    +0.006 A 
ENDBRANCH   7  13
BRANCH   1  21
ATOM     20  C   UNL     1      -7.383  10.856  61.409  0.00  0.00    +0.252 C 
ATOM     21  O   UNL     1      -7.390  10.280  62.698  0.00  0.00    -0.471 OA
ENDBRANCH   1  21
BRANCH   4  22
ATOM     22  C   UNL     1      -8.718  10.522  68.135  0.00  0.00    +0.142 C 
BRANCH  22  23
ATOM     23  C   UNL     1      -8.784   9.257  68.887  0.00  0.00    +0.369 C 
ATOM     24  O   UNL     1      -9.276   9.335  70.194  0.00  0.00    -0.245 OA
ATOM     25  O   UNL     1      -9.163   8.233  68.240  0.00  0.00    -0.245 OA
ENDBRANCH  22  23
ENDBRANCH   4  22
TORSDOF 4
ENDMDL
MODEL 9
REMARK VINA RESULT:      -6.0      3.089      5.219
REMARK  Name = 
REMARK  4 active torsions:
REMARK  status: ('A' for Active; 'I' for Inactive)
REMARK    1  A    between atoms: O_2  and  C_3
REMARK    2  A    between atoms: C_9  and  C_10
REMARK    3  A    between atoms: C_10  and  C_11
REMARK    4  A    between atoms: C_17  and  C_19
REMARK                            x       y       z     vdW  Elec       q    Type
REMARK                         _______ _______ _______ _____ _____    ______ ____
ROOT
ATOM      1  C   UNL     1      -6.193  16.460  67.110  0.00  0.00    +0.139 A 
ATOM      2  C   UNL     1      -7.349  17.214  67.272  0.00  0.00    +0.038 A 
ATOM      3  C   UNL     1      -8.414  16.645  67.959  0.00  0.00    +0.017 A 
ATOM      4  C   UNL     1      -9.638  17.174  68.350  0.00  0.00    +0.003 A 
ATOM      5  C   UNL     1     -10.342  16.069  68.817  0.00  0.00    +0.041 A 
ATOM      6  N   UNL     1      -9.761  14.932  68.381  0.00  0.00    -0.279 N 
ATOM      7  C   UNL     1     -10.352  13.639  68.201  0.00  0.00    +0.264 C 
ATOM      8  O   UNL     1      -9.798  12.674  68.811  0.00  0.00    -0.267 OA
ATOM      9  C   UNL     1     -11.599  16.102  69.627  0.00  0.00    +0.050 C 
ATOM     10  C   UNL     1      -8.485  15.263  68.061  0.00  0.00    +0.066 A 
ATOM     11  C   UNL     1      -7.335  14.495  67.942  0.00  0.00    +0.021 A 
ATOM     12  C   UNL     1      -6.171  15.156  67.589  0.00  0.00    +0.038 A 
ENDROOT
BRANCH   7  13
ATOM     13  C   UNL     1     -10.903  13.410  66.858  0.00  0.00    +0.057 A 
ATOM     14  C   UNL     1     -12.050  14.038  66.415  0.00  0.00    +0.006 A 
ATOM     15  C   UNL     1     -12.582  13.640  65.193  0.00  0.00    +0.012 A 
ATOM     16  C   UNL     1     -11.841  12.876  64.299  0.00  0.00    +0.058 A 
ATOM     17 CL   UNL     1     -12.633  11.840  63.118  0.00  0.00    -0.082 Cl
ATOM     18  C   UNL     1     -10.516  12.668  64.653  0.00  0.00    +0.012 A 
ATOM     19  C   UNL     1      -9.998  13.022  65.878  0.00  0.00    +0.006 A 
ENDBRANCH   7  13
BRANCH   1  21
ATOM     20  C   UNL     1      -5.250  17.975  65.406  0.00  0.00    +0.252 C 
ATOM     21  O   UNL     1      -5.193  16.815  66.209  0.00  0.00    -0.471 OA
ENDBRANCH   1  21
BRANCH   4  22
ATOM     22  C   UNL     1     -10.316  18.404  67.830  0.00  0.00    +0.142 C 
BRANCH  22  23
ATOM     23  C   UNL     1     -10.212  18.478  66.363  0.00  0.00    +0.369 C 
ATOM     24  O   UNL     1     -10.584  17.330  65.655  0.00  0.00    -0.245 OA
ATOM     25  O   UNL     1     -10.569  19.569  65.824  0.00  0.00    -0.245 OA
ENDBRANCH  22  23
ENDBRANCH   4  22
TORSDOF 4
ENDMDL
