MODEL 1
REMARK VINA RESULT:      -5.8      0.000      0.000
REMARK  Name = 
REMARK  3 active torsions:
REMARK  status: ('A' for Active; 'I' for Inactive)
REMARK    1  A    between atoms: C_2  and  C_4
REMARK    2  A    between atoms: N_12  and  O_13
REMARK    3  A    between atoms: O_13  and  S_14
REMARK                            x       y       z     vdW  Elec       q    Type
REMARK                         _______ _______ _______ _____ _____    ______ ____
ROOT
ATOM      1  C   UNL     1      -9.696  18.212  66.702  0.00  0.00    +0.157 C 
ATOM      2  N   UNL     1      -9.481  16.970  65.754  0.00  0.00    -0.254 N 
ATOM      3  C   UNL     1     -10.544  16.284  65.063  0.00  0.00    +0.332 C 
ATOM      4  N   UNL     1     -10.904  15.101  65.744  0.00  0.00    -0.129 N 
ATOM      5  C   UNL     1      -9.869  14.937  66.927  0.00  0.00    +0.127 C 
ATOM      6  C   UNL     1     -10.460  16.093  67.897  0.00  0.00    +0.026 C 
ATOM      7  O   UNL     1     -11.385  16.885  64.323  0.00  0.00    -0.250 OA
ATOM      8  C   UNL     1      -8.729  15.882  66.218  0.00  0.00    +0.118 C 
ATOM      9  C   UNL     1     -10.761  17.347  67.598  0.00  0.00    +0.031 C 
ENDROOT
BRANCH   1  11
ATOM     10  N   UNL     1      -7.943  17.831  67.540  0.00  0.00    -0.086 NA
ATOM     11  C   UNL     1      -8.453  17.872  67.684  0.00  0.00    +0.279 C 
ATOM     12  O   UNL     1      -8.642  18.405  68.824  0.00  0.00    -0.270 OA
ENDBRANCH   1  11
BRANCH   4  13
ATOM     13  O   UNL     1     -10.962  13.962  64.982  0.00  0.00    -0.137 OA
BRANCH  13  14
ATOM     14  S   UNL     1     -12.381  13.158  65.095  0.00  0.00    +0.020 S 
ATOM     15  O   UNL     1     -12.762  12.303  63.687  0.00  0.00    -0.267 OA
ATOM     16  O   UNL     1     -12.233  12.087  66.157  0.00  0.00    -0.343 OA
ATOM     17  O   UNL     1     -13.522  14.031  65.485  0.00  0.00    -0.343 OA
ENDBRANCH  13  14
ENDBRANCH   4  13
TORSDOF 3
ENDMDL
MODEL 2
REMARK VINA RESULT:      -5.5      2.931      5.513
REMARK  Name = 
REMARK  3 active torsions:
REMARK  status: ('A' for Active; 'I' for Inactive)
REMARK    1  A    between atoms: C_2  and  C_4
REMARK    2  A    between atoms: N_12  and  O_13
REMARK    3  A    between atoms: O_13  and  S_14
REMARK                            x       y       z     vdW  Elec       q    Type
REMARK                         _______ _______ _______ _____ _____    ______ ____
ROOT
ATOM      1  C   UNL     1     -11.818  12.203  65.481  0.00  0.00    +0.157 C 
ATOM      2  N   UNL     1     -10.578  13.141  65.745  0.00  0.00    -0.254 N 
ATOM      3  C   UNL     1     -10.463  14.036  66.869  0.00  0.00    +0.332 C 
ATOM      4  N   UNL     1     -10.784  15.359  66.492  0.00  0.00    -0.129 N 
ATOM      5  C   UNL     1     -10.994  15.337  64.926  0.00  0.00    +0.127 C 
ATOM      6  C   UNL     1     -12.442  14.608  64.910  0.00  0.00    +0.026 C 
ATOM      7  O   UNL     1     -10.611  13.653  68.072  0.00  0.00    -0.250 OA
ATOM      8  C   UNL     1     -10.117  13.965  64.709  0.00  0.00    +0.118 C 
ATOM      9  C   UNL     1     -12.815  13.501  65.533  0.00  0.00    +0.031 C 
ENDROOT
BRANCH   1  11
ATOM     10  N   UNL     1     -11.306  12.035  63.576  0.00  0.00    -0.086 NA
ATOM     11  C   UNL     1     -11.699  12.243  63.866  0.00  0.00    +0.279 C 
ATOM     12  O   UNL     1     -12.855  12.140  63.343  0.00  0.00    -0.270 OA
ENDBRANCH   1  11
BRANCH   4  13
ATOM     13  O   UNL     1      -9.876  16.323  66.851  0.00  0.00    -0.137 OA
BRANCH  13  14
ATOM     14  S   UNL     1     -10.422  17.359  67.991  0.00  0.00    +0.020 S 
ATOM     15  O   UNL     1     -11.541  16.647  69.041  0.00  0.00    -0.267 OA
ATOM     16  O   UNL     1      -9.257  17.736  68.883  0.00  0.00    -0.343 OA
ATOM     17  O   UNL     1     -10.985  18.615  67.423  0.00  0.00    -0.343 OA
ENDBRANCH  13  14
ENDBRANCH   4  13
TORSDOF 3
ENDMDL
MODEL 3
REMARK VINA RESULT:      -5.4      2.656      5.333
REMARK  Name = 
REMARK  3 active torsions:
REMARK  status: ('A' for Active; 'I' for Inactive)
REMARK    1  A    between atoms: C_2  and  C_4
REMARK    2  A    between atoms: N_12  and  O_13
REMARK    3  A    between atoms: O_13  and  S_14
REMARK                            x       y       z     vdW  Elec       q    Type
REMARK                         _______ _______ _______ _____ _____    ______ ____
ROOT
ATOM      1  C   UNL     1     -11.454  13.506  64.480  0.00  0.00    +0.157 C 
ATOM      2  N   UNL     1     -11.879  14.722  65.391  0.00  0.00    -0.254 N 
ATOM      3  C   UNL     1     -11.297  16.038  65.307  0.00  0.00    +0.332 C 
ATOM      4  N   UNL     1     -10.333  16.227  66.321  0.00  0.00    -0.129 N 
ATOM      5  C   UNL     1     -10.398  14.944  67.241  0.00  0.00    +0.127 C 
ATOM      6  C   UNL     1      -9.651  13.915  66.236  0.00  0.00    +0.026 C 
ATOM      7  O   UNL     1     -11.227  16.692  64.218  0.00  0.00    -0.250 OA
ATOM      8  C   UNL     1     -11.924  14.547  66.780  0.00  0.00    +0.118 C 
ATOM      9  C   UNL     1      -9.898  13.689  64.954  0.00  0.00    +0.031 C 
ENDROOT
BRANCH   1  11
ATOM     10  N   UNL     1     -12.235  12.230  65.778  0.00  0.00    -0.086 NA
ATOM     11  C   UNL     1     -11.757  12.368  65.593  0.00  0.00    +0.279 C 
ATOM     12  O   UNL     1     -10.941  11.401  65.458  0.00  0.00    -0.270 OA
ENDBRANCH   1  11
BRANCH   4  13
ATOM     13  O   UNL     1     -10.461  17.372  67.066  0.00  0.00    -0.137 OA
BRANCH  13  14
ATOM     14  S   UNL     1      -9.405  18.551  66.660  0.00  0.00    +0.020 S 
ATOM     15  O   UNL     1      -8.555  19.155  67.991  0.00  0.00    -0.267 OA
ATOM     16  O   UNL     1      -8.336  17.944  65.775  0.00  0.00    -0.343 OA
ATOM     17  O   UNL     1     -10.036  19.672  65.908  0.00  0.00    -0.343 OA
ENDBRANCH  13  14
ENDBRANCH   4  13
TORSDOF 3
ENDMDL
MODEL 4
REMARK VINA RESULT:      -5.4      3.004      4.391
REMARK  Name = 
REMARK  3 active torsions:
REMARK  status: ('A' for Active; 'I' for Inactive)
REMARK    1  A    between atoms: C_2  and  C_4
REMARK    2  A    between atoms: N_12  and  O_13
REMARK    3  A    between atoms: O_13  and  S_14
REMARK                            x       y       z     vdW  Elec       q    Type
REMARK                         _______ _______ _______ _____ _____    ______ ____
ROOT
ATOM      1  C   UNL     1     -10.248  14.663  64.816  0.00  0.00    +0.157 C 
ATOM      2  N   UNL     1      -9.930  14.540  66.356  0.00  0.00    -0.254 N 
ATOM      3  C   UNL     1      -9.927  13.296  67.085  0.00  0.00    +0.332 C 
ATOM      4  N   UNL     1     -11.132  13.132  67.804  0.00  0.00    -0.129 N 
ATOM      5  C   UNL     1     -11.942  14.477  67.627  0.00  0.00    +0.127 C 
ATOM      6  C   UNL     1     -12.415  14.249  66.094  0.00  0.00    +0.026 C 
ATOM      7  O   UNL     1      -9.250  12.284  66.718  0.00  0.00    -0.250 OA
ATOM      8  C   UNL     1     -10.611  15.367  67.259  0.00  0.00    +0.118 C 
ATOM      9  C   UNL     1     -11.680  13.905  65.046  0.00  0.00    +0.031 C 
ENDROOT
BRANCH   1  11
ATOM     10  N   UNL     1     -10.670  16.577  65.100  0.00  0.00    -0.086 NA
ATOM     11  C   UNL     1     -10.908  16.140  64.914  0.00  0.00    +0.279 C 
ATOM     12  O   UNL     1     -11.680  16.337  63.923  0.00  0.00    -0.270 OA
ENDBRANCH   1  11
BRANCH   4  13
ATOM     13  O   UNL     1     -11.002  12.808  69.130  0.00  0.00    -0.137 OA
BRANCH  13  14
ATOM     14  S   UNL     1     -11.432  11.272  69.485  0.00  0.00    +0.020 S 
ATOM     15  O   UNL     1     -12.393  11.166  70.873  0.00  0.00    -0.267 OA
ATOM     16  O   UNL     1     -12.322  10.761  68.371  0.00  0.00    -0.343 OA
ATOM     17  O   UNL     1     -10.270  10.347  69.600  0.00  0.00    -0.343 OA
ENDBRANCH  13  14
ENDBRANCH   4  13
TORSDOF 3
ENDMDL
MODEL 5
REMARK VINA RESULT:      -5.4      4.871      8.048
REMARK  Name = 
REMARK  3 active torsions:
REMARK  status: ('A' for Active; 'I' for Inactive)
REMARK    1  A    between atoms: C_2  and  C_4
REMARK    2  A    between atoms: N_12  and  O_13
REMARK    3  A    between atoms: O_13  and  S_14
REMARK                            x       y       z     vdW  Elec       q    Type
REMARK                         _______ _______ _______ _____ _____    ______ ____
ROOT
ATOM      1  C   UNL     1      -7.256  19.287  65.889  0.00  0.00    +0.157 C 
ATOM      2  N   UNL     1      -7.522  20.110  67.208  0.00  0.00    -0.254 N 
ATOM      3  C   UNL     1      -6.518  20.880  67.899  0.00  0.00    +0.332 C 
ATOM      4  N   UNL     1      -6.015  20.167  69.010  0.00  0.00    -0.129 N 
ATOM      5  C   UNL     1      -6.886  18.853  69.126  0.00  0.00    +0.127 C 
ATOM      6  C   UNL     1      -6.241  18.051  67.874  0.00  0.00    +0.026 C 
ATOM      7  O   UNL     1      -5.808  21.762  67.322  0.00  0.00    -0.250 OA
ATOM      8  C   UNL     1      -8.153  19.477  68.288  0.00  0.00    +0.118 C 
ATOM      9  C   UNL     1      -6.045  18.475  66.635  0.00  0.00    +0.031 C 
ENDROOT
BRANCH   1  11
ATOM     10  N   UNL     1      -8.876  18.191  66.193  0.00  0.00    -0.086 NA
ATOM     11  C   UNL     1      -8.349  18.134  66.204  0.00  0.00    +0.279 C 
ATOM     12  O   UNL     1      -7.928  17.010  65.781  0.00  0.00    -0.270 OA
ENDBRANCH   1  11
BRANCH   4  13
ATOM     13  O   UNL     1      -5.992  20.847  70.200  0.00  0.00    -0.137 OA
BRANCH  13  14
ATOM     14  S   UNL     1      -4.540  20.827  70.950  0.00  0.00    +0.020 S 
ATOM     15  O   UNL     1      -4.379  19.534  72.029  0.00  0.00    -0.267 OA
ATOM     16  O   UNL     1      -3.472  20.580  69.905  0.00  0.00    -0.343 OA
ATOM     17  O   UNL     1      -4.216  22.107  71.639  0.00  0.00    -0.343 OA
ENDBRANCH  13  14
ENDBRANCH   4  13
TORSDOF 3
ENDMDL
MODEL 6
REMARK VINA RESULT:      -5.4      2.652      5.327
REMARK  Name = 
REMARK  3 active torsions:
REMARK  status: ('A' for Active; 'I' for Inactive)
REMARK    1  A    between atoms: C_2  and  C_4
REMARK    2  A    between atoms: N_12  and  O_13
REMARK    3  A    between atoms: O_13  and  S_14
REMARK                            x       y       z     vdW  Elec       q    Type
REMARK                         _______ _______ _______ _____ _____    ______ ____
ROOT
ATOM      1  C   UNL     1     -11.483  13.446  64.549  0.00  0.00    +0.157 C 
ATOM      2  N   UNL     1     -11.866  14.695  65.432  0.00  0.00    -0.254 N 
ATOM      3  C   UNL     1     -11.289  16.007  65.274  0.00  0.00    +0.332 C 
ATOM      4  N   UNL     1     -10.281  16.231  66.238  0.00  0.00    -0.129 N 
ATOM      5  C   UNL     1     -10.306  14.983  67.206  0.00  0.00    +0.127 C 
ATOM      6  C   UNL     1      -9.604  13.916  66.207  0.00  0.00    +0.026 C 
ATOM      7  O   UNL     1     -11.267  16.620  64.161  0.00  0.00    -0.250 OA
ATOM      8  C   UNL     1     -11.850  14.571  66.828  0.00  0.00    +0.118 C 
ATOM      9  C   UNL     1      -9.907  13.644  64.946  0.00  0.00    +0.031 C 
ENDROOT
BRANCH   1  11
ATOM     10  N   UNL     1     -12.204  12.228  65.933  0.00  0.00    -0.086 NA
ATOM     11  C   UNL     1     -11.736  12.351  65.715  0.00  0.00    +0.279 C 
ATOM     12  O   UNL     1     -10.948  11.363  65.561  0.00  0.00    -0.270 OA
ENDBRANCH   1  11
BRANCH   4  13
ATOM     13  O   UNL     1     -10.376  17.402  66.945  0.00  0.00    -0.137 OA
BRANCH  13  14
ATOM     14  S   UNL     1      -9.111  18.414  66.730  0.00  0.00    +0.020 S 
ATOM     15  O   UNL     1      -7.938  17.782  65.688  0.00  0.00    -0.267 OA
ATOM     16  O   UNL     1      -9.613  19.655  66.022  0.00  0.00    -0.343 OA
ATOM     17  O   UNL     1      -8.477  18.844  68.007  0.00  0.00    -0.343 OA
ENDBRANCH  13  14
ENDBRANCH   4  13
TORSDOF 3
ENDMDL
MODEL 7
REMARK VINA RESULT:      -5.3      3.182      5.360
REMARK  Name = 
REMARK  3 active torsions:
REMARK  status: ('A' for Active; 'I' for Inactive)
REMARK    1  A    between atoms: C_2  and  C_4
REMARK    2  A    between atoms: N_12  and  O_13
REMARK    3  A    between atoms: O_13  and  S_14
REMARK                            x       y       z     vdW  Elec       q    Type
REMARK                         _______ _______ _______ _____ _____    ______ ____
ROOT
ATOM      1  C   UNL     1     -10.527  12.914  64.092  0.00  0.00    +0.157 C 
ATOM      2  N   UNL     1     -10.872  14.302  64.756  0.00  0.00    -0.254 N 
ATOM      3  C   UNL     1     -10.252  14.800  65.959  0.00  0.00    +0.332 C 
ATOM      4  N   UNL     1     -11.088  14.593  67.078  0.00  0.00    -0.129 N 
ATOM      5  C   UNL     1     -12.450  14.024  66.516  0.00  0.00    +0.127 C 
ATOM      6  C   UNL     1     -11.939  12.523  66.179  0.00  0.00    +0.026 C 
ATOM      7  O   UNL     1      -8.991  14.883  66.100  0.00  0.00    -0.250 OA
ATOM      8  C   UNL     1     -12.213  14.623  65.005  0.00  0.00    +0.118 C 
ATOM      9  C   UNL     1     -10.863  12.151  65.501  0.00  0.00    +0.031 C 
ENDROOT
BRANCH   1  11
ATOM     10  N   UNL     1     -12.267  12.971  63.148  0.00  0.00    -0.086 NA
ATOM     11  C   UNL     1     -12.011  12.659  63.493  0.00  0.00    +0.279 C 
ATOM     12  O   UNL     1     -12.202  11.412  63.323  0.00  0.00    -0.270 OA
ENDBRANCH   1  11
BRANCH   4  13
ATOM     13  O   UNL     1     -11.306  15.687  67.876  0.00  0.00    -0.137 OA
BRANCH  13  14
ATOM     14  S   UNL     1     -11.174  15.380  69.476  0.00  0.00    +0.020 S 
ATOM     15  O   UNL     1     -11.615  13.798  69.877  0.00  0.00    -0.267 OA
ATOM     16  O   UNL     1      -9.711  15.471  69.856  0.00  0.00    -0.343 OA
ATOM     17  O   UNL     1     -11.925  16.347  70.324  0.00  0.00    -0.343 OA
ENDBRANCH  13  14
ENDBRANCH   4  13
TORSDOF 3
ENDMDL
MODEL 8
REMARK VINA RESULT:      -5.3      4.963      8.120
REMARK  Name = 
REMARK  3 active torsions:
REMARK  status: ('A' for Active; 'I' for Inactive)
REMARK    1  A    between atoms: C_2  and  C_4
REMARK    2  A    between atoms: N_12  and  O_13
REMARK    3  A    between atoms: O_13  and  S_14
REMARK                            x       y       z     vdW  Elec       q    Type
REMARK                         _______ _______ _______ _____ _____    ______ ____
ROOT
ATOM      1  C   UNL     1      -7.468  17.233  67.583  0.00  0.00    +0.157 C 
ATOM      2  N   UNL     1      -6.050  17.852  67.891  0.00  0.00    -0.254 N 
ATOM      3  C   UNL     1      -5.586  18.195  69.213  0.00  0.00    +0.332 C 
ATOM      4  N   UNL     1      -5.717  19.581  69.447  0.00  0.00    -0.129 N 
ATOM      5  C   UNL     1      -6.190  20.220  68.082  0.00  0.00    +0.127 C 
ATOM      6  C   UNL     1      -7.728  19.711  68.122  0.00  0.00    +0.026 C 
ATOM      7  O   UNL     1      -5.596  17.371  70.182  0.00  0.00    -0.250 OA
ATOM      8  C   UNL     1      -5.628  18.976  67.169  0.00  0.00    +0.118 C 
ATOM      9  C   UNL     1      -8.187  18.489  68.347  0.00  0.00    +0.031 C 
ENDROOT
BRANCH   1  11
ATOM     10  N   UNL     1      -7.298  17.837  65.705  0.00  0.00    -0.086 NA
ATOM     11  C   UNL     1      -7.618  17.915  66.122  0.00  0.00    +0.279 C 
ATOM     12  O   UNL     1      -8.849  18.043  65.827  0.00  0.00    -0.270 OA
ENDBRANCH   1  11
BRANCH   4  13
ATOM     13  O   UNL     1      -4.601  20.218  69.926  0.00  0.00    -0.137 OA
BRANCH  13  14
ATOM     14  S   UNL     1      -4.746  20.745  71.467  0.00  0.00    +0.020 S 
ATOM     15  O   UNL     1      -3.570  20.095  72.494  0.00  0.00    -0.267 OA
ATOM     16  O   UNL     1      -4.477  22.235  71.484  0.00  0.00    -0.343 OA
ATOM     17  O   UNL     1      -6.102  20.520  72.040  0.00  0.00    -0.343 OA
ENDBRANCH  13  14
ENDBRANCH   4  13
TORSDOF 3
ENDMDL
MODEL 9
REMARK VINA RESULT:      -5.3      2.791      5.284
REMARK  Name = 
REMARK  3 active torsions:
REMARK  status: ('A' for Active; 'I' for Inactive)
REMARK    1  A    between atoms: C_2  and  C_4
REMARK    2  A    between atoms: N_12  and  O_13
REMARK    3  A    between atoms: O_13  and  S_14
REMARK                            x       y       z     vdW  Elec       q    Type
REMARK                         _______ _______ _______ _____ _____    ______ ____
ROOT
ATOM      1  C   UNL     1     -12.068  13.272  67.568  0.00  0.00    +0.157 C 
ATOM      2  N   UNL     1     -10.859  14.223  67.913  0.00  0.00    -0.254 N 
ATOM      3  C   UNL     1     -10.953  15.660  67.982  0.00  0.00    +0.332 C 
ATOM      4  N   UNL     1     -10.465  16.253  66.797  0.00  0.00    -0.129 N 
ATOM      5  C   UNL     1      -9.866  15.078  65.926  0.00  0.00    +0.127 C 
ATOM      6  C   UNL     1     -11.269  14.427  65.441  0.00  0.00    +0.026 C 
ATOM      7  O   UNL     1     -11.816  16.261  68.697  0.00  0.00    -0.250 OA
ATOM      8  C   UNL     1      -9.656  14.076  67.211  0.00  0.00    +0.118 C 
ATOM      9  C   UNL     1     -12.320  14.091  66.173  0.00  0.00    +0.031 C 
ENDROOT
BRANCH   1  11
ATOM     10  N   UNL     1     -10.821  11.811  67.085  0.00  0.00    -0.086 NA
ATOM     11  C   UNL     1     -11.167  12.136  66.846  0.00  0.00    +0.279 C 
ATOM     12  O   UNL     1     -11.822  11.602  65.894  0.00  0.00    -0.270 OA
ENDBRANCH   1  11
BRANCH   4  13
ATOM     13  O   UNL     1      -9.547  17.258  66.961  0.00  0.00    -0.137 OA
BRANCH  13  14
ATOM     14  S   UNL     1     -10.095  18.737  66.532  0.00  0.00    +0.020 S 
ATOM     15  O   UNL     1      -8.847  19.818  66.170  0.00  0.00    -0.267 OA
ATOM     16  O   UNL     1     -10.862  18.598  65.233  0.00  0.00    -0.343 OA
ATOM     17  O   UNL     1     -11.012  19.338  67.540  0.00  0.00    -0.343 OA
ENDBRANCH  13  14
ENDBRANCH   4  13
TORSDOF 3
ENDMDL
