MODEL 1
REMARK VINA RESULT:      -7.6      0.000      0.000
REMARK  Name = 
REMARK  0 active torsions:
REMARK  status: ('A' for Active; 'I' for Inactive)
REMARK                            x       y       z     vdW  Elec       q    Type
REMARK                         _______ _______ _______ _____ _____    ______ ____
ROOT
ATOM      1 CL   UNL     1      -9.608   8.213  70.845  0.00  0.00    -0.082 Cl
ATOM      2  C   UNL     1     -11.008   9.246  70.581  0.00  0.00    +0.058 A 
ATOM      3  C   UNL     1     -10.915  10.418  69.841  0.00  0.00    +0.022 A 
ATOM      4  C   UNL     1     -11.730  11.497  70.144  0.00  0.00    +0.117 A 
ATOM      5  C   UNL     1     -11.198  12.685  69.464  0.00  0.00    +0.327 C 
ATOM      6  N   UNL     1     -11.592  13.889  69.695  0.00  0.00    -0.037 NA
ATOM      7  C   UNL     1     -12.265  14.492  70.797  0.00  0.00    +0.227 A 
ATOM      8  C   UNL     1     -13.046  13.813  71.724  0.00  0.00    +0.188 A 
ATOM      9  O   UNL     1     -13.368  12.452  71.733  0.00  0.00    -0.449 OA
ATOM     10  C   UNL     1     -13.276  14.441  72.942  0.00  0.00    +0.041 A 
ATOM     11  C   UNL     1     -12.525  15.527  73.368  0.00  0.00    +0.003 A 
ATOM     12  C   UNL     1     -11.993  16.324  72.363  0.00  0.00    +0.004 A 
ATOM     13  C   UNL     1     -11.732  15.727  71.141  0.00  0.00    +0.050 A 
ATOM     14  N   UNL     1     -10.801  12.409  68.115  0.00  0.00    -0.188 N 
ATOM     15  C   UNL     1     -11.907  12.205  67.183  0.00  0.00    +0.221 C 
ATOM     16  C   UNL     1     -11.495  12.533  65.757  0.00  0.00    +0.140 C 
ATOM     17  N   UNL     1     -10.098  12.188  65.601  0.00  0.00    -0.209 NA
ATOM     18  C   UNL     1      -9.716  11.077  66.468  0.00  0.00    +0.140 C 
ATOM     19  C   UNL     1      -9.621  11.595  67.897  0.00  0.00    +0.221 C 
ATOM     20  C   UNL     1     -12.771  11.380  71.060  0.00  0.00    +0.153 A 
ATOM     21  C   UNL     1     -12.926  10.176  71.739  0.00  0.00    +0.039 A 
ATOM     22  C   UNL     1     -12.177   9.094  71.316  0.00  0.00    +0.015 A 
ENDROOT
TORSDOF 0
ENDMDL
MODEL 2
REMARK VINA RESULT:      -7.6      1.921      5.351
REMARK  Name = 
REMARK  0 active torsions:
REMARK  status: ('A' for Active; 'I' for Inactive)
REMARK                            x       y       z     vdW  Elec       q    Type
REMARK                         _______ _______ _______ _____ _____    ______ ____
ROOT
ATOM      1 CL   UNL     1     -13.584   9.434  72.138  0.00  0.00    -0.082 Cl
ATOM      2  C   UNL     1     -12.286  10.315  71.338  0.00  0.00    +0.058 A 
ATOM      3  C   UNL     1     -12.451  11.631  70.927  0.00  0.00    +0.022 A 
ATOM      4  C   UNL     1     -11.780  12.097  69.807  0.00  0.00    +0.117 A 
ATOM      5  C   UNL     1     -12.386  13.372  69.401  0.00  0.00    +0.327 C 
ATOM      6  N   UNL     1     -12.142  13.969  68.287  0.00  0.00    -0.037 NA
ATOM      7  C   UNL     1     -11.619  13.514  67.041  0.00  0.00    +0.227 A 
ATOM      8  C   UNL     1     -10.839  12.377  66.870  0.00  0.00    +0.188 A 
ATOM      9  O   UNL     1     -10.374  11.505  67.860  0.00  0.00    -0.449 OA
ATOM     10  C   UNL     1     -10.767  11.844  65.589  0.00  0.00    +0.041 A 
ATOM     11  C   UNL     1     -11.659  12.200  64.588  0.00  0.00    +0.003 A 
ATOM     12  C   UNL     1     -12.199  13.476  64.687  0.00  0.00    +0.004 A 
ATOM     13  C   UNL     1     -12.305  14.031  65.950  0.00  0.00    +0.050 A 
ATOM     14  N   UNL     1     -12.652  14.230  70.519  0.00  0.00    -0.188 N 
ATOM     15  C   UNL     1     -11.466  14.830  71.123  0.00  0.00    +0.221 C 
ATOM     16  C   UNL     1     -11.806  16.132  71.832  0.00  0.00    +0.140 C 
ATOM     17  N   UNL     1     -13.142  16.013  72.374  0.00  0.00    -0.209 NA
ATOM     18  C   UNL     1     -13.465  14.632  72.719  0.00  0.00    +0.140 C 
ATOM     19  C   UNL     1     -13.719  13.862  71.429  0.00  0.00    +0.221 C 
ATOM     20  C   UNL     1     -10.802  11.331  69.180  0.00  0.00    +0.153 A 
ATOM     21  C   UNL     1     -10.569  10.041  69.647  0.00  0.00    +0.039 A 
ATOM     22  C   UNL     1     -11.165   9.667  70.836  0.00  0.00    +0.015 A 
ENDROOT
TORSDOF 0
ENDMDL
MODEL 3
REMARK VINA RESULT:      -7.4      3.475      4.828
REMARK  Name = 
REMARK  0 active torsions:
REMARK  status: ('A' for Active; 'I' for Inactive)
REMARK                            x       y       z     vdW  Elec       q    Type
REMARK                         _______ _______ _______ _____ _____    ______ ____
ROOT
ATOM      1 CL   UNL     1      -7.090  13.216  67.243  0.00  0.00    -0.082 Cl
ATOM      2  C   UNL     1      -8.773  13.727  67.316  0.00  0.00    +0.058 A 
ATOM      3  C   UNL     1      -9.139  14.932  67.902  0.00  0.00    +0.022 A 
ATOM      4  C   UNL     1     -10.368  15.053  68.530  0.00  0.00    +0.117 A 
ATOM      5  C   UNL     1     -10.355  16.276  69.343  0.00  0.00    +0.327 C 
ATOM      6  N   UNL     1     -11.256  16.579  70.211  0.00  0.00    -0.037 NA
ATOM      7  C   UNL     1     -12.220  15.800  70.917  0.00  0.00    +0.227 A 
ATOM      8  C   UNL     1     -12.700  14.563  70.508  0.00  0.00    +0.188 A 
ATOM      9  O   UNL     1     -12.391  13.875  69.329  0.00  0.00    -0.449 OA
ATOM     10  C   UNL     1     -13.288  13.758  71.476  0.00  0.00    +0.041 A 
ATOM     11  C   UNL     1     -13.131  13.998  72.833  0.00  0.00    +0.003 A 
ATOM     12  C   UNL     1     -12.918  15.324  73.190  0.00  0.00    +0.004 A 
ATOM     13  C   UNL     1     -12.315  16.151  72.257  0.00  0.00    +0.050 A 
ATOM     14  N   UNL     1      -9.760  17.383  68.653  0.00  0.00    -0.188 N 
ATOM     15  C   UNL     1     -10.578  17.943  67.581  0.00  0.00    +0.221 C 
ATOM     16  C   UNL     1     -10.228  19.401  67.324  0.00  0.00    +0.140 C 
ATOM     17  N   UNL     1      -8.815  19.576  67.578  0.00  0.00    -0.209 NA
ATOM     18  C   UNL     1      -8.061  18.357  67.302  0.00  0.00    +0.140 C 
ATOM     19  C   UNL     1      -8.329  17.363  68.425  0.00  0.00    +0.221 C 
ATOM     20  C   UNL     1     -11.328  14.049  68.437  0.00  0.00    +0.153 A 
ATOM     21  C   UNL     1     -10.997  12.874  67.772  0.00  0.00    +0.039 A 
ATOM     22  C   UNL     1      -9.815  12.847  67.055  0.00  0.00    +0.015 A 
ENDROOT
TORSDOF 0
ENDMDL
MODEL 4
REMARK VINA RESULT:      -7.3      3.412      4.606
REMARK  Name = 
REMARK  0 active torsions:
REMARK  status: ('A' for Active; 'I' for Inactive)
REMARK                            x       y       z     vdW  Elec       q    Type
REMARK                         _______ _______ _______ _____ _____    ______ ____
ROOT
ATOM      1 CL   UNL     1     -11.016  11.136  69.940  0.00  0.00    -0.082 Cl
ATOM      2  C   UNL     1     -11.664  12.632  69.276  0.00  0.00    +0.058 A 
ATOM      3  C   UNL     1     -11.270  13.101  68.029  0.00  0.00    +0.022 A 
ATOM      4  C   UNL     1     -11.229  14.464  67.783  0.00  0.00    +0.117 A 
ATOM      5  C   UNL     1     -10.467  14.689  66.547  0.00  0.00    +0.327 C 
ATOM      6  N   UNL     1     -10.064  15.843  66.144  0.00  0.00    -0.037 NA
ATOM      7  C   UNL     1      -9.855  17.084  66.815  0.00  0.00    +0.227 A 
ATOM      8  C   UNL     1     -10.455  17.454  68.012  0.00  0.00    +0.188 A 
ATOM      9  O   UNL     1     -11.399  16.734  68.752  0.00  0.00    -0.449 OA
ATOM     10  C   UNL     1      -9.848  18.472  68.737  0.00  0.00    +0.041 A 
ATOM     11  C   UNL     1      -8.551  18.892  68.481  0.00  0.00    +0.003 A 
ATOM     12  C   UNL     1      -8.113  18.731  67.173  0.00  0.00    +0.004 A 
ATOM     13  C   UNL     1      -8.680  17.712  66.426  0.00  0.00    +0.050 A 
ATOM     14  N   UNL     1     -10.813  13.756  65.515  0.00  0.00    -0.188 N 
ATOM     15  C   UNL     1     -12.122  13.978  64.907  0.00  0.00    +0.221 C 
ATOM     16  C   UNL     1     -12.177  13.419  63.494  0.00  0.00    +0.140 C 
ATOM     17  N   UNL     1     -11.337  12.242  63.443  0.00  0.00    -0.209 NA
ATOM     18  C   UNL     1     -11.285  11.559  64.732  0.00  0.00    +0.140 C 
ATOM     19  C   UNL     1     -10.405  12.374  65.671  0.00  0.00    +0.221 C 
ATOM     20  C   UNL     1     -11.744  15.379  68.696  0.00  0.00    +0.153 A 
ATOM     21  C   UNL     1     -12.224  14.905  69.912  0.00  0.00    +0.039 A 
ATOM     22  C   UNL     1     -12.364  13.538  70.062  0.00  0.00    +0.015 A 
ENDROOT
TORSDOF 0
ENDMDL
MODEL 5
REMARK VINA RESULT:      -7.2      2.769      4.260
REMARK  Name = 
REMARK  0 active torsions:
REMARK  status: ('A' for Active; 'I' for Inactive)
REMARK                            x       y       z     vdW  Elec       q    Type
REMARK                         _______ _______ _______ _____ _____    ______ ____
ROOT
ATOM      1 CL   UNL     1     -12.600  12.356  64.004  0.00  0.00    -0.082 Cl
ATOM      2  C   UNL     1     -11.758  13.028  65.396  0.00  0.00    +0.058 A 
ATOM      3  C   UNL     1     -11.521  12.270  66.535  0.00  0.00    +0.022 A 
ATOM      4  C   UNL     1     -11.480  12.880  67.778  0.00  0.00    +0.117 A 
ATOM      5  C   UNL     1     -11.565  11.837  68.810  0.00  0.00    +0.327 C 
ATOM      6  N   UNL     1     -11.760  12.069  70.061  0.00  0.00    -0.037 NA
ATOM      7  C   UNL     1     -12.301  13.185  70.765  0.00  0.00    +0.227 A 
ATOM      8  C   UNL     1     -12.359  14.484  70.277  0.00  0.00    +0.188 A 
ATOM      9  O   UNL     1     -11.863  14.961  69.060  0.00  0.00    -0.449 OA
ATOM     10  C   UNL     1     -13.268  15.347  70.877  0.00  0.00    +0.041 A 
ATOM     11  C   UNL     1     -14.297  14.891  71.688  0.00  0.00    +0.003 A 
ATOM     12  C   UNL     1     -14.051  13.701  72.361  0.00  0.00    +0.004 A 
ATOM     13  C   UNL     1     -13.166  12.808  71.784  0.00  0.00    +0.050 A 
ATOM     14  N   UNL     1     -10.740  10.704  68.509  0.00  0.00    -0.188 N 
ATOM     15  C   UNL     1      -9.307  10.935  68.669  0.00  0.00    +0.221 C 
ATOM     16  C   UNL     1      -8.567   9.636  68.948  0.00  0.00    +0.140 C 
ATOM     17  N   UNL     1      -9.244   8.571  68.240  0.00  0.00    -0.209 NA
ATOM     18  C   UNL     1      -9.886   9.055  67.022  0.00  0.00    +0.140 C 
ATOM     19  C   UNL     1     -11.131   9.838  67.415  0.00  0.00    +0.221 C 
ATOM     20  C   UNL     1     -11.492  14.266  67.903  0.00  0.00    +0.153 A 
ATOM     21  C   UNL     1     -11.638  15.035  66.754  0.00  0.00    +0.039 A 
ATOM     22  C   UNL     1     -11.547  14.394  65.532  0.00  0.00    +0.015 A 
ENDROOT
TORSDOF 0
ENDMDL
MODEL 6
REMARK VINA RESULT:      -7.0      3.205      6.613
REMARK  Name = 
REMARK  0 active torsions:
REMARK  status: ('A' for Active; 'I' for Inactive)
REMARK                            x       y       z     vdW  Elec       q    Type
REMARK                         _______ _______ _______ _____ _____    ______ ____
ROOT
ATOM      1 CL   UNL     1      -8.790  17.934  68.939  0.00  0.00    -0.082 Cl
ATOM      2  C   UNL     1     -10.143  16.961  68.371  0.00  0.00    +0.058 A 
ATOM      3  C   UNL     1     -10.740  16.008  69.184  0.00  0.00    +0.022 A 
ATOM      4  C   UNL     1     -11.294  14.867  68.624  0.00  0.00    +0.117 A 
ATOM      5  C   UNL     1     -11.534  13.893  69.698  0.00  0.00    +0.327 C 
ATOM      6  N   UNL     1     -11.846  12.660  69.501  0.00  0.00    -0.037 NA
ATOM      7  C   UNL     1     -11.693  11.790  68.381  0.00  0.00    +0.227 A 
ATOM      8  C   UNL     1     -11.545  12.204  67.064  0.00  0.00    +0.188 A 
ATOM      9  O   UNL     1     -11.574  13.513  66.573  0.00  0.00    -0.449 OA
ATOM     10  C   UNL     1     -10.995  11.293  66.171  0.00  0.00    +0.041 A 
ATOM     11  C   UNL     1     -10.323  10.155  66.593  0.00  0.00    +0.003 A 
ATOM     12  C   UNL     1     -10.722   9.641  67.820  0.00  0.00    +0.004 A 
ATOM     13  C   UNL     1     -11.256  10.523  68.743  0.00  0.00    +0.050 A 
ATOM     14  N   UNL     1     -12.102  14.499  70.866  0.00  0.00    -0.188 N 
ATOM     15  C   UNL     1     -13.500  14.896  70.729  0.00  0.00    +0.221 C 
ATOM     16  C   UNL     1     -14.198  14.935  72.080  0.00  0.00    +0.140 C 
ATOM     17  N   UNL     1     -13.230  15.342  73.075  0.00  0.00    -0.209 NA
ATOM     18  C   UNL     1     -12.209  16.218  72.508  0.00  0.00    +0.140 C 
ATOM     19  C   UNL     1     -11.264  15.371  71.666  0.00  0.00    +0.221 C 
ATOM     20  C   UNL     1     -11.427  14.731  67.246  0.00  0.00    +0.153 A 
ATOM     21  C   UNL     1     -10.910  15.729  66.427  0.00  0.00    +0.039 A 
ATOM     22  C   UNL     1     -10.484  16.900  67.026  0.00  0.00    +0.015 A 
ENDROOT
TORSDOF 0
ENDMDL
MODEL 7
REMARK VINA RESULT:      -6.9      4.405      5.983
REMARK  Name = 
REMARK  0 active torsions:
REMARK  status: ('A' for Active; 'I' for Inactive)
REMARK                            x       y       z     vdW  Elec       q    Type
REMARK                         _______ _______ _______ _____ _____    ______ ____
ROOT
ATOM      1 CL   UNL     1      -5.313  16.278  69.229  0.00  0.00    -0.082 Cl
ATOM      2  C   UNL     1      -6.800  15.745  68.453  0.00  0.00    +0.058 A 
ATOM      3  C   UNL     1      -7.959  16.509  68.505  0.00  0.00    +0.022 A 
ATOM      4  C   UNL     1      -9.199  15.890  68.503  0.00  0.00    +0.117 A 
ATOM      5  C   UNL     1     -10.210  16.876  68.908  0.00  0.00    +0.327 C 
ATOM      6  N   UNL     1     -11.427  16.584  69.208  0.00  0.00    -0.037 NA
ATOM      7  C   UNL     1     -12.060  15.372  69.612  0.00  0.00    +0.227 A 
ATOM      8  C   UNL     1     -11.571  14.096  69.364  0.00  0.00    +0.188 A 
ATOM      9  O   UNL     1     -10.425  13.747  68.642  0.00  0.00    -0.449 OA
ATOM     10  C   UNL     1     -12.054  13.066  70.162  0.00  0.00    +0.041 A 
ATOM     11  C   UNL     1     -12.730  13.303  71.349  0.00  0.00    +0.003 A 
ATOM     12  C   UNL     1     -13.427  14.503  71.417  0.00  0.00    +0.004 A 
ATOM     13  C   UNL     1     -12.963  15.559  70.651  0.00  0.00    +0.050 A 
ATOM     14  N   UNL     1     -10.013  18.149  68.280  0.00  0.00    -0.188 N 
ATOM     15  C   UNL     1     -10.350  18.187  66.860  0.00  0.00    +0.221 C 
ATOM     16  C   UNL     1     -10.718  19.595  66.417  0.00  0.00    +0.140 C 
ATOM     17  N   UNL     1      -9.930  20.530  67.191  0.00  0.00    -0.209 NA
ATOM     18  C   UNL     1      -8.641  19.962  67.575  0.00  0.00    +0.140 C 
ATOM     19  C   UNL     1      -8.877  18.951  68.690  0.00  0.00    +0.221 C 
ATOM     20  C   UNL     1      -9.323  14.524  68.269  0.00  0.00    +0.153 A 
ATOM     21  C   UNL     1      -8.166  13.767  68.126  0.00  0.00    +0.039 A 
ATOM     22  C   UNL     1      -6.964  14.440  68.008  0.00  0.00    +0.015 A 
ENDROOT
TORSDOF 0
ENDMDL
MODEL 8
REMARK VINA RESULT:      -6.7      3.168      5.001
REMARK  Name = 
REMARK  0 active torsions:
REMARK  status: ('A' for Active; 'I' for Inactive)
REMARK                            x       y       z     vdW  Elec       q    Type
REMARK                         _______ _______ _______ _____ _____    ______ ____
ROOT
ATOM      1 CL   UNL     1     -12.813  12.176  63.504  0.00  0.00    -0.082 Cl
ATOM      2  C   UNL     1     -11.951  12.563  64.989  0.00  0.00    +0.058 A 
ATOM      3  C   UNL     1     -11.128  11.635  65.612  0.00  0.00    +0.022 A 
ATOM      4  C   UNL     1     -10.984  11.649  66.990  0.00  0.00    +0.117 A 
ATOM      5  C   UNL     1     -10.361  10.385  67.405  0.00  0.00    +0.327 C 
ATOM      6  N   UNL     1     -10.274   9.986  68.626  0.00  0.00    -0.037 NA
ATOM      7  C   UNL     1     -10.991  10.332  69.810  0.00  0.00    +0.227 A 
ATOM      8  C   UNL     1     -11.688  11.518  70.003  0.00  0.00    +0.188 A 
ATOM      9  O   UNL     1     -11.780  12.605  69.128  0.00  0.00    -0.449 OA
ATOM     10  C   UNL     1     -12.656  11.529  70.999  0.00  0.00    +0.041 A 
ATOM     11  C   UNL     1     -13.152  10.362  71.563  0.00  0.00    +0.003 A 
ATOM     12  C   UNL     1     -12.281   9.280  71.572  0.00  0.00    +0.004 A 
ATOM     13  C   UNL     1     -11.315   9.225  70.582  0.00  0.00    +0.050 A 
ATOM     14  N   UNL     1      -9.277  10.005  66.549  0.00  0.00    -0.188 N 
ATOM     15  C   UNL     1      -8.067  10.808  66.703  0.00  0.00    +0.221 C 
ATOM     16  C   UNL     1      -6.830  10.030  66.282  0.00  0.00    +0.140 C 
ATOM     17  N   UNL     1      -7.203   9.144  65.200  0.00  0.00    -0.209 NA
ATOM     18  C   UNL     1      -8.295   9.694  64.403  0.00  0.00    +0.140 C 
ATOM     19  C   UNL     1      -9.585   9.563  65.203  0.00  0.00    +0.221 C 
ATOM     20  C   UNL     1     -11.505  12.686  67.759  0.00  0.00    +0.153 A 
ATOM     21  C   UNL     1     -12.255  13.670  67.125  0.00  0.00    +0.039 A 
ATOM     22  C   UNL     1     -12.265  13.686  65.743  0.00  0.00    +0.015 A 
ENDROOT
TORSDOF 0
ENDMDL
MODEL 9
REMARK VINA RESULT:      -6.5      2.874      6.239
REMARK  Name = 
REMARK  0 active torsions:
REMARK  status: ('A' for Active; 'I' for Inactive)
REMARK                            x       y       z     vdW  Elec       q    Type
REMARK                         _______ _______ _______ _____ _____    ______ ____
ROOT
ATOM      1 CL   UNL     1      -9.621  16.840  67.310  0.00  0.00    -0.082 Cl
ATOM      2  C   UNL     1     -10.828  15.559  67.346  0.00  0.00    +0.058 A 
ATOM      3  C   UNL     1     -11.162  14.912  68.529  0.00  0.00    +0.022 A 
ATOM      4  C   UNL     1     -11.555  13.583  68.506  0.00  0.00    +0.117 A 
ATOM      5  C   UNL     1     -11.511  13.063  69.879  0.00  0.00    +0.327 C 
ATOM      6  N   UNL     1     -11.615  11.817  70.186  0.00  0.00    -0.037 NA
ATOM      7  C   UNL     1     -11.420  10.617  69.439  0.00  0.00    +0.227 A 
ATOM      8  C   UNL     1     -11.480  10.520  68.055  0.00  0.00    +0.188 A 
ATOM      9  O   UNL     1     -11.790  11.533  67.142  0.00  0.00    -0.449 OA
ATOM     10  C   UNL     1     -10.867   9.420  67.469  0.00  0.00    +0.041 A 
ATOM     11  C   UNL     1      -9.963   8.622  68.157  0.00  0.00    +0.003 A 
ATOM     12  C   UNL     1     -10.141   8.560  69.533  0.00  0.00    +0.004 A 
ATOM     13  C   UNL     1     -10.731   9.647  70.154  0.00  0.00    +0.050 A 
ATOM     14  N   UNL     1     -12.059  13.984  70.830  0.00  0.00    -0.188 N 
ATOM     15  C   UNL     1     -13.513  14.116  70.783  0.00  0.00    +0.221 C 
ATOM     16  C   UNL     1     -14.069  14.569  72.124  0.00  0.00    +0.140 C 
ATOM     17  N   UNL     1     -13.096  15.443  72.743  0.00  0.00    -0.209 NA
ATOM     18  C   UNL     1     -12.309  16.166  71.748  0.00  0.00    +0.140 C 
ATOM     19  C   UNL     1     -11.316  15.194  71.124  0.00  0.00    +0.221 C 
ATOM     20  C   UNL     1     -11.798  12.923  67.305  0.00  0.00    +0.153 A 
ATOM     21  C   UNL     1     -11.551  13.598  66.115  0.00  0.00    +0.039 A 
ATOM     22  C   UNL     1     -11.284  14.952  66.183  0.00  0.00    +0.015 A 
ENDROOT
TORSDOF 0
ENDMDL
