MODEL 1
REMARK VINA RESULT:      -6.0      0.000      0.000
REMARK  Name = 
REMARK  28 active torsions:
REMARK  status: ('A' for Active; 'I' for Inactive)
REMARK    1  A    between atoms: C_2  and  C_4
REMARK    2  A    between atoms: C_4  and  O_5
REMARK    3  A    between atoms: O_5  and  C_6
REMARK    4  A    between atoms: C_6  and  C_7
REMARK    5  A    between atoms: C_9  and  O_10
REMARK    6  A    between atoms: O_10  and  C_11
REMARK    7  A    between atoms: C_12  and  O_13
REMARK    8  A    between atoms: O_13  and  C_14
REMARK    9  A    between atoms: C_14  and  C_15
REMARK   10  A    between atoms: C_18  and  O_19
REMARK   11  A    between atoms: O_19  and  C_20
REMARK   12  A    between atoms: C_20  and  C_21
REMARK   13  A    between atoms: C_24  and  O_25
REMARK   14  A    between atoms: O_25  and  C_26
REMARK   15  A    between atoms: C_26  and  C_27
REMARK   16  A    between atoms: C_31  and  C_32
REMARK   17  A    between atoms: C_32  and  O_33
REMARK   18  A    between atoms: O_33  and  C_34
REMARK   19  A    between atoms: C_34  and  C_35
REMARK   20  A    between atoms: C_38  and  O_39
REMARK   21  A    between atoms: O_39  and  C_40
REMARK   22  A    between atoms: C_40  and  C_41
REMARK   23  A    between atoms: C_44  and  O_45
REMARK   24  A    between atoms: O_45  and  C_46
REMARK   25  A    between atoms: C_46  and  C_47
REMARK   26  A    between atoms: C_50  and  O_51
REMARK   27  A    between atoms: O_51  and  C_52
REMARK   28  A    between atoms: C_52  and  C_53
REMARK                            x       y       z     vdW  Elec       q    Type
REMARK                         _______ _______ _______ _____ _____    ______ ____
ROOT
ATOM      1  O   UNL     1      -9.833  11.624  68.564  0.00  0.00    -0.326 OA
ENDROOT
BRANCH   1   2
ATOM      2  C   UNL     1     -10.055  10.335  67.852  0.00  0.00    +0.177 C 
ATOM      3  C   UNL     1     -10.552   9.427  69.228  0.00  0.00    +0.177 C 
ATOM      4  O   UNL     1      -9.330   9.542  70.075  0.00  0.00    -0.326 OA
ATOM      5  C   UNL     1      -8.613   8.221  69.820  0.00  0.00    +0.266 C 
ATOM      6  C   UNL     1      -8.992   8.192  68.137  0.00  0.00    +0.201 C 
ATOM      7  C   UNL     1      -8.439   9.758  67.722  0.00  0.00    +0.177 C 
BRANCH   3   8
ATOM      8  C   UNL     1     -11.296  10.703  69.985  0.00  0.00    +0.174 C 
BRANCH   8   9
ATOM      9  O   UNL     1     -11.909  10.281  71.108  0.00  0.00    -0.348 OA
BRANCH   9  10
ATOM     10  C   UNL     1     -13.190  10.019  71.301  0.00  0.00    +0.175 C 
BRANCH  10  11
ATOM     11  C   UNL     1     -13.173   8.366  71.354  0.00  0.00    +0.181 C 
ATOM     12  O   UNL     1     -12.274   8.353  72.582  0.00  0.00    -0.220 OA
ATOM     13  C   UNL     1     -14.534   8.354  72.287  0.00  0.00    +0.038 C 
ENDBRANCH  10  11
ENDBRANCH   9  10
ENDBRANCH   8   9
ENDBRANCH   3   8
BRANCH   5  14
ATOM     14  O   UNL     1      -9.869   7.388  70.111  0.00  0.00    -0.326 OA
BRANCH  14  15
ATOM     15  C   UNL     1      -9.391   6.601  71.107  0.00  0.00    +0.178 C 
BRANCH  15  16
ATOM     16  C   UNL     1     -10.495   5.375  71.174  0.00  0.00    +0.182 C 
ATOM     17  O   UNL     1     -11.182   5.876  69.912  0.00  0.00    -0.220 OA
ATOM     18  C   UNL     1      -9.507   4.382  70.298  0.00  0.00    +0.038 C 
ENDBRANCH  15  16
ENDBRANCH  14  15
ENDBRANCH   5  14
BRANCH   6  19
ATOM     19  O   UNL     1      -7.659   7.604  67.776  0.00  0.00    -0.346 OA
BRANCH  19  20
ATOM     20  C   UNL     1      -7.932   6.313  67.401  0.00  0.00    +0.175 C 
BRANCH  20  21
ATOM     21  C   UNL     1      -9.278   6.603  66.487  0.00  0.00    +0.181 C 
ATOM     22  O   UNL     1      -8.519   6.333  65.199  0.00  0.00    -0.220 OA
ATOM     23  C   UNL     1      -9.774   5.031  66.582  0.00  0.00    +0.038 C 
ENDBRANCH  20  21
ENDBRANCH  19  20
ENDBRANCH   6  19
BRANCH   7  24
ATOM     24  O   UNL     1      -7.919  10.264  69.018  0.00  0.00    -0.348 OA
BRANCH  24  25
ATOM     25  C   UNL     1      -6.695  10.831  68.584  0.00  0.00    +0.175 C 
BRANCH  25  26
ATOM     26  C   UNL     1      -6.212  11.811  69.819  0.00  0.00    +0.181 C 
ATOM     27  O   UNL     1      -6.283  10.696  70.851  0.00  0.00    -0.220 OA
ATOM     28  C   UNL     1      -4.629  11.473  69.486  0.00  0.00    +0.038 C 
ENDBRANCH  25  26
ENDBRANCH  24  25
ENDBRANCH   7  24
ENDBRANCH   1   2
BRANCH   1  33
ATOM     29  C   UNL     1     -12.075  13.905  68.221  0.00  0.00    +0.177 C 
ATOM     30  C   UNL     1     -11.593  14.990  66.952  0.00  0.00    +0.174 C 
ATOM     31  C   UNL     1      -9.954  15.207  67.230  0.00  0.00    +0.177 C 
ATOM     32  C   UNL     1      -9.710  14.094  68.482  0.00  0.00    +0.201 C 
ATOM     33  C   UNL     1      -9.925  12.714  67.507  0.00  0.00    +0.266 C 
ATOM     34  O   UNL     1     -11.423  12.706  67.580  0.00  0.00    -0.326 OA
BRANCH  32  35
ATOM     35  O   UNL     1      -8.224  14.185  68.516  0.00  0.00    -0.346 OA
BRANCH  35  36
ATOM     36  C   UNL     1      -7.970  15.144  69.507  0.00  0.00    +0.175 C 
BRANCH  36  37
ATOM     37  C   UNL     1      -6.651  16.055  69.140  0.00  0.00    +0.181 C 
ATOM     38  O   UNL     1      -5.741  15.326  70.127  0.00  0.00    -0.220 OA
ATOM     39  C   UNL     1      -6.102  15.074  67.922  0.00  0.00    +0.038 C 
ENDBRANCH  36  37
ENDBRANCH  35  36
ENDBRANCH  32  35
BRANCH  31  40
ATOM     40  O   UNL     1     -10.310  16.402  68.067  0.00  0.00    -0.348 OA
BRANCH  40  41
ATOM     41  C   UNL     1     -10.609  17.513  67.554  0.00  0.00    +0.175 C 
BRANCH  41  42
ATOM     42  C   UNL     1      -9.694  18.220  66.422  0.00  0.00    +0.181 C 
ATOM     43  O   UNL     1     -10.720  17.991  65.310  0.00  0.00    -0.220 OA
ATOM     44  C   UNL     1     -10.385  19.681  66.782  0.00  0.00    +0.038 C 
ENDBRANCH  41  42
ENDBRANCH  40  41
ENDBRANCH  31  40
BRANCH  30  45
ATOM     45  O   UNL     1     -11.418  13.957  65.870  0.00  0.00    -0.348 OA
BRANCH  45  46
ATOM     46  C   UNL     1     -11.732  14.429  64.657  0.00  0.00    +0.175 C 
BRANCH  46  47
ATOM     47  C   UNL     1     -12.220  13.218  63.662  0.00  0.00    +0.181 C 
ATOM     48  O   UNL     1     -13.012  12.524  64.761  0.00  0.00    -0.220 OA
ATOM     49  C   UNL     1     -10.859  12.338  64.008  0.00  0.00    +0.038 C 
ENDBRANCH  46  47
ENDBRANCH  45  46
ENDBRANCH  30  45
BRANCH  29  50
ATOM     50  C   UNL     1     -11.177  14.318  69.481  0.00  0.00    +0.174 C 
BRANCH  50  51
ATOM     51  O   UNL     1     -11.349  14.790  70.580  0.00  0.00    -0.348 OA
BRANCH  51  52
ATOM     52  C   UNL     1     -12.532  15.511  70.815  0.00  0.00    +0.175 C 
BRANCH  52  54
ATOM     53  C   UNL     1     -12.369  15.344  73.060  0.00  0.00    +0.038 C 
ATOM     54  C   UNL     1     -13.387  14.712  71.984  0.00  0.00    +0.181 C 
ATOM     55  O   UNL     1     -14.336  15.887  72.188  0.00  0.00    -0.220 OA
ENDBRANCH  52  54
ENDBRANCH  51  52
ENDBRANCH  50  51
ENDBRANCH  29  50
ENDBRANCH   1  33
TORSDOF 28
ENDMDL
MODEL 2
REMARK VINA RESULT:      -5.9      1.830      5.627
REMARK  Name = 
REMARK  28 active torsions:
REMARK  status: ('A' for Active; 'I' for Inactive)
REMARK    1  A    between atoms: C_2  and  C_4
REMARK    2  A    between atoms: C_4  and  O_5
REMARK    3  A    between atoms: O_5  and  C_6
REMARK    4  A    between atoms: C_6  and  C_7
REMARK    5  A    between atoms: C_9  and  O_10
REMARK    6  A    between atoms: O_10  and  C_11
REMARK    7  A    between atoms: C_12  and  O_13
REMARK    8  A    between atoms: O_13  and  C_14
REMARK    9  A    between atoms: C_14  and  C_15
REMARK   10  A    between atoms: C_18  and  O_19
REMARK   11  A    between atoms: O_19  and  C_20
REMARK   12  A    between atoms: C_20  and  C_21
REMARK   13  A    between atoms: C_24  and  O_25
REMARK   14  A    between atoms: O_25  and  C_26
REMARK   15  A    between atoms: C_26  and  C_27
REMARK   16  A    between atoms: C_31  and  C_32
REMARK   17  A    between atoms: C_32  and  O_33
REMARK   18  A    between atoms: O_33  and  C_34
REMARK   19  A    between atoms: C_34  and  C_35
REMARK   20  A    between atoms: C_38  and  O_39
REMARK   21  A    between atoms: O_39  and  C_40
REMARK   22  A    between atoms: C_40  and  C_41
REMARK   23  A    between atoms: C_44  and  O_45
REMARK   24  A    between atoms: O_45  and  C_46
REMARK   25  A    between atoms: C_46  and  C_47
REMARK   26  A    between atoms: C_50  and  O_51
REMARK   27  A    between atoms: O_51  and  C_52
REMARK   28  A    between atoms: C_52  and  C_53
REMARK                            x       y       z     vdW  Elec       q    Type
REMARK                         _______ _______ _______ _____ _____    ______ ____
ROOT
ATOM      1  O   UNL     1      -9.747  11.642  67.880  0.00  0.00    -0.326 OA
ENDROOT
BRANCH   1   2
ATOM      2  C   UNL     1      -8.783  10.535  68.130  0.00  0.00    +0.177 C 
ATOM      3  C   UNL     1      -9.456   9.422  67.001  0.00  0.00    +0.177 C 
ATOM      4  O   UNL     1     -10.829   9.277  67.563  0.00  0.00    -0.326 OA
ATOM      5  C   UNL     1     -10.739   7.976  68.355  0.00  0.00    +0.266 C 
ATOM      6  C   UNL     1      -9.152   8.301  68.951  0.00  0.00    +0.201 C 
ATOM      7  C   UNL     1      -9.429   9.868  69.580  0.00  0.00    +0.177 C 
BRANCH   3   8
ATOM      8  C   UNL     1      -9.934  10.584  65.917  0.00  0.00    +0.174 C 
BRANCH   8   9
ATOM      9  O   UNL     1      -9.762  10.139  64.657  0.00  0.00    -0.348 OA
BRANCH   9  10
ATOM     10  C   UNL     1      -8.923   9.218  64.214  0.00  0.00    +0.175 C 
BRANCH  10  11
ATOM     11  C   UNL     1      -7.824  10.150  63.404  0.00  0.00    +0.181 C 
ATOM     12  O   UNL     1      -7.415   8.994  62.503  0.00  0.00    -0.220 OA
ATOM     13  C   UNL     1      -8.983  10.639  62.337  0.00  0.00    +0.038 C 
ENDBRANCH  10  11
ENDBRANCH   9  10
ENDBRANCH   8   9
ENDBRANCH   3   8
BRANCH   5  14
ATOM     14  O   UNL     1     -10.131   7.204  67.175  0.00  0.00    -0.326 OA
BRANCH  14  15
ATOM     15  C   UNL     1     -11.033   6.196  67.078  0.00  0.00    +0.178 C 
BRANCH  15  16
ATOM     16  C   UNL     1     -10.209   5.040  66.235  0.00  0.00    +0.182 C 
ATOM     17  O   UNL     1      -8.997   5.950  66.101  0.00  0.00    -0.220 OA
ATOM     18  C   UNL     1      -9.620   4.383  67.632  0.00  0.00    +0.038 C 
ENDBRANCH  15  16
ENDBRANCH  14  15
ENDBRANCH   5  14
BRANCH   6  19
ATOM     19  O   UNL     1      -9.455   7.690  70.289  0.00  0.00    -0.346 OA
BRANCH  19  20
ATOM     20  C   UNL     1      -8.502   6.716  70.456  0.00  0.00    +0.175 C 
BRANCH  20  21
ATOM     21  C   UNL     1      -9.070   6.056  71.861  0.00  0.00    +0.181 C 
ATOM     22  O   UNL     1      -9.762   7.354  72.245  0.00  0.00    -0.220 OA
ATOM     23  C   UNL     1     -10.436   5.487  71.130  0.00  0.00    +0.038 C 
ENDBRANCH  20  21
ENDBRANCH  19  20
ENDBRANCH   6  19
BRANCH   7  24
ATOM     24  O   UNL     1     -10.872  10.074  69.293  0.00  0.00    -0.348 OA
BRANCH  24  25
ATOM     25  C   UNL     1     -11.305  10.548  70.556  0.00  0.00    +0.175 C 
BRANCH  25  26
ATOM     26  C   UNL     1     -12.890  10.102  70.663  0.00  0.00    +0.181 C 
ATOM     27  O   UNL     1     -12.619   9.068  71.745  0.00  0.00    -0.220 OA
ATOM     28  C   UNL     1     -13.159  11.282  71.788  0.00  0.00    +0.038 C 
ENDBRANCH  25  26
ENDBRANCH  24  25
ENDBRANCH   7  24
ENDBRANCH   1   2
BRANCH   1  33
ATOM     29  C   UNL     1      -9.334  14.280  66.086  0.00  0.00    +0.177 C 
ATOM     30  C   UNL     1      -8.578  15.512  67.051  0.00  0.00    +0.174 C 
ATOM     31  C   UNL     1      -9.376  15.395  68.521  0.00  0.00    +0.177 C 
ATOM     32  C   UNL     1     -10.325  14.021  68.242  0.00  0.00    +0.201 C 
ATOM     33  C   UNL     1      -9.018  12.928  68.236  0.00  0.00    +0.266 C 
ATOM     34  O   UNL     1      -8.638  13.151  66.803  0.00  0.00    -0.326 OA
BRANCH  32  35
ATOM     35  O   UNL     1     -10.821  13.859  69.636  0.00  0.00    -0.346 OA
BRANCH  35  36
ATOM     36  C   UNL     1     -12.194  14.126  69.537  0.00  0.00    +0.175 C 
BRANCH  36  37
ATOM     37  C   UNL     1     -12.616  15.449  70.416  0.00  0.00    +0.181 C 
ATOM     38  O   UNL     1     -13.780  14.747  71.113  0.00  0.00    -0.220 OA
ATOM     39  C   UNL     1     -11.642  15.107  71.714  0.00  0.00    +0.038 C 
ENDBRANCH  36  37
ENDBRANCH  35  36
ENDBRANCH  32  35
BRANCH  31  40
ATOM     40  O   UNL     1     -10.340  16.432  68.018  0.00  0.00    -0.348 OA
BRANCH  40  41
ATOM     41  C   UNL     1     -10.063  17.661  68.022  0.00  0.00    +0.175 C 
BRANCH  41  42
ATOM     42  C   UNL     1     -10.231  18.591  66.708  0.00  0.00    +0.181 C 
ATOM     43  O   UNL     1     -11.256  19.514  67.373  0.00  0.00    -0.220 OA
ATOM     44  C   UNL     1      -8.994  19.554  67.238  0.00  0.00    +0.038 C 
ENDBRANCH  41  42
ENDBRANCH  40  41
ENDBRANCH  31  40
BRANCH  30  45
ATOM     45  O   UNL     1      -7.376  14.712  67.479  0.00  0.00    -0.348 OA
BRANCH  45  46
ATOM     46  C   UNL     1      -6.316  15.487  67.745  0.00  0.00    +0.175 C 
BRANCH  46  47
ATOM     47  C   UNL     1      -6.373  16.880  66.878  0.00  0.00    +0.181 C 
ATOM     48  O   UNL     1      -4.972  16.686  66.318  0.00  0.00    -0.220 OA
ATOM     49  C   UNL     1      -5.800  17.747  68.169  0.00  0.00    +0.038 C 
ENDBRANCH  46  47
ENDBRANCH  45  46
ENDBRANCH  30  45
BRANCH  29  50
ATOM     50  C   UNL     1     -10.864  14.269  66.554  0.00  0.00    +0.174 C 
BRANCH  50  51
ATOM     51  O   UNL     1     -11.955  14.271  66.033  0.00  0.00    -0.348 OA
BRANCH  51  52
ATOM     52  C   UNL     1     -12.378  13.104  65.375  0.00  0.00    +0.175 C 
BRANCH  52  54
ATOM     53  C   UNL     1     -12.661  11.867  63.508  0.00  0.00    +0.038 C 
ATOM     54  C   UNL     1     -11.667  13.077  63.882  0.00  0.00    +0.181 C 
ATOM     55  O   UNL     1     -12.665  14.078  63.314  0.00  0.00    -0.220 OA
ENDBRANCH  52  54
ENDBRANCH  51  52
ENDBRANCH  50  51
ENDBRANCH  29  50
ENDBRANCH   1  33
TORSDOF 28
ENDMDL
MODEL 3
REMARK VINA RESULT:      -5.2      1.955      8.721
REMARK  Name = 
REMARK  28 active torsions:
REMARK  status: ('A' for Active; 'I' for Inactive)
REMARK    1  A    between atoms: C_2  and  C_4
REMARK    2  A    between atoms: C_4  and  O_5
REMARK    3  A    between atoms: O_5  and  C_6
REMARK    4  A    between atoms: C_6  and  C_7
REMARK    5  A    between atoms: C_9  and  O_10
REMARK    6  A    between atoms: O_10  and  C_11
REMARK    7  A    between atoms: C_12  and  O_13
REMARK    8  A    between atoms: O_13  and  C_14
REMARK    9  A    between atoms: C_14  and  C_15
REMARK   10  A    between atoms: C_18  and  O_19
REMARK   11  A    between atoms: O_19  and  C_20
REMARK   12  A    between atoms: C_20  and  C_21
REMARK   13  A    between atoms: C_24  and  O_25
REMARK   14  A    between atoms: O_25  and  C_26
REMARK   15  A    between atoms: C_26  and  C_27
REMARK   16  A    between atoms: C_31  and  C_32
REMARK   17  A    between atoms: C_32  and  O_33
REMARK   18  A    between atoms: O_33  and  C_34
REMARK   19  A    between atoms: C_34  and  C_35
REMARK   20  A    between atoms: C_38  and  O_39
REMARK   21  A    between atoms: O_39  and  C_40
REMARK   22  A    between atoms: C_40  and  C_41
REMARK   23  A    between atoms: C_44  and  O_45
REMARK   24  A    between atoms: O_45  and  C_46
REMARK   25  A    between atoms: C_46  and  C_47
REMARK   26  A    between atoms: C_50  and  O_51
REMARK   27  A    between atoms: O_51  and  C_52
REMARK   28  A    between atoms: C_52  and  C_53
REMARK                            x       y       z     vdW  Elec       q    Type
REMARK                         _______ _______ _______ _____ _____    ______ ____
ROOT
ATOM      1  O   UNL     1     -10.525  13.202  68.232  0.00  0.00    -0.326 OA
ENDROOT
BRANCH   1   2
ATOM      2  C   UNL     1      -9.399  14.163  68.389  0.00  0.00    +0.177 C 
ATOM      3  C   UNL     1     -10.359  15.537  68.781  0.00  0.00    +0.177 C 
ATOM      4  O   UNL     1     -11.183  15.643  67.543  0.00  0.00    -0.326 OA
ATOM      5  C   UNL     1     -10.467  16.729  66.747  0.00  0.00    +0.266 C 
ATOM      6  C   UNL     1      -8.888  16.180  67.176  0.00  0.00    +0.201 C 
ATOM      7  C   UNL     1      -9.061  14.533  66.742  0.00  0.00    +0.177 C 
BRANCH   3   8
ATOM      8  C   UNL     1     -11.528  14.677  69.584  0.00  0.00    +0.174 C 
BRANCH   8   9
ATOM      9  O   UNL     1     -12.084  15.439  70.546  0.00  0.00    -0.348 OA
BRANCH   9  10
ATOM     10  C   UNL     1     -11.732  15.556  71.814  0.00  0.00    +0.175 C 
BRANCH  10  11
ATOM     11  C   UNL     1     -13.210  15.654  72.549  0.00  0.00    +0.181 C 
ATOM     12  O   UNL     1     -13.403  14.145  72.499  0.00  0.00    -0.220 OA
ATOM     13  C   UNL     1     -12.506  15.566  74.038  0.00  0.00    +0.038 C 
ENDBRANCH  10  11
ENDBRANCH   9  10
ENDBRANCH   8   9
ENDBRANCH   3   8
BRANCH   5  14
ATOM     14  O   UNL     1     -10.445  17.701  67.935  0.00  0.00    -0.326 OA
BRANCH  14  15
ATOM     15  C   UNL     1     -10.737  18.855  67.285  0.00  0.00    +0.178 C 
BRANCH  15  16
ATOM     16  C   UNL     1     -10.197  20.016  68.328  0.00  0.00    +0.182 C 
ATOM     17  O   UNL     1      -9.230  19.035  68.975  0.00  0.00    -0.220 OA
ATOM     18  C   UNL     1      -9.048  20.509  67.248  0.00  0.00    +0.038 C 
ENDBRANCH  15  16
ENDBRANCH  14  15
ENDBRANCH   5  14
BRANCH   6  19
ATOM     19  O   UNL     1      -8.333  16.499  65.818  0.00  0.00    -0.346 OA
BRANCH  19  20
ATOM     20  C   UNL     1      -7.436  17.516  66.033  0.00  0.00    +0.175 C 
BRANCH  20  21
ATOM     21  C   UNL     1      -6.612  16.850  67.302  0.00  0.00    +0.181 C 
ATOM     22  O   UNL     1      -5.402  16.566  66.427  0.00  0.00    -0.220 OA
ATOM     23  C   UNL     1      -5.995  18.310  67.765  0.00  0.00    +0.038 C 
ENDBRANCH  20  21
ENDBRANCH  19  20
ENDBRANCH   6  19
BRANCH   7  24
ATOM     24  O   UNL     1     -10.450  14.488  66.218  0.00  0.00    -0.348 OA
BRANCH  24  25
ATOM     25  C   UNL     1     -10.235  13.752  65.026  0.00  0.00    +0.175 C 
BRANCH  25  26
ATOM     26  C   UNL     1     -11.653  13.862  64.189  0.00  0.00    +0.181 C 
ATOM     27  O   UNL     1     -11.407  12.570  63.427  0.00  0.00    -0.220 OA
ATOM     28  C   UNL     1     -12.443  13.059  65.398  0.00  0.00    +0.038 C 
ENDBRANCH  25  26
ENDBRANCH  24  25
ENDBRANCH   7  24
ENDBRANCH   1   2
BRANCH   1  33
ATOM     29  C   UNL     1     -11.361  10.116  67.868  0.00  0.00    +0.177 C 
ATOM     30  C   UNL     1     -10.577   9.167  69.094  0.00  0.00    +0.174 C 
ATOM     31  C   UNL     1      -9.026   9.803  69.143  0.00  0.00    +0.177 C 
ATOM     32  C   UNL     1      -9.204  11.115  68.087  0.00  0.00    +0.201 C 
ATOM     33  C   UNL     1     -10.203  12.018  69.130  0.00  0.00    +0.266 C 
ATOM     34  O   UNL     1     -11.482  11.334  68.749  0.00  0.00    -0.326 OA
BRANCH  32  35
ATOM     35  O   UNL     1      -7.879  11.741  68.354  0.00  0.00    -0.346 OA
BRANCH  35  36
ATOM     36  C   UNL     1      -7.149  11.490  67.184  0.00  0.00    +0.175 C 
BRANCH  36  37
ATOM     37  C   UNL     1      -5.550  11.813  67.391  0.00  0.00    +0.181 C 
ATOM     38  O   UNL     1      -5.722  13.321  67.218  0.00  0.00    -0.220 OA
ATOM     39  C   UNL     1      -5.627  12.001  69.036  0.00  0.00    +0.038 C 
ENDBRANCH  36  37
ENDBRANCH  35  36
ENDBRANCH  32  35
BRANCH  31  40
ATOM     40  O   UNL     1      -8.627   8.764  68.134  0.00  0.00    -0.348 OA
BRANCH  40  41
ATOM     41  C   UNL     1      -8.576   7.538  68.420  0.00  0.00    +0.175 C 
BRANCH  41  42
ATOM     42  C   UNL     1      -8.604   6.382  67.287  0.00  0.00    +0.181 C 
ATOM     43  O   UNL     1      -7.361   5.678  67.837  0.00  0.00    -0.220 OA
ATOM     44  C   UNL     1      -9.577   5.460  68.258  0.00  0.00    +0.038 C 
ENDBRANCH  41  42
ENDBRANCH  40  41
ENDBRANCH  31  40
BRANCH  30  45
ATOM     45  O   UNL     1     -11.082   9.935  70.287  0.00  0.00    -0.348 OA
BRANCH  45  46
ATOM     46  C   UNL     1     -10.847   9.297  71.442  0.00  0.00    +0.175 C 
BRANCH  46  47
ATOM     47  C   UNL     1     -11.823   7.987  71.599  0.00  0.00    +0.181 C 
ATOM     48  O   UNL     1     -12.855   8.751  72.416  0.00  0.00    -0.220 OA
ATOM     49  C   UNL     1     -11.015   7.505  72.963  0.00  0.00    +0.038 C 
ENDBRANCH  46  47
ENDBRANCH  45  46
ENDBRANCH  30  45
BRANCH  29  50
ATOM     50  C   UNL     1     -10.219  10.421  66.788  0.00  0.00    +0.174 C 
BRANCH  50  51
ATOM     51  O   UNL     1     -10.108  10.415  65.584  0.00  0.00    -0.348 OA
BRANCH  51  52
ATOM     52  C   UNL     1      -9.472   9.317  64.982  0.00  0.00    +0.175 C 
BRANCH  52  54
ATOM     53  C   UNL     1      -8.075   8.368  63.484  0.00  0.00    +0.038 C 
ATOM     54  C   UNL     1      -8.444   9.899  63.825  0.00  0.00    +0.181 C 
ATOM     55  O   UNL     1      -9.530   9.878  62.755  0.00  0.00    -0.220 OA
ENDBRANCH  52  54
ENDBRANCH  51  52
ENDBRANCH  50  51
ENDBRANCH  29  50
ENDBRANCH   1  33
TORSDOF 28
ENDMDL
MODEL 4
REMARK VINA RESULT:      -5.2      1.965      8.711
REMARK  Name = 
REMARK  28 active torsions:
REMARK  status: ('A' for Active; 'I' for Inactive)
REMARK    1  A    between atoms: C_2  and  C_4
REMARK    2  A    between atoms: C_4  and  O_5
REMARK    3  A    between atoms: O_5  and  C_6
REMARK    4  A    between atoms: C_6  and  C_7
REMARK    5  A    between atoms: C_9  and  O_10
REMARK    6  A    between atoms: O_10  and  C_11
REMARK    7  A    between atoms: C_12  and  O_13
REMARK    8  A    between atoms: O_13  and  C_14
REMARK    9  A    between atoms: C_14  and  C_15
REMARK   10  A    between atoms: C_18  and  O_19
REMARK   11  A    between atoms: O_19  and  C_20
REMARK   12  A    between atoms: C_20  and  C_21
REMARK   13  A    between atoms: C_24  and  O_25
REMARK   14  A    between atoms: O_25  and  C_26
REMARK   15  A    between atoms: C_26  and  C_27
REMARK   16  A    between atoms: C_31  and  C_32
REMARK   17  A    between atoms: C_32  and  O_33
REMARK   18  A    between atoms: O_33  and  C_34
REMARK   19  A    between atoms: C_34  and  C_35
REMARK   20  A    between atoms: C_38  and  O_39
REMARK   21  A    between atoms: O_39  and  C_40
REMARK   22  A    between atoms: C_40  and  C_41
REMARK   23  A    between atoms: C_44  and  O_45
REMARK   24  A    between atoms: O_45  and  C_46
REMARK   25  A    between atoms: C_46  and  C_47
REMARK   26  A    between atoms: C_50  and  O_51
REMARK   27  A    between atoms: O_51  and  C_52
REMARK   28  A    between atoms: C_52  and  C_53
REMARK                            x       y       z     vdW  Elec       q    Type
REMARK                         _______ _______ _______ _____ _____    ______ ____
ROOT
ATOM      1  O   UNL     1      -8.782  13.060  68.274  0.00  0.00    -0.326 OA
ENDROOT
BRANCH   1   2
ATOM      2  C   UNL     1      -8.217  14.036  67.302  0.00  0.00    +0.177 C 
ATOM      3  C   UNL     1      -6.922  14.584  68.296  0.00  0.00    +0.177 C 
ATOM      4  O   UNL     1      -7.691  15.132  69.450  0.00  0.00    -0.326 OA
ATOM      5  C   UNL     1      -7.722  16.629  69.161  0.00  0.00    +0.266 C 
ATOM      6  C   UNL     1      -7.955  16.425  67.463  0.00  0.00    +0.201 C 
ATOM      7  C   UNL     1      -9.295  15.361  67.514  0.00  0.00    +0.177 C 
BRANCH   3   8
ATOM      8  C   UNL     1      -6.682  13.123  69.044  0.00  0.00    +0.174 C 
BRANCH   8   9
ATOM      9  O   UNL     1      -6.023  13.300  70.206  0.00  0.00    -0.348 OA
BRANCH   9  10
ATOM     10  C   UNL     1      -4.756  13.627  70.395  0.00  0.00    +0.175 C 
BRANCH  10  11
ATOM     11  C   UNL     1      -4.864  14.551  71.762  0.00  0.00    +0.181 C 
ATOM     12  O   UNL     1      -5.745  13.524  72.460  0.00  0.00    -0.220 OA
ATOM     13  C   UNL     1      -3.493  13.863  72.369  0.00  0.00    +0.038 C 
ENDBRANCH  10  11
ENDBRANCH   9  10
ENDBRANCH   8   9
ENDBRANCH   3   8
BRANCH   5  14
ATOM     14  O   UNL     1      -6.205  16.700  68.937  0.00  0.00    -0.326 OA
BRANCH  14  15
ATOM     15  C   UNL     1      -5.877  17.592  69.906  0.00  0.00    +0.178 C 
BRANCH  15  16
ATOM     16  C   UNL     1      -4.373  18.098  69.452  0.00  0.00    +0.182 C 
ATOM     17  O   UNL     1      -4.890  18.526  68.086  0.00  0.00    -0.220 OA
ATOM     18  C   UNL     1      -4.645  19.602  70.079  0.00  0.00    +0.038 C 
ENDBRANCH  15  16
ENDBRANCH  14  15
ENDBRANCH   5  14
BRANCH   6  19
ATOM     19  O   UNL     1      -8.875  17.609  67.377  0.00  0.00    -0.346 OA
BRANCH  19  20
ATOM     20  C   UNL     1      -8.238  18.491  66.541  0.00  0.00    +0.175 C 
BRANCH  20  21
ATOM     21  C   UNL     1      -9.516  19.484  66.212  0.00  0.00    +0.181 C 
ATOM     22  O   UNL     1     -10.361  18.316  65.732  0.00  0.00    -0.220 OA
ATOM     23  C   UNL     1     -10.113  19.349  67.745  0.00  0.00    +0.038 C 
ENDBRANCH  20  21
ENDBRANCH  19  20
ENDBRANCH   6  19
BRANCH   7  24
ATOM     24  O   UNL     1      -9.532  15.220  68.973  0.00  0.00    -0.348 OA
BRANCH  24  25
ATOM     25  C   UNL     1     -10.915  15.528  69.024  0.00  0.00    +0.175 C 
BRANCH  25  26
ATOM     26  C   UNL     1     -11.346  15.315  70.602  0.00  0.00    +0.181 C 
ATOM     27  O   UNL     1     -12.656  16.070  70.439  0.00  0.00    -0.220 OA
ATOM     28  C   UNL     1     -12.068  13.878  70.225  0.00  0.00    +0.038 C 
ENDBRANCH  25  26
ENDBRANCH  24  25
ENDBRANCH   7  24
ENDBRANCH   1   2
BRANCH   1  33
ATOM     29  C   UNL     1      -8.313  10.569  66.293  0.00  0.00    +0.177 C 
ATOM     30  C   UNL     1      -9.854   9.911  65.832  0.00  0.00    +0.174 C 
ATOM     31  C   UNL     1     -10.723   9.922  67.265  0.00  0.00    +0.177 C 
ATOM     32  C   UNL     1      -9.634  10.737  68.274  0.00  0.00    +0.201 C 
ATOM     33  C   UNL     1      -9.815  12.248  67.508  0.00  0.00    +0.266 C 
ATOM     34  O   UNL     1      -8.836  11.978  66.404  0.00  0.00    -0.326 OA
BRANCH  32  35
ATOM     35  O   UNL     1     -10.552  10.899  69.435  0.00  0.00    -0.346 OA
BRANCH  35  36
ATOM     36  C   UNL     1     -10.216   9.830  70.279  0.00  0.00    +0.175 C 
BRANCH  36  37
ATOM     37  C   UNL     1     -11.550   9.000  70.760  0.00  0.00    +0.181 C 
ATOM     38  O   UNL     1     -11.038   8.791  72.184  0.00  0.00    -0.220 OA
ATOM     39  C   UNL     1     -12.401  10.328  71.270  0.00  0.00    +0.038 C 
ENDBRANCH  36  37
ENDBRANCH  35  36
ENDBRANCH  32  35
BRANCH  31  40
ATOM     40  O   UNL     1     -10.239   8.521  67.507  0.00  0.00    -0.348 OA
BRANCH  40  41
ATOM     41  C   UNL     1     -10.575   7.559  66.766  0.00  0.00    +0.175 C 
BRANCH  41  42
ATOM     42  C   UNL     1     -10.208   6.024  67.121  0.00  0.00    +0.181 C 
ATOM     43  O   UNL     1      -8.906   6.397  67.834  0.00  0.00    -0.220 OA
ATOM     44  C   UNL     1     -11.046   6.157  68.542  0.00  0.00    +0.038 C 
ENDBRANCH  41  42
ENDBRANCH  40  41
ENDBRANCH  31  40
BRANCH  30  45
ATOM     45  O   UNL     1     -10.454  11.182  65.292  0.00  0.00    -0.348 OA
BRANCH  45  46
ATOM     46  C   UNL     1     -10.880  11.050  64.029  0.00  0.00    +0.175 C 
BRANCH  46  47
ATOM     47  C   UNL     1     -11.570  12.440  63.493  0.00  0.00    +0.181 C 
ATOM     48  O   UNL     1     -10.494  13.313  64.120  0.00  0.00    -0.220 OA
ATOM     49  C   UNL     1     -12.518  12.534  64.849  0.00  0.00    +0.038 C 
ENDBRANCH  46  47
ENDBRANCH  45  46
ENDBRANCH  30  45
BRANCH  29  50
ATOM     50  C   UNL     1      -8.064  10.035  67.781  0.00  0.00    +0.174 C 
BRANCH  50  51
ATOM     51  O   UNL     1      -7.342   9.237  68.332  0.00  0.00    -0.348 OA
BRANCH  51  52
ATOM     52  C   UNL     1      -6.179   9.716  68.957  0.00  0.00    +0.175 C 
BRANCH  52  54
ATOM     53  C   UNL     1      -6.087   8.190  70.618  0.00  0.00    +0.038 C 
ATOM     54  C   UNL     1      -6.460   9.757  70.586  0.00  0.00    +0.181 C 
ATOM     55  O   UNL     1      -5.010  10.111  70.896  0.00  0.00    -0.220 OA
ENDBRANCH  52  54
ENDBRANCH  51  52
ENDBRANCH  50  51
ENDBRANCH  29  50
ENDBRANCH   1  33
TORSDOF 28
ENDMDL
MODEL 5
REMARK VINA RESULT:      -5.2      1.986      8.390
REMARK  Name = 
REMARK  28 active torsions:
REMARK  status: ('A' for Active; 'I' for Inactive)
REMARK    1  A    between atoms: C_2  and  C_4
REMARK    2  A    between atoms: C_4  and  O_5
REMARK    3  A    between atoms: O_5  and  C_6
REMARK    4  A    between atoms: C_6  and  C_7
REMARK    5  A    between atoms: C_9  and  O_10
REMARK    6  A    between atoms: O_10  and  C_11
REMARK    7  A    between atoms: C_12  and  O_13
REMARK    8  A    between atoms: O_13  and  C_14
REMARK    9  A    between atoms: C_14  and  C_15
REMARK   10  A    between atoms: C_18  and  O_19
REMARK   11  A    between atoms: O_19  and  C_20
REMARK   12  A    between atoms: C_20  and  C_21
REMARK   13  A    between atoms: C_24  and  O_25
REMARK   14  A    between atoms: O_25  and  C_26
REMARK   15  A    between atoms: C_26  and  C_27
REMARK   16  A    between atoms: C_31  and  C_32
REMARK   17  A    between atoms: C_32  and  O_33
REMARK   18  A    between atoms: O_33  and  C_34
REMARK   19  A    between atoms: C_34  and  C_35
REMARK   20  A    between atoms: C_38  and  O_39
REMARK   21  A    between atoms: O_39  and  C_40
REMARK   22  A    between atoms: C_40  and  C_41
REMARK   23  A    between atoms: C_44  and  O_45
REMARK   24  A    between atoms: O_45  and  C_46
REMARK   25  A    between atoms: C_46  and  C_47
REMARK   26  A    between atoms: C_50  and  O_51
REMARK   27  A    between atoms: O_51  and  C_52
REMARK   28  A    between atoms: C_52  and  C_53
REMARK                            x       y       z     vdW  Elec       q    Type
REMARK                         _______ _______ _______ _____ _____    ______ ____
ROOT
ATOM      1  O   UNL     1      -9.665  12.018  67.025  0.00  0.00    -0.326 OA
ENDROOT
BRANCH   1   2
ATOM      2  C   UNL     1      -8.942  13.174  67.624  0.00  0.00    +0.177 C 
ATOM      3  C   UNL     1     -10.031  13.437  68.931  0.00  0.00    +0.177 C 
ATOM      4  O   UNL     1     -11.283  13.729  68.175  0.00  0.00    -0.326 OA
ATOM      5  C   UNL     1     -11.346  15.253  68.192  0.00  0.00    +0.266 C 
ATOM      6  C   UNL     1      -9.647  15.452  67.959  0.00  0.00    +0.201 C 
ATOM      7  C   UNL     1      -9.456  14.447  66.587  0.00  0.00    +0.177 C 
BRANCH   3   8
ATOM      8  C   UNL     1     -10.422  11.837  69.123  0.00  0.00    +0.174 C 
BRANCH   8   9
ATOM      9  O   UNL     1     -11.655  11.722  69.654  0.00  0.00    -0.348 OA
BRANCH   9  10
ATOM     10  C   UNL     1     -12.395  10.636  69.798  0.00  0.00    +0.175 C 
BRANCH  10  11
ATOM     11  C   UNL     1     -12.200  10.330  71.412  0.00  0.00    +0.181 C 
ATOM     12  O   UNL     1     -13.102  11.492  71.803  0.00  0.00    -0.220 OA
ATOM     13  C   UNL     1     -13.473   9.281  71.394  0.00  0.00    +0.038 C 
ENDBRANCH  10  11
ENDBRANCH   9  10
ENDBRANCH   8   9
ENDBRANCH   3   8
BRANCH   5  14
ATOM     14  O   UNL     1     -11.139  15.327  69.711  0.00  0.00    -0.326 OA
BRANCH  14  15
ATOM     15  C   UNL     1     -12.418  15.555  70.100  0.00  0.00    +0.178 C 
BRANCH  15  16
ATOM     16  C   UNL     1     -12.456  14.942  71.633  0.00  0.00    +0.182 C 
ATOM     17  O   UNL     1     -12.098  16.298  72.222  0.00  0.00    -0.220 OA
ATOM     18  C   UNL     1     -14.072  15.259  71.763  0.00  0.00    +0.038 C 
ENDBRANCH  15  16
ENDBRANCH  14  15
ENDBRANCH   5  14
BRANCH   6  19
ATOM     19  O   UNL     1      -9.839  16.652  67.077  0.00  0.00    -0.346 OA
BRANCH  19  20
ATOM     20  C   UNL     1      -9.116  17.651  67.678  0.00  0.00    +0.175 C 
BRANCH  20  21
ATOM     21  C   UNL     1      -9.174  18.764  66.458  0.00  0.00    +0.181 C 
ATOM     22  O   UNL     1     -10.198  17.942  65.694  0.00  0.00    -0.220 OA
ATOM     23  C   UNL     1     -10.359  19.635  67.206  0.00  0.00    +0.038 C 
ENDBRANCH  20  21
ENDBRANCH  19  20
ENDBRANCH   6  19
BRANCH   7  24
ATOM     24  O   UNL     1     -10.844  13.982  66.339  0.00  0.00    -0.348 OA
BRANCH  24  25
ATOM     25  C   UNL     1     -10.976  14.329  64.971  0.00  0.00    +0.175 C 
BRANCH  25  26
ATOM     26  C   UNL     1     -12.594  14.251  64.660  0.00  0.00    +0.181 C 
ATOM     27  O   UNL     1     -12.386  13.940  63.185  0.00  0.00    -0.220 OA
ATOM     28  C   UNL     1     -12.604  12.645  65.049  0.00  0.00    +0.038 C 
ENDBRANCH  25  26
ENDBRANCH  24  25
ENDBRANCH   7  24
ENDBRANCH   1   2
BRANCH   1  33
ATOM     29  C   UNL     1      -8.143   9.357  68.001  0.00  0.00    +0.177 C 
ATOM     30  C   UNL     1      -7.181   8.740  66.693  0.00  0.00    +0.174 C 
ATOM     31  C   UNL     1      -8.188   8.907  65.361  0.00  0.00    +0.177 C 
ATOM     32  C   UNL     1      -9.480   9.746  66.062  0.00  0.00    +0.201 C 
ATOM     33  C   UNL     1      -8.618  11.198  66.287  0.00  0.00    +0.266 C 
ATOM     34  O   UNL     1      -7.973  10.795  67.580  0.00  0.00    -0.326 OA
BRANCH  32  35
ATOM     35  O   UNL     1     -10.208  10.044  64.797  0.00  0.00    -0.346 OA
BRANCH  35  36
ATOM     36  C   UNL     1      -9.264   9.772  63.797  0.00  0.00    +0.175 C 
BRANCH  36  37
ATOM     37  C   UNL     1      -9.674  10.485  62.373  0.00  0.00    +0.181 C 
ATOM     38  O   UNL     1      -9.787  11.882  62.982  0.00  0.00    -0.220 OA
ATOM     39  C   UNL     1      -8.121  10.825  61.902  0.00  0.00    +0.038 C 
ENDBRANCH  36  37
ENDBRANCH  35  36
ENDBRANCH  32  35
BRANCH  31  40
ATOM     40  O   UNL     1      -8.670   7.508  65.619  0.00  0.00    -0.348 OA
BRANCH  40  41
ATOM     41  C   UNL     1      -7.913   6.507  65.510  0.00  0.00    +0.175 C 
BRANCH  41  42
ATOM     42  C   UNL     1      -8.372   5.020  65.954  0.00  0.00    +0.181 C 
ATOM     43  O   UNL     1      -9.842   5.416  66.113  0.00  0.00    -0.220 OA
ATOM     44  C   UNL     1      -8.630   4.631  64.365  0.00  0.00    +0.038 C 
ENDBRANCH  41  42
ENDBRANCH  40  41
ENDBRANCH  31  40
BRANCH  30  45
ATOM     45  O   UNL     1      -6.387   9.991  66.428  0.00  0.00    -0.348 OA
BRANCH  45  46
ATOM     46  C   UNL     1      -5.371   9.781  65.580  0.00  0.00    +0.175 C 
BRANCH  46  47
ATOM     47  C   UNL     1      -3.991  10.475  66.134  0.00  0.00    +0.181 C 
ATOM     48  O   UNL     1      -4.000   9.663  67.420  0.00  0.00    -0.220 OA
ATOM     49  C   UNL     1      -4.850  11.705  66.838  0.00  0.00    +0.038 C 
ENDBRANCH  46  47
ENDBRANCH  45  46
ENDBRANCH  30  45
BRANCH  29  50
ATOM     50  C   UNL     1      -9.646   8.933  67.647  0.00  0.00    +0.174 C 
BRANCH  50  51
ATOM     51  O   UNL     1     -10.485   8.180  68.084  0.00  0.00    -0.348 OA
BRANCH  51  52
ATOM     52  C   UNL     1     -10.133   7.346  69.158  0.00  0.00    +0.175 C 
BRANCH  52  54
ATOM     53  C   UNL     1     -10.126   5.142  69.644  0.00  0.00    +0.038 C 
ATOM     54  C   UNL     1     -11.304   6.187  69.304  0.00  0.00    +0.181 C 
ATOM     55  O   UNL     1     -11.490   6.466  70.791  0.00  0.00    -0.220 OA
ENDBRANCH  52  54
ENDBRANCH  51  52
ENDBRANCH  50  51
ENDBRANCH  29  50
ENDBRANCH   1  33
TORSDOF 28
ENDMDL
MODEL 6
REMARK VINA RESULT:      -5.0      1.568      1.847
REMARK  Name = 
REMARK  28 active torsions:
REMARK  status: ('A' for Active; 'I' for Inactive)
REMARK    1  A    between atoms: C_2  and  C_4
REMARK    2  A    between atoms: C_4  and  O_5
REMARK    3  A    between atoms: O_5  and  C_6
REMARK    4  A    between atoms: C_6  and  C_7
REMARK    5  A    between atoms: C_9  and  O_10
REMARK    6  A    between atoms: O_10  and  C_11
REMARK    7  A    between atoms: C_12  and  O_13
REMARK    8  A    between atoms: O_13  and  C_14
REMARK    9  A    between atoms: C_14  and  C_15
REMARK   10  A    between atoms: C_18  and  O_19
REMARK   11  A    between atoms: O_19  and  C_20
REMARK   12  A    between atoms: C_20  and  C_21
REMARK   13  A    between atoms: C_24  and  O_25
REMARK   14  A    between atoms: O_25  and  C_26
REMARK   15  A    between atoms: C_26  and  C_27
REMARK   16  A    between atoms: C_31  and  C_32
REMARK   17  A    between atoms: C_32  and  O_33
REMARK   18  A    between atoms: O_33  and  C_34
REMARK   19  A    between atoms: C_34  and  C_35
REMARK   20  A    between atoms: C_38  and  O_39
REMARK   21  A    between atoms: O_39  and  C_40
REMARK   22  A    between atoms: C_40  and  C_41
REMARK   23  A    between atoms: C_44  and  O_45
REMARK   24  A    between atoms: O_45  and  C_46
REMARK   25  A    between atoms: C_46  and  C_47
REMARK   26  A    between atoms: C_50  and  O_51
REMARK   27  A    between atoms: O_51  and  C_52
REMARK   28  A    between atoms: C_52  and  C_53
REMARK                            x       y       z     vdW  Elec       q    Type
REMARK                         _______ _______ _______ _____ _____    ______ ____
ROOT
ATOM      1  O   UNL     1      -9.743  11.054  68.918  0.00  0.00    -0.326 OA
ENDROOT
BRANCH   1   2
ATOM      2  C   UNL     1     -10.062   9.676  68.454  0.00  0.00    +0.177 C 
ATOM      3  C   UNL     1     -10.659   9.090  69.959  0.00  0.00    +0.177 C 
ATOM      4  O   UNL     1      -9.447   9.264  70.809  0.00  0.00    -0.326 OA
ATOM      5  C   UNL     1      -8.840   7.865  70.832  0.00  0.00    +0.266 C 
ATOM      6  C   UNL     1      -9.192   7.548  69.172  0.00  0.00    +0.201 C 
ATOM      7  C   UNL     1      -8.499   8.956  68.489  0.00  0.00    +0.177 C 
BRANCH   3   8
ATOM      8  C   UNL     1     -11.304  10.541  70.437  0.00  0.00    +0.174 C 
BRANCH   8   9
ATOM      9  O   UNL     1     -12.304  10.336  71.317  0.00  0.00    -0.348 OA
BRANCH   9  10
ATOM     10  C   UNL     1     -13.424   9.654  71.150  0.00  0.00    +0.175 C 
BRANCH  10  11
ATOM     11  C   UNL     1     -13.365   8.622  72.442  0.00  0.00    +0.181 C 
ATOM     12  O   UNL     1     -14.852   8.787  72.719  0.00  0.00    -0.220 OA
ATOM     13  C   UNL     1     -13.639   7.329  71.456  0.00  0.00    +0.038 C 
ENDBRANCH  10  11
ENDBRANCH   9  10
ENDBRANCH   8   9
ENDBRANCH   3   8
BRANCH   5  14
ATOM     14  O   UNL     1     -10.168   7.207  71.232  0.00  0.00    -0.326 OA
BRANCH  14  15
ATOM     15  C   UNL     1     -10.005   7.174  72.578  0.00  0.00    +0.178 C 
BRANCH  15  16
ATOM     16  C   UNL     1      -9.419   5.653  72.844  0.00  0.00    +0.182 C 
ATOM     17  O   UNL     1     -10.089   5.595  74.208  0.00  0.00    -0.220 OA
ATOM     18  C   UNL     1     -10.738   4.974  72.116  0.00  0.00    +0.038 C 
ENDBRANCH  15  16
ENDBRANCH  14  15
ENDBRANCH   5  14
BRANCH   6  19
ATOM     19  O   UNL     1      -7.907   6.796  68.972  0.00  0.00    -0.346 OA
BRANCH  19  20
ATOM     20  C   UNL     1      -8.175   5.900  67.968  0.00  0.00    +0.175 C 
BRANCH  20  21
ATOM     21  C   UNL     1      -9.647   5.368  68.500  0.00  0.00    +0.181 C 
ATOM     22  O   UNL     1     -10.012   4.852  67.118  0.00  0.00    -0.220 OA
ATOM     23  C   UNL     1      -9.041   3.899  68.943  0.00  0.00    +0.038 C 
ENDBRANCH  20  21
ENDBRANCH  19  20
ENDBRANCH   6  19
BRANCH   7  24
ATOM     24  O   UNL     1      -7.961   9.656  69.683  0.00  0.00    -0.348 OA
BRANCH  24  25
ATOM     25  C   UNL     1      -6.673  10.000  69.202  0.00  0.00    +0.175 C 
BRANCH  25  26
ATOM     26  C   UNL     1      -6.226  11.325  70.077  0.00  0.00    +0.181 C 
ATOM     27  O   UNL     1      -6.057  10.529  71.363  0.00  0.00    -0.220 OA
ATOM     28  C   UNL     1      -4.646  11.084  69.660  0.00  0.00    +0.038 C 
ENDBRANCH  25  26
ENDBRANCH  24  25
ENDBRANCH   7  24
ENDBRANCH   1   2
BRANCH   1  33
ATOM     29  C   UNL     1     -11.838  12.587  67.017  0.00  0.00    +0.177 C 
ATOM     30  C   UNL     1     -10.963  13.505  65.830  0.00  0.00    +0.174 C 
ATOM     31  C   UNL     1      -9.706  14.179  66.712  0.00  0.00    +0.177 C 
ATOM     32  C   UNL     1      -9.940  13.415  68.205  0.00  0.00    +0.201 C 
ATOM     33  C   UNL     1      -9.468  11.870  67.664  0.00  0.00    +0.266 C 
ATOM     34  O   UNL     1     -10.800  11.497  67.085  0.00  0.00    -0.326 OA
BRANCH  32  35
ATOM     35  O   UNL     1      -8.681  13.886  68.847  0.00  0.00    -0.346 OA
BRANCH  35  36
ATOM     36  C   UNL     1      -7.779  13.990  67.778  0.00  0.00    +0.175 C 
BRANCH  36  37
ATOM     37  C   UNL     1      -6.330  14.590  68.270  0.00  0.00    +0.181 C 
ATOM     38  O   UNL     1      -5.534  13.819  67.218  0.00  0.00    -0.220 OA
ATOM     39  C   UNL     1      -6.349  15.915  67.273  0.00  0.00    +0.038 C 
ENDBRANCH  36  37
ENDBRANCH  35  36
ENDBRANCH  32  35
BRANCH  31  40
ATOM     40  O   UNL     1     -10.581  15.378  66.940  0.00  0.00    -0.348 OA
BRANCH  40  41
ATOM     41  C   UNL     1     -10.110  16.499  67.267  0.00  0.00    +0.175 C 
BRANCH  41  42
ATOM     42  C   UNL     1      -9.538  17.551  66.178  0.00  0.00    +0.181 C 
ATOM     43  O   UNL     1     -10.643  17.247  65.162  0.00  0.00    -0.220 OA
ATOM     44  C   UNL     1     -10.464  18.746  66.854  0.00  0.00    +0.038 C 
ENDBRANCH  41  42
ENDBRANCH  40  41
ENDBRANCH  31  40
BRANCH  30  45
ATOM     45  O   UNL     1     -10.149  12.369  65.269  0.00  0.00    -0.348 OA
BRANCH  45  46
ATOM     46  C   UNL     1     -10.210  12.309  63.932  0.00  0.00    +0.175 C 
BRANCH  46  47
ATOM     47  C   UNL     1     -10.181  10.752  63.411  0.00  0.00    +0.181 C 
ATOM     48  O   UNL     1      -9.225  10.316  64.511  0.00  0.00    -0.220 OA
ATOM     49  C   UNL     1      -8.930  11.085  62.377  0.00  0.00    +0.038 C 
ENDBRANCH  46  47
ENDBRANCH  45  46
ENDBRANCH  30  45
BRANCH  29  50
ATOM     50  C   UNL     1     -11.721  13.440  68.368  0.00  0.00    +0.174 C 
BRANCH  50  51
ATOM     51  O   UNL     1     -12.451  14.103  69.068  0.00  0.00    -0.348 OA
BRANCH  51  52
ATOM     52  C   UNL     1     -12.228  14.092  70.455  0.00  0.00    +0.175 C 
BRANCH  52  54
ATOM     53  C   UNL     1     -13.739  15.275  71.644  0.00  0.00    +0.038 C 
ATOM     54  C   UNL     1     -12.314  15.653  70.994  0.00  0.00    +0.181 C 
ATOM     55  O   UNL     1     -11.620  15.310  72.307  0.00  0.00    -0.220 OA
ENDBRANCH  52  54
ENDBRANCH  51  52
ENDBRANCH  50  51
ENDBRANCH  29  50
ENDBRANCH   1  33
TORSDOF 28
ENDMDL
MODEL 7
REMARK VINA RESULT:      -4.9      3.519      9.745
REMARK  Name = 
REMARK  28 active torsions:
REMARK  status: ('A' for Active; 'I' for Inactive)
REMARK    1  A    between atoms: C_2  and  C_4
REMARK    2  A    between atoms: C_4  and  O_5
REMARK    3  A    between atoms: O_5  and  C_6
REMARK    4  A    between atoms: C_6  and  C_7
REMARK    5  A    between atoms: C_9  and  O_10
REMARK    6  A    between atoms: O_10  and  C_11
REMARK    7  A    between atoms: C_12  and  O_13
REMARK    8  A    between atoms: O_13  and  C_14
REMARK    9  A    between atoms: C_14  and  C_15
REMARK   10  A    between atoms: C_18  and  O_19
REMARK   11  A    between atoms: O_19  and  C_20
REMARK   12  A    between atoms: C_20  and  C_21
REMARK   13  A    between atoms: C_24  and  O_25
REMARK   14  A    between atoms: O_25  and  C_26
REMARK   15  A    between atoms: C_26  and  C_27
REMARK   16  A    between atoms: C_31  and  C_32
REMARK   17  A    between atoms: C_32  and  O_33
REMARK   18  A    between atoms: O_33  and  C_34
REMARK   19  A    between atoms: C_34  and  C_35
REMARK   20  A    between atoms: C_38  and  O_39
REMARK   21  A    between atoms: O_39  and  C_40
REMARK   22  A    between atoms: C_40  and  C_41
REMARK   23  A    between atoms: C_44  and  O_45
REMARK   24  A    between atoms: O_45  and  C_46
REMARK   25  A    between atoms: C_46  and  C_47
REMARK   26  A    between atoms: C_50  and  O_51
REMARK   27  A    between atoms: O_51  and  C_52
REMARK   28  A    between atoms: C_52  and  C_53
REMARK                            x       y       z     vdW  Elec       q    Type
REMARK                         _______ _______ _______ _____ _____    ______ ____
ROOT
ATOM      1  O   UNL     1      -7.095  16.979  67.715  0.00  0.00    -0.326 OA
ENDROOT
BRANCH   1   2
ATOM      2  C   UNL     1      -5.832  17.528  67.148  0.00  0.00    +0.177 C 
ATOM      3  C   UNL     1      -5.307  18.339  68.573  0.00  0.00    +0.177 C 
ATOM      4  O   UNL     1      -6.441  19.288  68.768  0.00  0.00    -0.326 OA
ATOM      5  C   UNL     1      -5.905  20.587  68.176  0.00  0.00    +0.266 C 
ATOM      6  C   UNL     1      -5.116  19.808  66.854  0.00  0.00    +0.201 C 
ATOM      7  C   UNL     1      -6.435  18.884  66.276  0.00  0.00    +0.177 C 
BRANCH   3   8
ATOM      8  C   UNL     1      -5.950  17.226  69.622  0.00  0.00    +0.174 C 
BRANCH   8   9
ATOM      9  O   UNL     1      -5.009  16.814  70.493  0.00  0.00    -0.348 OA
BRANCH   9  10
ATOM     10  C   UNL     1      -4.945  15.677  71.164  0.00  0.00    +0.175 C 
BRANCH  10  11
ATOM     11  C   UNL     1      -3.695  14.919  70.391  0.00  0.00    +0.181 C 
ATOM     12  O   UNL     1      -2.853  14.883  71.658  0.00  0.00    -0.220 OA
ATOM     13  C   UNL     1      -4.349  13.442  70.722  0.00  0.00    +0.038 C 
ENDBRANCH  10  11
ENDBRANCH   9  10
ENDBRANCH   8   9
ENDBRANCH   3   8
BRANCH   5  14
ATOM     14  O   UNL     1      -4.603  20.516  68.987  0.00  0.00    -0.326 OA
BRANCH  14  15
ATOM     15  C   UNL     1      -4.927  21.351  70.005  0.00  0.00    +0.178 C 
BRANCH  15  16
ATOM     16  C   UNL     1      -4.066  20.740  71.275  0.00  0.00    +0.182 C 
ATOM     17  O   UNL     1      -4.304  22.002  72.090  0.00  0.00    -0.220 OA
ATOM     18  C   UNL     1      -5.418  20.025  71.900  0.00  0.00    +0.038 C 
ENDBRANCH  15  16
ENDBRANCH  14  15
ENDBRANCH   5  14
BRANCH   6  19
ATOM     19  O   UNL     1      -5.456  20.922  65.905  0.00  0.00    -0.346 OA
BRANCH  19  20
ATOM     20  C   UNL     1      -4.495  20.859  64.928  0.00  0.00    +0.175 C 
BRANCH  20  21
ATOM     21  C   UNL     1      -3.158  20.971  65.892  0.00  0.00    +0.181 C 
ATOM     22  O   UNL     1      -2.236  20.624  64.734  0.00  0.00    -0.220 OA
ATOM     23  C   UNL     1      -2.991  22.587  65.604  0.00  0.00    +0.038 C 
ENDBRANCH  20  21
ENDBRANCH  19  20
ENDBRANCH   6  19
BRANCH   7  24
ATOM     24  O   UNL     1      -7.527  19.274  67.203  0.00  0.00    -0.348 OA
BRANCH  24  25
ATOM     25  C   UNL     1      -8.581  19.455  66.274  0.00  0.00    +0.175 C 
BRANCH  25  26
ATOM     26  C   UNL     1      -9.753  20.267  67.104  0.00  0.00    +0.181 C 
ATOM     27  O   UNL     1     -10.873  19.730  66.226  0.00  0.00    -0.220 OA
ATOM     28  C   UNL     1      -9.903  19.001  68.156  0.00  0.00    +0.038 C 
ENDBRANCH  25  26
ENDBRANCH  24  25
ENDBRANCH   7  24
ENDBRANCH   1   2
BRANCH   1  33
ATOM     29  C   UNL     1      -7.909  14.193  69.104  0.00  0.00    +0.177 C 
ATOM     30  C   UNL     1      -8.169  12.998  67.870  0.00  0.00    +0.174 C 
ATOM     31  C   UNL     1      -9.021  13.836  66.693  0.00  0.00    +0.177 C 
ATOM     32  C   UNL     1      -8.963  15.401  67.336  0.00  0.00    +0.201 C 
ATOM     33  C   UNL     1      -7.295  15.618  67.068  0.00  0.00    +0.266 C 
ATOM     34  O   UNL     1      -6.847  14.919  68.316  0.00  0.00    -0.326 OA
BRANCH  32  35
ATOM     35  O   UNL     1      -9.532  16.102  66.151  0.00  0.00    -0.346 OA
BRANCH  35  36
ATOM     36  C   UNL     1     -10.199  15.088  65.450  0.00  0.00    +0.175 C 
BRANCH  36  37
ATOM     37  C   UNL     1     -11.779  15.467  65.201  0.00  0.00    +0.181 C 
ATOM     38  O   UNL     1     -11.482  16.391  64.021  0.00  0.00    -0.220 OA
ATOM     39  C   UNL     1     -12.085  14.228  64.143  0.00  0.00    +0.038 C 
ENDBRANCH  36  37
ENDBRANCH  35  36
ENDBRANCH  32  35
BRANCH  31  40
ATOM     40  O   UNL     1     -10.286  13.374  67.358  0.00  0.00    -0.348 OA
BRANCH  40  41
ATOM     41  C   UNL     1     -10.489  12.164  67.644  0.00  0.00    +0.175 C 
BRANCH  41  42
ATOM     42  C   UNL     1     -11.248  11.710  68.999  0.00  0.00    +0.181 C 
ATOM     43  O   UNL     1     -12.332  10.932  68.247  0.00  0.00    -0.220 OA
ATOM     44  C   UNL     1     -10.300  10.354  69.070  0.00  0.00    +0.038 C 
ENDBRANCH  41  42
ENDBRANCH  40  41
ENDBRANCH  31  40
BRANCH  30  45
ATOM     45  O   UNL     1      -6.831  13.123  67.192  0.00  0.00    -0.348 OA
BRANCH  45  46
ATOM     46  C   UNL     1      -6.310  11.933  66.866  0.00  0.00    +0.175 C 
BRANCH  46  47
ATOM     47  C   UNL     1      -4.737  11.833  67.326  0.00  0.00    +0.181 C 
ATOM     48  O   UNL     1      -4.226  11.954  65.898  0.00  0.00    -0.220 OA
ATOM     49  C   UNL     1      -4.778  10.179  67.232  0.00  0.00    +0.038 C 
ENDBRANCH  46  47
ENDBRANCH  45  46
ENDBRANCH  30  45
BRANCH  29  50
ATOM     50  C   UNL     1      -9.224  15.106  69.080  0.00  0.00    +0.174 C 
BRANCH  50  51
ATOM     51  O   UNL     1      -9.904  15.708  69.878  0.00  0.00    -0.348 OA
BRANCH  51  52
ATOM     52  C   UNL     1     -11.101  15.113  70.312  0.00  0.00    +0.175 C 
BRANCH  52  54
ATOM     53  C   UNL     1     -13.209  15.364  71.080  0.00  0.00    +0.038 C 
ATOM     54  C   UNL     1     -11.838  16.162  71.357  0.00  0.00    +0.181 C 
ATOM     55  O   UNL     1     -11.556  15.268  72.559  0.00  0.00    -0.220 OA
ENDBRANCH  52  54
ENDBRANCH  51  52
ENDBRANCH  50  51
ENDBRANCH  29  50
ENDBRANCH   1  33
TORSDOF 28
ENDMDL
MODEL 8
REMARK VINA RESULT:      -4.9      3.626     10.087
REMARK  Name = 
REMARK  28 active torsions:
REMARK  status: ('A' for Active; 'I' for Inactive)
REMARK    1  A    between atoms: C_2  and  C_4
REMARK    2  A    between atoms: C_4  and  O_5
REMARK    3  A    between atoms: O_5  and  C_6
REMARK    4  A    between atoms: C_6  and  C_7
REMARK    5  A    between atoms: C_9  and  O_10
REMARK    6  A    between atoms: O_10  and  C_11
REMARK    7  A    between atoms: C_12  and  O_13
REMARK    8  A    between atoms: O_13  and  C_14
REMARK    9  A    between atoms: C_14  and  C_15
REMARK   10  A    between atoms: C_18  and  O_19
REMARK   11  A    between atoms: O_19  and  C_20
REMARK   12  A    between atoms: C_20  and  C_21
REMARK   13  A    between atoms: C_24  and  O_25
REMARK   14  A    between atoms: O_25  and  C_26
REMARK   15  A    between atoms: C_26  and  C_27
REMARK   16  A    between atoms: C_31  and  C_32
REMARK   17  A    between atoms: C_32  and  O_33
REMARK   18  A    between atoms: O_33  and  C_34
REMARK   19  A    between atoms: C_34  and  C_35
REMARK   20  A    between atoms: C_38  and  O_39
REMARK   21  A    between atoms: O_39  and  C_40
REMARK   22  A    between atoms: C_40  and  C_41
REMARK   23  A    between atoms: C_44  and  O_45
REMARK   24  A    between atoms: O_45  and  C_46
REMARK   25  A    between atoms: C_46  and  C_47
REMARK   26  A    between atoms: C_50  and  O_51
REMARK   27  A    between atoms: O_51  and  C_52
REMARK   28  A    between atoms: C_52  and  C_53
REMARK                            x       y       z     vdW  Elec       q    Type
REMARK                         _______ _______ _______ _____ _____    ______ ____
ROOT
ATOM      1  O   UNL     1      -7.712  16.894  67.872  0.00  0.00    -0.326 OA
ENDROOT
BRANCH   1   2
ATOM      2  C   UNL     1      -6.755  16.921  66.732  0.00  0.00    +0.177 C 
ATOM      3  C   UNL     1      -5.555  17.890  67.497  0.00  0.00    +0.177 C 
ATOM      4  O   UNL     1      -6.345  19.127  67.759  0.00  0.00    -0.326 OA
ATOM      5  C   UNL     1      -5.940  20.042  66.608  0.00  0.00    +0.266 C 
ATOM      6  C   UNL     1      -5.920  18.773  65.438  0.00  0.00    +0.201 C 
ATOM      7  C   UNL     1      -7.476  18.125  65.735  0.00  0.00    +0.177 C 
BRANCH   3   8
ATOM      8  C   UNL     1      -5.833  17.293  69.020  0.00  0.00    +0.174 C 
BRANCH   8   9
ATOM      9  O   UNL     1      -5.925  18.305  69.904  0.00  0.00    -0.348 OA
BRANCH   9  10
ATOM     10  C   UNL     1      -5.049  18.688  70.817  0.00  0.00    +0.175 C 
BRANCH  10  11
ATOM     11  C   UNL     1      -5.102  20.331  70.642  0.00  0.00    +0.181 C 
ATOM     12  O   UNL     1      -6.188  20.470  71.698  0.00  0.00    -0.220 OA
ATOM     13  C   UNL     1      -3.911  20.517  71.767  0.00  0.00    +0.038 C 
ENDBRANCH  10  11
ENDBRANCH   9  10
ENDBRANCH   8   9
ENDBRANCH   3   8
BRANCH   5  14
ATOM     14  O   UNL     1      -4.440  19.827  66.857  0.00  0.00    -0.326 OA
BRANCH  14  15
ATOM     15  C   UNL     1      -4.037  21.120  66.926  0.00  0.00    +0.178 C 
BRANCH  15  16
ATOM     16  C   UNL     1      -2.409  21.016  66.670  0.00  0.00    +0.182 C 
ATOM     17  O   UNL     1      -2.318  22.512  66.411  0.00  0.00    -0.220 OA
ATOM     18  C   UNL     1      -2.102  21.228  68.279  0.00  0.00    +0.038 C 
ENDBRANCH  15  16
ENDBRANCH  14  15
ENDBRANCH   5  14
BRANCH   6  19
ATOM     19  O   UNL     1      -6.474  19.662  64.362  0.00  0.00    -0.346 OA
BRANCH  19  20
ATOM     20  C   UNL     1      -5.595  19.541  63.316  0.00  0.00    +0.175 C 
BRANCH  20  21
ATOM     21  C   UNL     1      -5.027  21.093  63.292  0.00  0.00    +0.181 C 
ATOM     22  O   UNL     1      -3.585  20.615  63.281  0.00  0.00    -0.220 OA
ATOM     23  C   UNL     1      -5.069  21.163  61.644  0.00  0.00    +0.038 C 
ENDBRANCH  20  21
ENDBRANCH  19  20
ENDBRANCH   6  19
BRANCH   7  24
ATOM     24  O   UNL     1      -7.991  19.016  66.806  0.00  0.00    -0.348 OA
BRANCH  24  25
ATOM     25  C   UNL     1      -9.299  19.254  66.314  0.00  0.00    +0.175 C 
BRANCH  25  26
ATOM     26  C   UNL     1      -9.962  20.341  67.362  0.00  0.00    +0.181 C 
ATOM     27  O   UNL     1     -11.329  19.674  67.331  0.00  0.00    -0.220 OA
ATOM     28  C   UNL     1      -9.484  19.417  68.645  0.00  0.00    +0.038 C 
ENDBRANCH  25  26
ENDBRANCH  24  25
ENDBRANCH   7  24
ENDBRANCH   1   2
BRANCH   1  33
ATOM     29  C   UNL     1      -7.631  13.738  67.254  0.00  0.00    +0.177 C 
ATOM     30  C   UNL     1      -9.251  13.169  66.986  0.00  0.00    +0.174 C 
ATOM     31  C   UNL     1     -10.137  13.952  68.175  0.00  0.00    +0.177 C 
ATOM     32  C   UNL     1      -8.948  14.971  68.818  0.00  0.00    +0.201 C 
ATOM     33  C   UNL     1      -8.851  15.979  67.449  0.00  0.00    +0.266 C 
ATOM     34  O   UNL     1      -7.909  15.103  66.679  0.00  0.00    -0.326 OA
BRANCH  32  35
ATOM     35  O   UNL     1      -9.850  15.770  69.693  0.00  0.00    -0.346 OA
BRANCH  35  36
ATOM     36  C   UNL     1     -11.018  14.998  69.764  0.00  0.00    +0.175 C 
BRANCH  36  37
ATOM     37  C   UNL     1     -11.766  15.169  71.218  0.00  0.00    +0.181 C 
ATOM     38  O   UNL     1     -12.956  15.930  70.636  0.00  0.00    -0.220 OA
ATOM     39  C   UNL     1     -12.633  13.759  71.129  0.00  0.00    +0.038 C 
ENDBRANCH  36  37
ENDBRANCH  35  36
ENDBRANCH  32  35
BRANCH  31  40
ATOM     40  O   UNL     1      -9.904  12.759  69.057  0.00  0.00    -0.348 OA
BRANCH  40  41
ATOM     41  C   UNL     1     -10.097  11.581  68.656  0.00  0.00    +0.175 C 
BRANCH  41  42
ATOM     42  C   UNL     1     -11.474  10.782  68.944  0.00  0.00    +0.181 C 
ATOM     43  O   UNL     1     -12.073  11.123  67.577  0.00  0.00    -0.220 OA
ATOM     44  C   UNL     1     -10.798   9.403  68.323  0.00  0.00    +0.038 C 
ENDBRANCH  41  42
ENDBRANCH  40  41
ENDBRANCH  31  40
BRANCH  30  45
ATOM     45  O   UNL     1      -9.614  14.130  65.884  0.00  0.00    -0.348 OA
BRANCH  45  46
ATOM     46  C   UNL     1     -10.553  13.637  65.066  0.00  0.00    +0.175 C 
BRANCH  46  47
ATOM     47  C   UNL     1     -11.949  14.492  65.190  0.00  0.00    +0.181 C 
ATOM     48  O   UNL     1     -12.390  14.134  63.779  0.00  0.00    -0.220 OA
ATOM     49  C   UNL     1     -11.192  15.870  64.666  0.00  0.00    +0.038 C 
ENDBRANCH  46  47
ENDBRANCH  45  46
ENDBRANCH  30  45
BRANCH  29  50
ATOM     50  C   UNL     1      -7.510  13.907  68.842  0.00  0.00    +0.174 C 
BRANCH  50  51
ATOM     51  O   UNL     1      -6.671  13.732  69.694  0.00  0.00    -0.348 OA
BRANCH  51  52
ATOM     52  C   UNL     1      -5.372  13.384  69.285  0.00  0.00    +0.175 C 
BRANCH  52  54
ATOM     53  C   UNL     1      -3.611  12.647  70.488  0.00  0.00    +0.038 C 
ATOM     54  C   UNL     1      -4.981  11.949  70.008  0.00  0.00    +0.181 C 
ATOM     55  O   UNL     1      -5.648  12.350  71.318  0.00  0.00    -0.220 OA
ENDBRANCH  52  54
ENDBRANCH  51  52
ENDBRANCH  50  51
ENDBRANCH  29  50
ENDBRANCH   1  33
TORSDOF 28
ENDMDL
MODEL 9
REMARK VINA RESULT:      -4.9      1.814      4.427
REMARK  Name = 
REMARK  28 active torsions:
REMARK  status: ('A' for Active; 'I' for Inactive)
REMARK    1  A    between atoms: C_2  and  C_4
REMARK    2  A    between atoms: C_4  and  O_5
REMARK    3  A    between atoms: O_5  and  C_6
REMARK    4  A    between atoms: C_6  and  C_7
REMARK    5  A    between atoms: C_9  and  O_10
REMARK    6  A    between atoms: O_10  and  C_11
REMARK    7  A    between atoms: C_12  and  O_13
REMARK    8  A    between atoms: O_13  and  C_14
REMARK    9  A    between atoms: C_14  and  C_15
REMARK   10  A    between atoms: C_18  and  O_19
REMARK   11  A    between atoms: O_19  and  C_20
REMARK   12  A    between atoms: C_20  and  C_21
REMARK   13  A    between atoms: C_24  and  O_25
REMARK   14  A    between atoms: O_25  and  C_26
REMARK   15  A    between atoms: C_26  and  C_27
REMARK   16  A    between atoms: C_31  and  C_32
REMARK   17  A    between atoms: C_32  and  O_33
REMARK   18  A    between atoms: O_33  and  C_34
REMARK   19  A    between atoms: C_34  and  C_35
REMARK   20  A    between atoms: C_38  and  O_39
REMARK   21  A    between atoms: O_39  and  C_40
REMARK   22  A    between atoms: C_40  and  C_41
REMARK   23  A    between atoms: C_44  and  O_45
REMARK   24  A    between atoms: O_45  and  C_46
REMARK   25  A    between atoms: C_46  and  C_47
REMARK   26  A    between atoms: C_50  and  O_51
REMARK   27  A    between atoms: O_51  and  C_52
REMARK   28  A    between atoms: C_52  and  C_53
REMARK                            x       y       z     vdW  Elec       q    Type
REMARK                         _______ _______ _______ _____ _____    ______ ____
ROOT
ATOM      1  O   UNL     1      -9.810  12.164  68.221  0.00  0.00    -0.326 OA
ENDROOT
BRANCH   1   2
ATOM      2  C   UNL     1     -10.255  11.177  67.199  0.00  0.00    +0.177 C 
ATOM      3  C   UNL     1     -10.236   9.797  68.228  0.00  0.00    +0.177 C 
ATOM      4  O   UNL     1      -8.797   9.780  68.617  0.00  0.00    -0.326 OA
ATOM      5  C   UNL     1      -8.202   8.733  67.681  0.00  0.00    +0.266 C 
ATOM      6  C   UNL     1      -9.143   9.229  66.322  0.00  0.00    +0.201 C 
ATOM      7  C   UNL     1      -8.781  10.901  66.355  0.00  0.00    +0.177 C 
BRANCH   3   8
ATOM      8  C   UNL     1     -10.681  10.626  69.595  0.00  0.00    +0.174 C 
BRANCH   8   9
ATOM      9  O   UNL     1     -10.611   9.817  70.670  0.00  0.00    -0.348 OA
BRANCH   9  10
ATOM     10  C   UNL     1     -11.571   9.098  71.225  0.00  0.00    +0.175 C 
BRANCH  10  11
ATOM     11  C   UNL     1     -10.789   7.663  71.480  0.00  0.00    +0.181 C 
ATOM     12  O   UNL     1     -10.925   7.787  72.991  0.00  0.00    -0.220 OA
ATOM     13  C   UNL     1     -12.211   6.836  71.367  0.00  0.00    +0.038 C 
ENDBRANCH  10  11
ENDBRANCH   9  10
ENDBRANCH   8   9
ENDBRANCH   3   8
BRANCH   5  14
ATOM     14  O   UNL     1      -9.272   7.690  68.033  0.00  0.00    -0.326 OA
BRANCH  14  15
ATOM     15  C   UNL     1      -8.480   6.729  68.569  0.00  0.00    +0.178 C 
BRANCH  15  16
ATOM     16  C   UNL     1      -9.226   5.331  68.104  0.00  0.00    +0.182 C 
ATOM     17  O   UNL     1      -9.451   4.927  69.554  0.00  0.00    -0.220 OA
ATOM     18  C   UNL     1     -10.693   6.088  68.038  0.00  0.00    +0.038 C 
ENDBRANCH  15  16
ENDBRANCH  14  15
ENDBRANCH   5  14
BRANCH   6  19
ATOM     19  O   UNL     1      -8.013   8.984  65.363  0.00  0.00    -0.346 OA
BRANCH  19  20
ATOM     20  C   UNL     1      -8.573   8.270  64.334  0.00  0.00    +0.175 C 
BRANCH  20  21
ATOM     21  C   UNL     1      -7.821   9.030  63.073  0.00  0.00    +0.181 C 
ATOM     22  O   UNL     1      -7.994   7.814  62.177  0.00  0.00    -0.220 OA
ATOM     23  C   UNL     1      -9.233   9.691  62.531  0.00  0.00    +0.038 C 
ENDBRANCH  20  21
ENDBRANCH  19  20
ENDBRANCH   6  19
BRANCH   7  24
ATOM     24  O   UNL     1      -7.847  11.001  67.506  0.00  0.00    -0.348 OA
BRANCH  24  25
ATOM     25  C   UNL     1      -6.882  11.883  66.959  0.00  0.00    +0.175 C 
BRANCH  25  26
ATOM     26  C   UNL     1      -5.497  11.582  67.804  0.00  0.00    +0.181 C 
ATOM     27  O   UNL     1      -4.825  12.863  67.332  0.00  0.00    -0.220 OA
ATOM     28  C   UNL     1      -6.126  12.340  69.131  0.00  0.00    +0.038 C 
ENDBRANCH  25  26
ENDBRANCH  24  25
ENDBRANCH   7  24
ENDBRANCH   1   2
BRANCH   1  33
ATOM     29  C   UNL     1      -9.528  15.112  69.478  0.00  0.00    +0.177 C 
ATOM     30  C   UNL     1     -10.852  16.093  68.928  0.00  0.00    +0.174 C 
ATOM     31  C   UNL     1     -10.989  15.686  67.307  0.00  0.00    +0.177 C 
ATOM     32  C   UNL     1      -9.863  14.425  67.217  0.00  0.00    +0.201 C 
ATOM     33  C   UNL     1     -10.785  13.329  68.139  0.00  0.00    +0.266 C 
ATOM     34  O   UNL     1     -10.339  13.841  69.476  0.00  0.00    -0.326 OA
BRANCH  32  35
ATOM     35  O   UNL     1     -10.201  13.982  65.835  0.00  0.00    -0.346 OA
BRANCH  35  36
ATOM     36  C   UNL     1     -11.554  14.323  65.695  0.00  0.00    +0.175 C 
BRANCH  36  37
ATOM     37  C   UNL     1     -12.355  13.235  64.759  0.00  0.00    +0.181 C 
ATOM     38  O   UNL     1     -12.654  14.247  63.653  0.00  0.00    -0.220 OA
ATOM     39  C   UNL     1     -11.022  12.722  63.918  0.00  0.00    +0.038 C 
ENDBRANCH  36  37
ENDBRANCH  35  36
ENDBRANCH  32  35
BRANCH  31  40
ATOM     40  O   UNL     1     -10.062  16.828  66.999  0.00  0.00    -0.348 OA
BRANCH  40  41
ATOM     41  C   UNL     1     -10.278  17.628  66.050  0.00  0.00    +0.175 C 
BRANCH  41  42
ATOM     42  C   UNL     1     -10.178  19.233  66.231  0.00  0.00    +0.181 C 
ATOM     43  O   UNL     1     -11.090  19.249  67.460  0.00  0.00    -0.220 OA
ATOM     44  C   UNL     1      -8.848  19.036  67.198  0.00  0.00    +0.038 C 
ENDBRANCH  41  42
ENDBRANCH  40  41
ENDBRANCH  31  40
BRANCH  30  45
ATOM     45  O   UNL     1     -11.967  15.194  69.394  0.00  0.00    -0.348 OA
BRANCH  45  46
ATOM     46  C   UNL     1     -12.765  15.792  70.288  0.00  0.00    +0.175 C 
BRANCH  46  47
ATOM     47  C   UNL     1     -13.043  14.812  71.576  0.00  0.00    +0.181 C 
ATOM     48  O   UNL     1     -14.232  15.635  72.050  0.00  0.00    -0.220 OA
ATOM     49  C   UNL     1     -11.991  15.686  72.512  0.00  0.00    +0.038 C 
ENDBRANCH  46  47
ENDBRANCH  45  46
ENDBRANCH  30  45
BRANCH  29  50
ATOM     50  C   UNL     1      -8.525  15.037  68.232  0.00  0.00    +0.174 C 
BRANCH  50  51
ATOM     51  O   UNL     1      -7.421  15.444  67.952  0.00  0.00    -0.348 OA
BRANCH  51  52
ATOM     52  C   UNL     1      -6.764  16.270  68.880  0.00  0.00    +0.175 C 
BRANCH  52  54
ATOM     53  C   UNL     1      -4.516  16.062  68.860  0.00  0.00    +0.038 C 
ATOM     54  C   UNL     1      -5.535  17.042  68.087  0.00  0.00    +0.181 C 
ATOM     55  O   UNL     1      -5.587  16.069  66.916  0.00  0.00    -0.220 OA
ENDBRANCH  52  54
ENDBRANCH  51  52
ENDBRANCH  50  51
ENDBRANCH  29  50
ENDBRANCH   1  33
TORSDOF 28
ENDMDL
