MODEL 1
REMARK VINA RESULT:      -7.4      0.000      0.000
REMARK  Name = 
REMARK  9 active torsions:
REMARK  status: ('A' for Active; 'I' for Inactive)
REMARK    1  A    between atoms: C_7  and  C_8
REMARK    2  A    between atoms: C_8  and  C_9
REMARK    3  A    between atoms: C_9  and  C_10
REMARK    4  A    between atoms: C_13  and  C_14
REMARK    5  A    between atoms: N_16  and  CA_17
REMARK    6  A    between atoms: CA_17  and  CB_18
REMARK    7  A    between atoms: CA_17  and  C_23
REMARK    8  A    between atoms: CB_18  and  CG_19
REMARK    9  A    between atoms: CG_19  and  CD_20
REMARK                            x       y       z     vdW  Elec       q    Type
REMARK                         _______ _______ _______ _____ _____    ______ ____
ROOT
ATOM      1  C   UNK A   0      -9.151  16.747  68.869  0.00  0.00    -0.022 A 
ATOM      2  C   UNK A   0      -8.119  16.628  67.946  0.00  0.00    -0.004 A 
ATOM      3  C   UNK A   0      -7.562  17.788  67.474  0.00  0.00    +0.004 A 
ATOM      4  C   UNK A   0      -8.135  19.040  67.663  0.00  0.00    +0.055 A 
ATOM      5  C   UNK A   0      -9.355  19.053  68.279  0.00  0.00    +0.004 A 
ATOM      6  C   UNK A   0      -9.949  17.874  68.706  0.00  0.00    -0.004 A 
ENDROOT
BRANCH   4   7
ATOM      7  C   UNK A   0      -7.162  20.135  67.779  0.00  0.00    +0.265 C 
ATOM      8  N   GLU A   1      -5.920  19.852  68.342  0.00  0.00    -0.192 NA
ATOM      9  O   UNK A   0      -7.331  21.247  67.193  0.00  0.00    -0.268 OA
BRANCH   8  10
ATOM     10  CA  GLU A   1      -4.770  20.942  68.149  0.00  0.00    +0.199 C 
BRANCH  10  11
ATOM     11  C   GLU A   1      -3.964  20.019  67.057  0.00  0.00    +0.384 C 
ATOM     12  OXT GLU A   1      -2.776  20.648  66.668  0.00  0.00    -0.244 OA
ATOM     13  O   GLU A   1      -4.024  18.803  67.367  0.00  0.00    -0.244 OA
ENDBRANCH  10  11
BRANCH  10  14
ATOM     14  CB  GLU A   1      -3.867  20.336  69.418  0.00  0.00    +0.045 C 
BRANCH  14  15
ATOM     15  CG  GLU A   1      -4.886  20.479  70.545  0.00  0.00    +0.116 C 
BRANCH  15  16
ATOM     16  CD  GLU A   1      -4.252  20.932  71.809  0.00  0.00    +0.365 C 
ATOM     17  OE2 GLU A   1      -4.389  22.253  72.186  0.00  0.00    -0.246 OA
ATOM     18  OE1 GLU A   1      -3.686  20.076  72.547  0.00  0.00    -0.246 OA
ENDBRANCH  15  16
ENDBRANCH  14  15
ENDBRANCH  10  14
ENDBRANCH   8  10
ENDBRANCH   4   7
BRANCH   1  19
ATOM     19  C   UNK A   0      -9.839  15.501  69.303  0.00  0.00    +0.031 C 
BRANCH  19  20
ATOM     20  C   UNK A   0     -11.263  15.620  68.773  0.00  0.00    +0.033 C 
BRANCH  20  30
ATOM     21  N   UNK A   0     -12.616  12.493  63.464  0.00  0.00    -0.086 NA
ATOM     22  C   UNK A   0     -12.194  12.948  64.467  0.00  0.00    +0.261 A 
ATOM     23  N   UNK A   0     -11.605  14.163  64.571  0.00  0.00    -0.172 NA
ATOM     24  C   UNK A   0     -11.281  14.684  65.778  0.00  0.00    +0.284 A 
ATOM     25  O   UNK A   0     -10.983  15.894  65.853  0.00  0.00    -0.265 OA
ATOM     26  C   UNK A   0     -11.457  13.942  66.937  0.00  0.00    +0.091 A 
ATOM     27  C   UNK A   0     -11.901  12.657  66.806  0.00  0.00    +0.170 A 
ATOM     28  N   UNK A   0     -11.929  12.140  68.058  0.00  0.00    -0.225 NA
ATOM     29  C   UNK A   0     -11.921  13.137  68.972  0.00  0.00    +0.097 A 
ATOM     30  C   UNK A   0     -11.658  14.293  68.260  0.00  0.00    +0.005 A 
ATOM     31  N   UNK A   0     -12.094  12.173  65.572  0.00  0.00    -0.192 NA
ENDBRANCH  20  30
ENDBRANCH  19  20
ENDBRANCH   1  19
TORSDOF 9
ENDMDL
MODEL 2
REMARK VINA RESULT:      -7.3      2.903      4.155
REMARK  Name = 
REMARK  9 active torsions:
REMARK  status: ('A' for Active; 'I' for Inactive)
REMARK    1  A    between atoms: C_7  and  C_8
REMARK    2  A    between atoms: C_8  and  C_9
REMARK    3  A    between atoms: C_9  and  C_10
REMARK    4  A    between atoms: C_13  and  C_14
REMARK    5  A    between atoms: N_16  and  CA_17
REMARK    6  A    between atoms: CA_17  and  CB_18
REMARK    7  A    between atoms: CA_17  and  C_23
REMARK    8  A    between atoms: CB_18  and  CG_19
REMARK    9  A    between atoms: CG_19  and  CD_20
REMARK                            x       y       z     vdW  Elec       q    Type
REMARK                         _______ _______ _______ _____ _____    ______ ____
ROOT
ATOM      1  C   UNK A   0      -9.581  14.608  68.370  0.00  0.00    -0.022 A 
ATOM      2  C   UNK A   0      -8.413  14.748  69.110  0.00  0.00    -0.004 A 
ATOM      3  C   UNK A   0      -7.771  15.958  69.046  0.00  0.00    +0.004 A 
ATOM      4  C   UNK A   0      -8.074  16.932  68.101  0.00  0.00    +0.055 A 
ATOM      5  C   UNK A   0      -9.003  16.585  67.160  0.00  0.00    +0.004 A 
ATOM      6  C   UNK A   0      -9.612  15.339  67.187  0.00  0.00    -0.004 A 
ENDROOT
BRANCH   4   7
ATOM      7  C   UNK A   0      -7.885  18.309  68.576  0.00  0.00    +0.265 C 
ATOM      8  N   GLU A   1      -6.587  18.809  68.641  0.00  0.00    -0.192 NA
ATOM      9  O   UNK A   0      -8.858  19.111  68.710  0.00  0.00    -0.268 OA
BRANCH   8  10
ATOM     10  CA  GLU A   1      -6.423  20.386  68.822  0.00  0.00    +0.199 C 
BRANCH  10  11
ATOM     11  C   GLU A   1      -5.970  20.601  67.259  0.00  0.00    +0.384 C 
ATOM     12  OXT GLU A   1      -6.067  21.952  66.905  0.00  0.00    -0.244 OA
ATOM     13  O   GLU A   1      -4.972  19.892  66.980  0.00  0.00    -0.244 OA
ENDBRANCH  10  11
BRANCH  10  14
ATOM     14  CB  GLU A   1      -4.836  20.248  69.327  0.00  0.00    +0.045 C 
BRANCH  14  15
ATOM     15  CG  GLU A   1      -4.951  20.895  70.704  0.00  0.00    +0.116 C 
BRANCH  15  16
ATOM     16  CD  GLU A   1      -4.526  19.971  71.786  0.00  0.00    +0.365 C 
ATOM     17  OE2 GLU A   1      -5.207  18.782  71.952  0.00  0.00    -0.246 OA
ATOM     18  OE1 GLU A   1      -3.497  20.258  72.461  0.00  0.00    -0.246 OA
ENDBRANCH  15  16
ENDBRANCH  14  15
ENDBRANCH  10  14
ENDBRANCH   8  10
ENDBRANCH   4   7
BRANCH   1  19
ATOM     19  C   UNK A   0     -10.224  13.266  68.341  0.00  0.00    +0.031 C 
BRANCH  19  20
ATOM     20  C   UNK A   0     -11.719  13.531  68.472  0.00  0.00    +0.033 C 
BRANCH  20  30
ATOM     21  N   UNK A   0     -12.922  16.058  74.125  0.00  0.00    -0.086 NA
ATOM     22  C   UNK A   0     -12.904  15.535  73.069  0.00  0.00    +0.261 A 
ATOM     23  N   UNK A   0     -12.797  16.189  71.888  0.00  0.00    -0.172 NA
ATOM     24  C   UNK A   0     -12.630  15.515  70.725  0.00  0.00    +0.284 A 
ATOM     25  O   UNK A   0     -12.281  16.146  69.707  0.00  0.00    -0.265 OA
ATOM     26  C   UNK A   0     -12.663  14.128  70.703  0.00  0.00    +0.091 A 
ATOM     27  C   UNK A   0     -12.932  13.481  71.875  0.00  0.00    +0.170 A 
ATOM     28  N   UNK A   0     -12.965  12.160  71.576  0.00  0.00    -0.225 NA
ATOM     29  C   UNK A   0     -12.340  11.936  70.397  0.00  0.00    +0.097 A 
ATOM     30  C   UNK A   0     -12.111  13.187  69.853  0.00  0.00    +0.005 A 
ATOM     31  N   UNK A   0     -13.197  14.217  72.963  0.00  0.00    -0.192 NA
ENDBRANCH  20  30
ENDBRANCH  19  20
ENDBRANCH   1  19
TORSDOF 9
ENDMDL
MODEL 3
REMARK VINA RESULT:      -7.2      3.917      6.489
REMARK  Name = 
REMARK  9 active torsions:
REMARK  status: ('A' for Active; 'I' for Inactive)
REMARK    1  A    between atoms: C_7  and  C_8
REMARK    2  A    between atoms: C_8  and  C_9
REMARK    3  A    between atoms: C_9  and  C_10
REMARK    4  A    between atoms: C_13  and  C_14
REMARK    5  A    between atoms: N_16  and  CA_17
REMARK    6  A    between atoms: CA_17  and  CB_18
REMARK    7  A    between atoms: CA_17  and  C_23
REMARK    8  A    between atoms: CB_18  and  CG_19
REMARK    9  A    between atoms: CG_19  and  CD_20
REMARK                            x       y       z     vdW  Elec       q    Type
REMARK                         _______ _______ _______ _____ _____    ______ ____
ROOT
ATOM      1  C   UNK A   0     -10.922  12.125  66.382  0.00  0.00    -0.022 A 
ATOM      2  C   UNK A   0      -9.696  12.774  66.304  0.00  0.00    -0.004 A 
ATOM      3  C   UNK A   0      -9.685  14.029  65.751  0.00  0.00    +0.004 A 
ATOM      4  C   UNK A   0     -10.759  14.561  65.047  0.00  0.00    +0.055 A 
ATOM      5  C   UNK A   0     -11.820  13.721  64.849  0.00  0.00    +0.004 A 
ATOM      6  C   UNK A   0     -11.809  12.430  65.356  0.00  0.00    -0.004 A 
ENDROOT
BRANCH   4   7
ATOM      7  C   UNK A   0     -10.898  16.018  65.174  0.00  0.00    +0.265 C 
ATOM      8  N   GLU A   1     -10.293  16.644  66.261  0.00  0.00    -0.192 NA
ATOM      9  O   UNK A   0     -11.349  16.733  64.227  0.00  0.00    -0.268 OA
BRANCH   8  10
ATOM     10  CA  GLU A   1     -10.157  18.233  66.202  0.00  0.00    +0.199 C 
BRANCH  10  11
ATOM     11  C   GLU A   1      -8.542  18.188  66.492  0.00  0.00    +0.384 C 
ATOM     12  OXT GLU A   1      -7.930  17.218  65.691  0.00  0.00    -0.244 OA
ATOM     13  O   GLU A   1      -8.080  19.348  66.635  0.00  0.00    -0.244 OA
ENDBRANCH  10  11
BRANCH  10  14
ATOM     14  CB  GLU A   1     -10.506  18.407  67.827  0.00  0.00    +0.045 C 
BRANCH  14  15
ATOM     15  CG  GLU A   1      -9.865  17.129  68.362  0.00  0.00    +0.116 C 
BRANCH  15  16
ATOM     16  CD  GLU A   1     -10.772  16.400  69.284  0.00  0.00    +0.365 C 
ATOM     17  OE2 GLU A   1     -12.129  16.413  69.032  0.00  0.00    -0.246 OA
ATOM     18  OE1 GLU A   1     -10.267  15.715  70.218  0.00  0.00    -0.246 OA
ENDBRANCH  15  16
ENDBRANCH  14  15
ENDBRANCH  10  14
ENDBRANCH   8  10
ENDBRANCH   4   7
BRANCH   1  19
ATOM     19  C   UNK A   0     -10.930  10.720  66.874  0.00  0.00    +0.031 C 
BRANCH  19  20
ATOM     20  C   UNK A   0     -10.249  10.764  68.236  0.00  0.00    +0.033 C 
BRANCH  20  30
ATOM     21  N   UNK A   0     -14.331   8.771  72.614  0.00  0.00    -0.086 NA
ATOM     22  C   UNK A   0     -13.464   9.231  71.959  0.00  0.00    +0.261 A 
ATOM     23  N   UNK A   0     -12.476   8.512  71.377  0.00  0.00    -0.172 NA
ATOM     24  C   UNK A   0     -11.602   9.087  70.517  0.00  0.00    +0.284 A 
ATOM     25  O   UNK A   0     -10.879   8.355  69.812  0.00  0.00    -0.265 OA
ATOM     26  C   UNK A   0     -11.639  10.454  70.285  0.00  0.00    +0.091 A 
ATOM     27  C   UNK A   0     -12.536  11.195  71.000  0.00  0.00    +0.170 A 
ATOM     28  N   UNK A   0     -12.331  12.485  70.637  0.00  0.00    -0.225 NA
ATOM     29  C   UNK A   0     -11.657  12.536  69.465  0.00  0.00    +0.097 A 
ATOM     30  C   UNK A   0     -11.246  11.239  69.216  0.00  0.00    +0.005 A 
ATOM     31  N   UNK A   0     -13.291  10.573  71.915  0.00  0.00    -0.192 NA
ENDBRANCH  20  30
ENDBRANCH  19  20
ENDBRANCH   1  19
TORSDOF 9
ENDMDL
MODEL 4
REMARK VINA RESULT:      -7.2      5.075      8.290
REMARK  Name = 
REMARK  9 active torsions:
REMARK  status: ('A' for Active; 'I' for Inactive)
REMARK    1  A    between atoms: C_7  and  C_8
REMARK    2  A    between atoms: C_8  and  C_9
REMARK    3  A    between atoms: C_9  and  C_10
REMARK    4  A    between atoms: C_13  and  C_14
REMARK    5  A    between atoms: N_16  and  CA_17
REMARK    6  A    between atoms: CA_17  and  CB_18
REMARK    7  A    between atoms: CA_17  and  C_23
REMARK    8  A    between atoms: CB_18  and  CG_19
REMARK    9  A    between atoms: CG_19  and  CD_20
REMARK                            x       y       z     vdW  Elec       q    Type
REMARK                         _______ _______ _______ _____ _____    ______ ____
ROOT
ATOM      1  C   UNK A   0      -9.630  10.274  68.676  0.00  0.00    -0.022 A 
ATOM      2  C   UNK A   0      -8.854  11.412  68.491  0.00  0.00    -0.004 A 
ATOM      3  C   UNK A   0      -9.482  12.525  67.996  0.00  0.00    +0.004 A 
ATOM      4  C   UNK A   0     -10.755  12.498  67.439  0.00  0.00    +0.055 A 
ATOM      5  C   UNK A   0     -11.331  11.263  67.322  0.00  0.00    +0.004 A 
ATOM      6  C   UNK A   0     -10.673  10.127  67.768  0.00  0.00    -0.004 A 
ENDROOT
BRANCH   4   7
ATOM      7  C   UNK A   0     -11.527  13.731  67.644  0.00  0.00    +0.265 C 
ATOM      8  N   GLU A   1     -11.438  14.364  68.881  0.00  0.00    -0.192 NA
ATOM      9  O   UNK A   0     -12.080  14.343  66.680  0.00  0.00    -0.268 OA
BRANCH   8  10
ATOM     10  CA  GLU A   1     -11.993  15.857  68.975  0.00  0.00    +0.199 C 
BRANCH  10  11
ATOM     11  C   GLU A   1     -10.485  16.506  68.965  0.00  0.00    +0.384 C 
ATOM     12  OXT GLU A   1      -9.588  15.666  69.632  0.00  0.00    -0.244 OA
ATOM     13  O   GLU A   1     -10.231  17.032  67.853  0.00  0.00    -0.244 OA
ENDBRANCH  10  11
BRANCH  10  14
ATOM     14  CB  GLU A   1     -12.034  15.826  70.646  0.00  0.00    +0.045 C 
BRANCH  14  15
ATOM     15  CG  GLU A   1     -12.776  14.510  70.856  0.00  0.00    +0.116 C 
BRANCH  15  16
ATOM     16  CD  GLU A   1     -13.889  14.652  71.828  0.00  0.00    +0.365 C 
ATOM     17  OE2 GLU A   1     -14.292  13.544  72.545  0.00  0.00    -0.246 OA
ATOM     18  OE1 GLU A   1     -14.371  15.801  72.037  0.00  0.00    -0.246 OA
ENDBRANCH  15  16
ENDBRANCH  14  15
ENDBRANCH  10  14
ENDBRANCH   8  10
ENDBRANCH   4   7
BRANCH   1  19
ATOM     19  C   UNK A   0      -8.938   9.027  69.104  0.00  0.00    +0.031 C 
BRANCH  19  20
ATOM     20  C   UNK A   0      -9.216   8.901  70.596  0.00  0.00    +0.033 C 
BRANCH  20  30
ATOM     21  N   UNK A   0     -15.197   8.094  72.433  0.00  0.00    -0.086 NA
ATOM     22  C   UNK A   0     -14.151   8.190  71.897  0.00  0.00    +0.261 A 
ATOM     23  N   UNK A   0     -13.533   9.362  71.620  0.00  0.00    -0.172 NA
ATOM     24  C   UNK A   0     -12.267   9.392  71.140  0.00  0.00    +0.284 A 
ATOM     25  O   UNK A   0     -11.647  10.475  71.142  0.00  0.00    -0.265 OA
ATOM     26  C   UNK A   0     -11.604   8.215  70.828  0.00  0.00    +0.091 A 
ATOM     27  C   UNK A   0     -12.295   7.044  70.959  0.00  0.00    +0.170 A 
ATOM     28  N   UNK A   0     -11.456   6.065  70.540  0.00  0.00    -0.225 NA
ATOM     29  C   UNK A   0     -10.180   6.512  70.547  0.00  0.00    +0.097 A 
ATOM     30  C   UNK A   0     -10.264   7.876  70.768  0.00  0.00    +0.005 A 
ATOM     31  N   UNK A   0     -13.580   7.101  71.332  0.00  0.00    -0.192 NA
ENDBRANCH  20  30
ENDBRANCH  19  20
ENDBRANCH   1  19
TORSDOF 9
ENDMDL
MODEL 5
REMARK VINA RESULT:      -7.1      1.446      2.302
REMARK  Name = 
REMARK  9 active torsions:
REMARK  status: ('A' for Active; 'I' for Inactive)
REMARK    1  A    between atoms: C_7  and  C_8
REMARK    2  A    between atoms: C_8  and  C_9
REMARK    3  A    between atoms: C_9  and  C_10
REMARK    4  A    between atoms: C_13  and  C_14
REMARK    5  A    between atoms: N_16  and  CA_17
REMARK    6  A    between atoms: CA_17  and  CB_18
REMARK    7  A    between atoms: CA_17  and  C_23
REMARK    8  A    between atoms: CB_18  and  CG_19
REMARK    9  A    between atoms: CG_19  and  CD_20
REMARK                            x       y       z     vdW  Elec       q    Type
REMARK                         _______ _______ _______ _____ _____    ______ ____
ROOT
ATOM      1  C   UNK A   0      -7.846  16.892  67.334  0.00  0.00    -0.022 A 
ATOM      2  C   UNK A   0      -7.309  17.507  66.209  0.00  0.00    -0.004 A 
ATOM      3  C   UNK A   0      -6.794  18.768  66.369  0.00  0.00    +0.004 A 
ATOM      4  C   UNK A   0      -7.013  19.541  67.503  0.00  0.00    +0.055 A 
ATOM      5  C   UNK A   0      -7.861  19.011  68.436  0.00  0.00    +0.004 A 
ATOM      6  C   UNK A   0      -8.431  17.761  68.249  0.00  0.00    -0.004 A 
ENDROOT
BRANCH   4   7
ATOM      7  C   UNK A   0      -5.899  20.437  67.844  0.00  0.00    +0.265 C 
ATOM      8  N   GLU A   1      -4.712  19.865  68.295  0.00  0.00    -0.192 NA
ATOM      9  O   UNK A   0      -5.908  21.667  67.534  0.00  0.00    -0.268 OA
BRANCH   8  10
ATOM     10  CA  GLU A   1      -3.420  20.803  68.329  0.00  0.00    +0.199 C 
BRANCH  10  11
ATOM     11  C   GLU A   1      -2.601  19.854  67.269  0.00  0.00    +0.384 C 
ATOM     12  OXT GLU A   1      -3.206  18.596  67.173  0.00  0.00    -0.244 OA
ATOM     13  O   GLU A   1      -2.235  20.515  66.266  0.00  0.00    -0.244 OA
ENDBRANCH  10  11
BRANCH  10  14
ATOM     14  CB  GLU A   1      -2.770  20.001  69.644  0.00  0.00    +0.045 C 
BRANCH  14  15
ATOM     15  CG  GLU A   1      -2.641  21.171  70.615  0.00  0.00    +0.116 C 
BRANCH  15  16
ATOM     16  CD  GLU A   1      -3.670  21.117  71.684  0.00  0.00    +0.365 C 
ATOM     17  OE2 GLU A   1      -4.567  22.159  71.798  0.00  0.00    -0.246 OA
ATOM     18  OE1 GLU A   1      -3.752  20.077  72.398  0.00  0.00    -0.246 OA
ENDBRANCH  15  16
ENDBRANCH  14  15
ENDBRANCH  10  14
ENDBRANCH   8  10
ENDBRANCH   4   7
BRANCH   1  19
ATOM     19  C   UNK A   0      -8.511  15.573  67.149  0.00  0.00    +0.031 C 
BRANCH  19  20
ATOM     20  C   UNK A   0     -10.001  15.843  67.320  0.00  0.00    +0.033 C 
BRANCH  20  30
ATOM     21  N   UNK A   0     -12.898  11.862  63.376  0.00  0.00    -0.086 NA
ATOM     22  C   UNK A   0     -12.544  12.706  64.120  0.00  0.00    +0.261 A 
ATOM     23  N   UNK A   0     -12.298  12.515  65.437  0.00  0.00    -0.172 NA
ATOM     24  C   UNK A   0     -11.750  13.492  66.198  0.00  0.00    +0.284 A 
ATOM     25  O   UNK A   0     -11.305  13.201  67.327  0.00  0.00    -0.265 OA
ATOM     26  C   UNK A   0     -11.518  14.752  65.666  0.00  0.00    +0.091 A 
ATOM     27  C   UNK A   0     -11.919  14.982  64.381  0.00  0.00    +0.170 A 
ATOM     28  N   UNK A   0     -11.637  16.283  64.127  0.00  0.00    -0.225 NA
ATOM     29  C   UNK A   0     -10.731  16.745  65.020  0.00  0.00    +0.097 A 
ATOM     30  C   UNK A   0     -10.623  15.758  65.984  0.00  0.00    +0.005 A 
ATOM     31  N   UNK A   0     -12.555  14.001  63.727  0.00  0.00    -0.192 NA
ENDBRANCH  20  30
ENDBRANCH  19  20
ENDBRANCH   1  19
TORSDOF 9
ENDMDL
MODEL 6
REMARK VINA RESULT:      -7.1      2.731     10.041
REMARK  Name = 
REMARK  9 active torsions:
REMARK  status: ('A' for Active; 'I' for Inactive)
REMARK    1  A    between atoms: C_7  and  C_8
REMARK    2  A    between atoms: C_8  and  C_9
REMARK    3  A    between atoms: C_9  and  C_10
REMARK    4  A    between atoms: C_13  and  C_14
REMARK    5  A    between atoms: N_16  and  CA_17
REMARK    6  A    between atoms: CA_17  and  CB_18
REMARK    7  A    between atoms: CA_17  and  C_23
REMARK    8  A    between atoms: CB_18  and  CG_19
REMARK    9  A    between atoms: CG_19  and  CD_20
REMARK                            x       y       z     vdW  Elec       q    Type
REMARK                         _______ _______ _______ _____ _____    ______ ____
ROOT
ATOM      1  C   UNK A   0      -8.158  19.640  66.772  0.00  0.00    -0.022 A 
ATOM      2  C   UNK A   0      -7.876  18.323  67.112  0.00  0.00    -0.004 A 
ATOM      3  C   UNK A   0      -8.783  17.368  66.729  0.00  0.00    +0.004 A 
ATOM      4  C   UNK A   0     -10.058  17.672  66.266  0.00  0.00    +0.055 A 
ATOM      5  C   UNK A   0     -10.407  18.993  66.295  0.00  0.00    +0.004 A 
ATOM      6  C   UNK A   0      -9.511  19.956  66.738  0.00  0.00    -0.004 A 
ENDROOT
BRANCH   4   7
ATOM      7  C   UNK A   0     -10.577  16.723  65.272  0.00  0.00    +0.265 C 
ATOM      8  N   GLU A   1     -10.433  15.362  65.525  0.00  0.00    -0.192 NA
ATOM      9  O   UNK A   0     -11.335  17.093  64.324  0.00  0.00    -0.268 OA
BRANCH   8  10
ATOM     10  CA  GLU A   1     -11.291  14.359  64.627  0.00  0.00    +0.199 C 
BRANCH  10  11
ATOM     11  C   GLU A   1     -12.320  14.007  65.858  0.00  0.00    +0.384 C 
ATOM     12  OXT GLU A   1     -11.841  14.539  67.060  0.00  0.00    -0.244 OA
ATOM     13  O   GLU A   1     -13.515  14.119  65.488  0.00  0.00    -0.244 OA
ENDBRANCH  10  11
BRANCH  10  14
ATOM     14  CB  GLU A   1     -10.310  13.057  64.994  0.00  0.00    +0.045 C 
BRANCH  14  15
ATOM     15  CG  GLU A   1     -10.846  12.045  63.986  0.00  0.00    +0.116 C 
BRANCH  15  16
ATOM     16  CD  GLU A   1      -9.817  11.045  63.606  0.00  0.00    +0.365 C 
ATOM     17  OE2 GLU A   1      -9.116  11.225  62.431  0.00  0.00    -0.246 OA
ATOM     18  OE1 GLU A   1      -9.549  10.110  64.414  0.00  0.00    -0.246 OA
ENDBRANCH  15  16
ENDBRANCH  14  15
ENDBRANCH  10  14
ENDBRANCH   8  10
ENDBRANCH   4   7
BRANCH   1  19
ATOM     19  C   UNK A   0      -7.240  20.697  67.280  0.00  0.00    +0.031 C 
BRANCH  19  20
ATOM     20  C   UNK A   0      -6.819  20.234  68.668  0.00  0.00    +0.033 C 
BRANCH  20  30
ATOM     21  N   UNK A   0      -1.938  21.288  72.524  0.00  0.00    -0.086 NA
ATOM     22  C   UNK A   0      -2.780  20.890  71.800  0.00  0.00    +0.261 A 
ATOM     23  N   UNK A   0      -4.074  20.707  72.153  0.00  0.00    -0.172 NA
ATOM     24  C   UNK A   0      -5.015  20.392  71.231  0.00  0.00    +0.284 A 
ATOM     25  O   UNK A   0      -6.220  20.485  71.542  0.00  0.00    -0.265 OA
ATOM     26  C   UNK A   0      -4.657  20.152  69.912  0.00  0.00    +0.091 A 
ATOM     27  C   UNK A   0      -3.328  20.182  69.601  0.00  0.00    +0.170 A 
ATOM     28  N   UNK A   0      -3.244  19.861  68.287  0.00  0.00    -0.225 NA
ATOM     29  C   UNK A   0      -4.445  20.035  67.688  0.00  0.00    +0.097 A 
ATOM     30  C   UNK A   0      -5.343  20.259  68.716  0.00  0.00    +0.005 A 
ATOM     31  N   UNK A   0      -2.447  20.389  70.587  0.00  0.00    -0.192 NA
ENDBRANCH  20  30
ENDBRANCH  19  20
ENDBRANCH   1  19
TORSDOF 9
ENDMDL
MODEL 7
REMARK VINA RESULT:      -7.0      6.549      9.541
REMARK  Name = 
REMARK  9 active torsions:
REMARK  status: ('A' for Active; 'I' for Inactive)
REMARK    1  A    between atoms: C_7  and  C_8
REMARK    2  A    between atoms: C_8  and  C_9
REMARK    3  A    between atoms: C_9  and  C_10
REMARK    4  A    between atoms: C_13  and  C_14
REMARK    5  A    between atoms: N_16  and  CA_17
REMARK    6  A    between atoms: CA_17  and  CB_18
REMARK    7  A    between atoms: CA_17  and  C_23
REMARK    8  A    between atoms: CB_18  and  CG_19
REMARK    9  A    between atoms: CG_19  and  CD_20
REMARK                            x       y       z     vdW  Elec       q    Type
REMARK                         _______ _______ _______ _____ _____    ______ ____
ROOT
ATOM      1  C   UNK A   0     -11.305   8.720  71.310  0.00  0.00    -0.022 A 
ATOM      2  C   UNK A   0     -11.205   9.500  70.164  0.00  0.00    -0.004 A 
ATOM      3  C   UNK A   0     -11.897  10.684  70.149  0.00  0.00    +0.004 A 
ATOM      4  C   UNK A   0     -12.873  11.008  71.083  0.00  0.00    +0.055 A 
ATOM      5  C   UNK A   0     -13.184  10.031  71.988  0.00  0.00    +0.004 A 
ATOM      6  C   UNK A   0     -12.526   8.810  71.970  0.00  0.00    -0.004 A 
ENDROOT
BRANCH   4   7
ATOM      7  C   UNK A   0     -12.965  12.443  71.384  0.00  0.00    +0.265 C 
ATOM      8  N   GLU A   1     -12.266  13.330  70.570  0.00  0.00    -0.192 NA
ATOM      9  O   UNK A   0     -13.818  12.903  72.202  0.00  0.00    -0.268 OA
BRANCH   8  10
ATOM     10  CA  GLU A   1     -12.643  14.877  70.688  0.00  0.00    +0.199 C 
BRANCH  10  11
ATOM     11  C   GLU A   1     -11.640  15.301  69.460  0.00  0.00    +0.384 C 
ATOM     12  OXT GLU A   1     -11.358  14.191  68.656  0.00  0.00    -0.244 OA
ATOM     13  O   GLU A   1     -11.955  16.422  68.991  0.00  0.00    -0.244 OA
ENDBRANCH  10  11
BRANCH  10  14
ATOM     14  CB  GLU A   1     -11.461  15.164  71.834  0.00  0.00    +0.045 C 
BRANCH  14  15
ATOM     15  CG  GLU A   1     -12.101  16.336  72.571  0.00  0.00    +0.116 C 
BRANCH  15  16
ATOM     16  CD  GLU A   1     -12.318  16.034  74.008  0.00  0.00    +0.365 C 
ATOM     17  OE2 GLU A   1     -12.345  14.715  74.415  0.00  0.00    -0.246 OA
ATOM     18  OE1 GLU A   1     -12.378  16.993  74.829  0.00  0.00    -0.246 OA
ENDBRANCH  15  16
ENDBRANCH  14  15
ENDBRANCH  10  14
ENDBRANCH   8  10
ENDBRANCH   4   7
BRANCH   1  19
ATOM     19  C   UNK A   0     -10.653   7.382  71.295  0.00  0.00    +0.031 C 
BRANCH  19  20
ATOM     20  C   UNK A   0     -11.412   6.573  70.251  0.00  0.00    +0.033 C 
BRANCH  20  30
ATOM     21  N   UNK A   0      -9.410   3.065  65.406  0.00  0.00    -0.086 NA
ATOM     22  C   UNK A   0      -9.579   3.774  66.333  0.00  0.00    +0.261 A 
ATOM     23  N   UNK A   0     -10.165   4.993  66.271  0.00  0.00    -0.172 NA
ATOM     24  C   UNK A   0     -10.462   5.687  67.395  0.00  0.00    +0.284 A 
ATOM     25  O   UNK A   0     -11.223   6.673  67.313  0.00  0.00    -0.265 OA
ATOM     26  C   UNK A   0     -10.085   5.206  68.640  0.00  0.00    +0.091 A 
ATOM     27  C   UNK A   0      -9.353   4.054  68.680  0.00  0.00    +0.170 A 
ATOM     28  N   UNK A   0      -9.065   3.837  69.987  0.00  0.00    -0.225 NA
ATOM     29  C   UNK A   0      -9.907   4.548  70.771  0.00  0.00    +0.097 A 
ATOM     30  C   UNK A   0     -10.587   5.396  69.915  0.00  0.00    +0.005 A 
ATOM     31  N   UNK A   0      -9.000   3.483  67.521  0.00  0.00    -0.192 NA
ENDBRANCH  20  30
ENDBRANCH  19  20
ENDBRANCH   1  19
TORSDOF 9
ENDMDL
MODEL 8
REMARK VINA RESULT:      -6.9      1.423      2.710
REMARK  Name = 
REMARK  9 active torsions:
REMARK  status: ('A' for Active; 'I' for Inactive)
REMARK    1  A    between atoms: C_7  and  C_8
REMARK    2  A    between atoms: C_8  and  C_9
REMARK    3  A    between atoms: C_9  and  C_10
REMARK    4  A    between atoms: C_13  and  C_14
REMARK    5  A    between atoms: N_16  and  CA_17
REMARK    6  A    between atoms: CA_17  and  CB_18
REMARK    7  A    between atoms: CA_17  and  C_23
REMARK    8  A    between atoms: CB_18  and  CG_19
REMARK    9  A    between atoms: CG_19  and  CD_20
REMARK                            x       y       z     vdW  Elec       q    Type
REMARK                         _______ _______ _______ _____ _____    ______ ____
ROOT
ATOM      1  C   UNK A   0      -9.369  17.469  66.622  0.00  0.00    -0.022 A 
ATOM      2  C   UNK A   0      -9.749  18.793  66.437  0.00  0.00    -0.004 A 
ATOM      3  C   UNK A   0      -8.944  19.759  66.984  0.00  0.00    +0.004 A 
ATOM      4  C   UNK A   0      -7.943  19.483  67.908  0.00  0.00    +0.055 A 
ATOM      5  C   UNK A   0      -7.855  18.184  68.326  0.00  0.00    +0.004 A 
ATOM      6  C   UNK A   0      -8.708  17.215  67.818  0.00  0.00    -0.004 A 
ENDROOT
BRANCH   4   7
ATOM      7  C   UNK A   0      -6.785  20.383  67.826  0.00  0.00    +0.265 C 
ATOM      8  N   GLU A   1      -5.590  19.969  68.408  0.00  0.00    -0.192 NA
ATOM      9  O   UNK A   0      -6.778  21.398  67.066  0.00  0.00    -0.268 OA
BRANCH   8  10
ATOM     10  CA  GLU A   1      -4.272  20.782  68.019  0.00  0.00    +0.199 C 
BRANCH  10  11
ATOM     11  C   GLU A   1      -3.551  19.460  67.364  0.00  0.00    +0.384 C 
ATOM     12  OXT GLU A   1      -3.931  18.305  68.055  0.00  0.00    -0.244 OA
ATOM     13  O   GLU A   1      -3.535  19.533  66.111  0.00  0.00    -0.244 OA
ENDBRANCH  10  11
BRANCH  10  14
ATOM     14  CB  GLU A   1      -3.562  20.507  69.507  0.00  0.00    +0.045 C 
BRANCH  14  15
ATOM     15  CG  GLU A   1      -4.660  21.052  70.416  0.00  0.00    +0.116 C 
BRANCH  15  16
ATOM     16  CD  GLU A   1      -4.185  21.229  71.811  0.00  0.00    +0.365 C 
ATOM     17  OE2 GLU A   1      -4.426  22.428  72.450  0.00  0.00    -0.246 OA
ATOM     18  OE1 GLU A   1      -3.656  20.245  72.403  0.00  0.00    -0.246 OA
ENDBRANCH  15  16
ENDBRANCH  14  15
ENDBRANCH  10  14
ENDBRANCH   8  10
ENDBRANCH   4   7
BRANCH   1  19
ATOM     19  C   UNK A   0     -10.293  16.409  66.133  0.00  0.00    +0.031 C 
BRANCH  19  20
ATOM     20  C   UNK A   0     -10.882  15.777  67.387  0.00  0.00    +0.033 C 
BRANCH  20  30
ATOM     21  N   UNK A   0     -11.876  10.194  70.152  0.00  0.00    -0.086 NA
ATOM     22  C   UNK A   0     -11.889  11.215  69.561  0.00  0.00    +0.261 A 
ATOM     23  N   UNK A   0     -11.963  12.437  70.139  0.00  0.00    -0.172 NA
ATOM     24  C   UNK A   0     -11.821  13.569  69.409  0.00  0.00    +0.284 A 
ATOM     25  O   UNK A   0     -11.639  14.651  70.003  0.00  0.00    -0.265 OA
ATOM     26  C   UNK A   0     -11.691  13.505  68.029  0.00  0.00    +0.091 A 
ATOM     27  C   UNK A   0     -11.779  12.277  67.439  0.00  0.00    +0.170 A 
ATOM     28  N   UNK A   0     -11.683  12.493  66.105  0.00  0.00    -0.225 NA
ATOM     29  C   UNK A   0     -11.141  13.710  65.870  0.00  0.00    +0.097 A 
ATOM     30  C   UNK A   0     -11.109  14.347  67.098  0.00  0.00    +0.005 A 
ATOM     31  N   UNK A   0     -12.033  11.215  68.215  0.00  0.00    -0.192 NA
ENDBRANCH  20  30
ENDBRANCH  19  20
ENDBRANCH   1  19
TORSDOF 9
ENDMDL
MODEL 9
REMARK VINA RESULT:      -6.9      1.649      2.477
REMARK  Name = 
REMARK  9 active torsions:
REMARK  status: ('A' for Active; 'I' for Inactive)
REMARK    1  A    between atoms: C_7  and  C_8
REMARK    2  A    between atoms: C_8  and  C_9
REMARK    3  A    between atoms: C_9  and  C_10
REMARK    4  A    between atoms: C_13  and  C_14
REMARK    5  A    between atoms: N_16  and  CA_17
REMARK    6  A    between atoms: CA_17  and  CB_18
REMARK    7  A    between atoms: CA_17  and  C_23
REMARK    8  A    between atoms: CB_18  and  CG_19
REMARK    9  A    between atoms: CG_19  and  CD_20
REMARK                            x       y       z     vdW  Elec       q    Type
REMARK                         _______ _______ _______ _____ _____    ______ ____
ROOT
ATOM      1  C   UNK A   0      -9.848  17.762  66.708  0.00  0.00    -0.022 A 
ATOM      2  C   UNK A   0      -8.580  17.574  66.173  0.00  0.00    -0.004 A 
ATOM      3  C   UNK A   0      -7.664  18.576  66.362  0.00  0.00    +0.004 A 
ATOM      4  C   UNK A   0      -8.005  19.844  66.818  0.00  0.00    +0.055 A 
ATOM      5  C   UNK A   0      -9.341  20.080  66.988  0.00  0.00    +0.004 A 
ATOM      6  C   UNK A   0     -10.276  19.085  66.740  0.00  0.00    -0.004 A 
ENDROOT
BRANCH   4   7
ATOM      7  C   UNK A   0      -6.964  20.493  67.627  0.00  0.00    +0.265 C 
ATOM      8  N   GLU A   1      -6.322  19.734  68.602  0.00  0.00    -0.192 NA
ATOM      9  O   UNK A   0      -6.487  21.627  67.320  0.00  0.00    -0.268 OA
BRANCH   8  10
ATOM     10  CA  GLU A   1      -4.980  20.334  69.224  0.00  0.00    +0.199 C 
BRANCH  10  11
ATOM     11  C   GLU A   1      -4.024  19.354  68.320  0.00  0.00    +0.384 C 
ATOM     12  OXT GLU A   1      -2.678  19.549  68.646  0.00  0.00    -0.244 OA
ATOM     13  O   GLU A   1      -4.539  18.215  68.196  0.00  0.00    -0.244 OA
ENDBRANCH  10  11
BRANCH  10  14
ATOM     14  CB  GLU A   1      -4.988  19.252  70.498  0.00  0.00    +0.045 C 
BRANCH  14  15
ATOM     15  CG  GLU A   1      -5.393  20.194  71.628  0.00  0.00    +0.116 C 
BRANCH  15  16
ATOM     16  CD  GLU A   1      -4.234  20.962  72.149  0.00  0.00    +0.365 C 
ATOM     17  OE2 GLU A   1      -3.091  20.280  72.511  0.00  0.00    -0.246 OA
ATOM     18  OE1 GLU A   1      -4.297  22.225  72.159  0.00  0.00    -0.246 OA
ENDBRANCH  15  16
ENDBRANCH  14  15
ENDBRANCH  10  14
ENDBRANCH   8  10
ENDBRANCH   4   7
BRANCH   1  19
ATOM     19  C   UNK A   0     -10.884  16.735  66.412  0.00  0.00    +0.031 C 
BRANCH  19  20
ATOM     20  C   UNK A   0     -10.225  15.766  65.438  0.00  0.00    +0.033 C 
BRANCH  20  30
ATOM     21  N   UNK A   0     -10.810   9.899  67.681  0.00  0.00    -0.086 NA
ATOM     22  C   UNK A   0     -10.881  11.034  67.369  0.00  0.00    +0.261 A 
ATOM     23  N   UNK A   0     -10.077  12.013  67.845  0.00  0.00    -0.172 NA
ATOM     24  C   UNK A   0     -10.115  13.265  67.330  0.00  0.00    +0.284 A 
ATOM     25  O   UNK A   0      -9.196  14.061  67.610  0.00  0.00    -0.265 OA
ATOM     26  C   UNK A   0     -11.052  13.601  66.364  0.00  0.00    +0.091 A 
ATOM     27  C   UNK A   0     -11.964  12.650  66.007  0.00  0.00    +0.170 A 
ATOM     28  N   UNK A   0     -12.789  13.239  65.108  0.00  0.00    -0.225 NA
ATOM     29  C   UNK A   0     -12.203  14.346  64.596  0.00  0.00    +0.097 A 
ATOM     30  C   UNK A   0     -11.075  14.561  65.368  0.00  0.00    +0.005 A 
ATOM     31  N   UNK A   0     -11.935  11.470  66.640  0.00  0.00    -0.192 NA
ENDBRANCH  20  30
ENDBRANCH  19  20
ENDBRANCH   1  19
TORSDOF 9
ENDMDL
