MODEL 1
REMARK VINA RESULT:      -5.8      0.000      0.000
REMARK  Name = 
REMARK  5 active torsions:
REMARK  status: ('A' for Active; 'I' for Inactive)
REMARK    1  A    between atoms: N_2  and  C_4
REMARK    2  A    between atoms: C_4  and  C_5
REMARK    3  A    between atoms: C_5  and  C_6
REMARK    4  A    between atoms: C_6  and  C_8
REMARK    5  A    between atoms: C_6  and  C_14
REMARK                            x       y       z     vdW  Elec       q    Type
REMARK                         _______ _______ _______ _____ _____    ______ ____
ROOT
ATOM      1  C   UNL     1     -11.263  13.805  66.869  0.00  0.00    +0.166 C 
ATOM      2  O   UNL     1     -12.347  14.640  66.550  0.00  0.00    -0.217 OA
ENDROOT
BRANCH   1   3
ATOM      3  C   UNL     1     -11.495  13.307  68.238  0.00  0.00    +0.020 A 
ATOM      4  C   UNL     1     -11.897  14.179  69.234  0.00  0.00    +0.056 A 
ATOM      5 CL   UNL     1     -11.396  15.854  69.146  0.00  0.00    -0.082 Cl
ATOM      6  C   UNL     1     -12.325  13.634  70.425  0.00  0.00    +0.011 A 
ATOM      7  C   UNL     1     -12.355  12.263  70.629  0.00  0.00    +0.001 A 
ATOM      8  C   UNL     1     -11.692  11.463  69.719  0.00  0.00    -0.000 A 
ATOM      9  C   UNL     1     -11.298  11.968  68.503  0.00  0.00    -0.001 A 
ENDBRANCH   1   3
BRANCH   1  10
ATOM     10  C   UNL     1     -11.313  12.686  65.879  0.00  0.00    +0.009 A 
ATOM     11  C   UNL     1     -10.107  12.229  65.365  0.00  0.00    -0.002 A 
ATOM     12  C   UNL     1     -10.034  11.453  64.231  0.00  0.00    -0.000 A 
ATOM     13  C   UNL     1     -11.185  11.325  63.475  0.00  0.00    -0.000 A 
ATOM     14  C   UNL     1     -12.320  12.062  63.781  0.00  0.00    -0.000 A 
ATOM     15  C   UNL     1     -12.360  12.750  64.967  0.00  0.00    -0.002 A 
ENDBRANCH   1  10
BRANCH   1  16
ATOM     16  C   UNL     1     -10.023  14.640  66.734  0.00  0.00    +0.056 C 
BRANCH  16  17
ATOM     17  C   UNL     1     -10.323  15.735  65.728  0.00  0.00    +0.075 C 
BRANCH  17  19
ATOM     18  C   UNL     1      -8.572  16.603  66.242  0.00  0.00    +0.090 C 
ATOM     19  N   UNL     1      -9.373  16.820  65.843  0.00  0.00    -0.270 NA
ATOM     20  C   UNL     1     -10.039  17.965  66.427  0.00  0.00    +0.090 C 
ENDBRANCH  17  19
ENDBRANCH  16  17
ENDBRANCH   1  16
TORSDOF 5
ENDMDL
MODEL 2
REMARK VINA RESULT:      -5.7      2.970      5.415
REMARK  Name = 
REMARK  5 active torsions:
REMARK  status: ('A' for Active; 'I' for Inactive)
REMARK    1  A    between atoms: N_2  and  C_4
REMARK    2  A    between atoms: C_4  and  C_5
REMARK    3  A    between atoms: C_5  and  C_6
REMARK    4  A    between atoms: C_6  and  C_8
REMARK    5  A    between atoms: C_6  and  C_14
REMARK                            x       y       z     vdW  Elec       q    Type
REMARK                         _______ _______ _______ _____ _____    ______ ____
ROOT
ATOM      1  C   UNL     1     -11.299  15.138  69.764  0.00  0.00    +0.166 C 
ATOM      2  O   UNL     1     -12.408  15.928  69.419  0.00  0.00    -0.217 OA
ENDROOT
BRANCH   1   3
ATOM      3  C   UNL     1     -11.590  13.767  69.306  0.00  0.00    +0.020 A 
ATOM      4  C   UNL     1     -11.532  13.460  67.958  0.00  0.00    +0.056 A 
ATOM      5 CL   UNL     1     -11.899  14.710  66.788  0.00  0.00    -0.082 Cl
ATOM      6  C   UNL     1     -11.578  12.129  67.604  0.00  0.00    +0.011 A 
ATOM      7  C   UNL     1     -11.679  11.126  68.554  0.00  0.00    +0.001 A 
ATOM      8  C   UNL     1     -12.008  11.495  69.845  0.00  0.00    -0.000 A 
ATOM      9  C   UNL     1     -11.923  12.808  70.239  0.00  0.00    -0.001 A 
ENDBRANCH   1   3
BRANCH   1  10
ATOM     10  C   UNL     1     -10.143  15.717  69.013  0.00  0.00    +0.009 A 
ATOM     11  C   UNL     1      -8.871  15.273  69.349  0.00  0.00    -0.002 A 
ATOM     12  C   UNL     1      -7.731  15.948  68.977  0.00  0.00    -0.000 A 
ATOM     13  C   UNL     1      -7.889  17.217  68.450  0.00  0.00    -0.000 A 
ATOM     14  C   UNL     1      -9.135  17.826  68.428  0.00  0.00    -0.000 A 
ATOM     15  C   UNL     1     -10.242  17.075  68.731  0.00  0.00    -0.002 A 
ENDBRANCH   1  10
BRANCH   1  16
ATOM     16  C   UNL     1     -11.136  15.254  71.252  0.00  0.00    +0.056 C 
BRANCH  16  17
ATOM     17  C   UNL     1     -12.263  16.130  71.764  0.00  0.00    +0.075 C 
BRANCH  17  19
ATOM     18  C   UNL     1     -13.989  15.626  72.687  0.00  0.00    +0.090 C 
ATOM     19  N   UNL     1     -13.094  15.410  72.704  0.00  0.00    -0.270 NA
ATOM     20  C   UNL     1     -12.488  15.486  74.017  0.00  0.00    +0.090 C 
ENDBRANCH  17  19
ENDBRANCH  16  17
ENDBRANCH   1  16
TORSDOF 5
ENDMDL
MODEL 3
REMARK VINA RESULT:      -5.7      1.485      4.422
REMARK  Name = 
REMARK  5 active torsions:
REMARK  status: ('A' for Active; 'I' for Inactive)
REMARK    1  A    between atoms: N_2  and  C_4
REMARK    2  A    between atoms: C_4  and  C_5
REMARK    3  A    between atoms: C_5  and  C_6
REMARK    4  A    between atoms: C_6  and  C_8
REMARK    5  A    between atoms: C_6  and  C_14
REMARK                            x       y       z     vdW  Elec       q    Type
REMARK                         _______ _______ _______ _____ _____    ______ ____
ROOT
ATOM      1  C   UNL     1     -10.373  14.208  66.587  0.00  0.00    +0.166 C 
ATOM      2  O   UNL     1      -9.153  13.831  67.172  0.00  0.00    -0.217 OA
ENDROOT
BRANCH   1   3
ATOM      3  C   UNL     1     -10.720  13.162  65.607  0.00  0.00    +0.020 A 
ATOM      4  C   UNL     1     -11.824  13.319  64.788  0.00  0.00    +0.056 A 
ATOM      5 CL   UNL     1     -13.188  14.246  65.373  0.00  0.00    -0.082 Cl
ATOM      6  C   UNL     1     -11.969  12.438  63.737  0.00  0.00    +0.011 A 
ATOM      7  C   UNL     1     -11.051  11.428  63.501  0.00  0.00    +0.001 A 
ATOM      8  C   UNL     1     -10.134  11.148  64.497  0.00  0.00    -0.000 A 
ATOM      9  C   UNL     1      -9.932  12.032  65.529  0.00  0.00    -0.001 A 
ENDBRANCH   1   3
BRANCH   1  10
ATOM     10  C   UNL     1     -11.363  14.238  67.707  0.00  0.00    +0.009 A 
ATOM     11  C   UNL     1     -11.481  15.418  68.428  0.00  0.00    -0.002 A 
ATOM     12  C   UNL     1     -12.096  15.475  69.658  0.00  0.00    -0.000 A 
ATOM     13  C   UNL     1     -12.397  14.272  70.272  0.00  0.00    -0.000 A 
ATOM     14  C   UNL     1     -11.970  13.070  69.724  0.00  0.00    -0.000 A 
ATOM     15  C   UNL     1     -11.439  13.073  68.460  0.00  0.00    -0.002 A 
ENDBRANCH   1  10
BRANCH   1  16
ATOM     16  C   UNL     1     -10.155  15.560  65.973  0.00  0.00    +0.056 C 
BRANCH  16  17
ATOM     17  C   UNL     1      -8.684  15.895  66.126  0.00  0.00    +0.075 C 
BRANCH  17  19
ATOM     18  C   UNL     1      -7.604  17.602  66.126  0.00  0.00    +0.090 C 
ATOM     19  N   UNL     1      -8.446  17.304  65.903  0.00  0.00    -0.270 NA
ATOM     20  C   UNL     1      -9.524  18.062  66.504  0.00  0.00    +0.090 C 
ENDBRANCH  17  19
ENDBRANCH  16  17
ENDBRANCH   1  16
TORSDOF 5
ENDMDL
MODEL 4
REMARK VINA RESULT:      -5.6      2.035      4.222
REMARK  Name = 
REMARK  5 active torsions:
REMARK  status: ('A' for Active; 'I' for Inactive)
REMARK    1  A    between atoms: N_2  and  C_4
REMARK    2  A    between atoms: C_4  and  C_5
REMARK    3  A    between atoms: C_5  and  C_6
REMARK    4  A    between atoms: C_6  and  C_8
REMARK    5  A    between atoms: C_6  and  C_14
REMARK                            x       y       z     vdW  Elec       q    Type
REMARK                         _______ _______ _______ _____ _____    ______ ____
ROOT
ATOM      1  C   UNL     1     -11.098  14.249  66.366  0.00  0.00    +0.166 C 
ATOM      2  O   UNL     1     -12.500  14.199  66.440  0.00  0.00    -0.217 OA
ENDROOT
BRANCH   1   3
ATOM      3  C   UNL     1     -10.684  15.545  66.934  0.00  0.00    +0.020 A 
ATOM      4  C   UNL     1     -10.825  15.784  68.289  0.00  0.00    +0.056 A 
ATOM      5 CL   UNL     1     -12.120  14.992  69.159  0.00  0.00    -0.082 Cl
ATOM      6  C   UNL     1     -10.212  16.905  68.806  0.00  0.00    +0.011 A 
ATOM      7  C   UNL     1      -9.481  17.770  68.007  0.00  0.00    +0.001 A 
ATOM      8  C   UNL     1      -9.603  17.637  66.637  0.00  0.00    -0.000 A 
ATOM      9  C   UNL     1     -10.164  16.507  66.093  0.00  0.00    -0.001 A 
ENDBRANCH   1   3
BRANCH   1  10
ATOM     10  C   UNL     1     -10.611  13.116  67.212  0.00  0.00    +0.009 A 
ATOM     11  C   UNL     1      -9.270  12.770  67.111  0.00  0.00    -0.002 A 
ATOM     12  C   UNL     1      -8.780  11.569  67.571  0.00  0.00    -0.000 A 
ATOM     13  C   UNL     1      -9.703  10.606  67.935  0.00  0.00    -0.000 A 
ATOM     14  C   UNL     1     -11.059  10.803  67.713  0.00  0.00    -0.000 A 
ATOM     15  C   UNL     1     -11.491  12.048  67.333  0.00  0.00    -0.002 A 
ENDBRANCH   1  10
BRANCH   1  16
ATOM     16  C   UNL     1     -10.738  14.083  64.917  0.00  0.00    +0.056 C 
BRANCH  16  17
ATOM     17  C   UNL     1     -12.016  13.757  64.169  0.00  0.00    +0.075 C 
BRANCH  17  19
ATOM     18  C   UNL     1     -12.517  11.945  63.428  0.00  0.00    +0.090 C 
ATOM     19  N   UNL     1     -11.851  12.575  63.351  0.00  0.00    -0.270 NA
ATOM     20  C   UNL     1     -10.514  12.055  63.544  0.00  0.00    +0.090 C 
ENDBRANCH  17  19
ENDBRANCH  16  17
ENDBRANCH   1  16
TORSDOF 5
ENDMDL
MODEL 5
REMARK VINA RESULT:      -5.5      2.025      4.250
REMARK  Name = 
REMARK  5 active torsions:
REMARK  status: ('A' for Active; 'I' for Inactive)
REMARK    1  A    between atoms: N_2  and  C_4
REMARK    2  A    between atoms: C_4  and  C_5
REMARK    3  A    between atoms: C_5  and  C_6
REMARK    4  A    between atoms: C_6  and  C_8
REMARK    5  A    between atoms: C_6  and  C_14
REMARK                            x       y       z     vdW  Elec       q    Type
REMARK                         _______ _______ _______ _____ _____    ______ ____
ROOT
ATOM      1  C   UNL     1     -10.793  13.469  67.593  0.00  0.00    +0.166 C 
ATOM      2  O   UNL     1      -9.763  13.125  66.701  0.00  0.00    -0.217 OA
ENDROOT
BRANCH   1   3
ATOM      3  C   UNL     1     -10.859  12.399  68.606  0.00  0.00    +0.020 A 
ATOM      4  C   UNL     1     -11.828  12.437  69.592  0.00  0.00    +0.056 A 
ATOM      5 CL   UNL     1     -12.420  13.992  70.139  0.00  0.00    -0.082 Cl
ATOM      6  C   UNL     1     -11.999  11.308  70.363  0.00  0.00    +0.011 A 
ATOM      7  C   UNL     1     -11.232  10.170  70.168  0.00  0.00    +0.001 A 
ATOM      8  C   UNL     1     -10.110  10.281  69.370  0.00  0.00    -0.000 A 
ATOM      9  C   UNL     1      -9.939  11.373  68.554  0.00  0.00    -0.001 A 
ENDBRANCH   1   3
BRANCH   1  10
ATOM     10  C   UNL     1     -10.372  14.763  68.212  0.00  0.00    +0.009 A 
ATOM     11  C   UNL     1     -10.855  15.934  67.643  0.00  0.00    -0.002 A 
ATOM     12  C   UNL     1     -10.296  17.166  67.900  0.00  0.00    -0.000 A 
ATOM     13  C   UNL     1      -9.085  17.186  68.568  0.00  0.00    -0.000 A 
ATOM     14  C   UNL     1      -8.407  16.007  68.841  0.00  0.00    -0.000 A 
ATOM     15  C   UNL     1      -9.050  14.813  68.638  0.00  0.00    -0.002 A 
ENDBRANCH   1  10
BRANCH   1  16
ATOM     16  C   UNL     1     -12.044  13.601  66.774  0.00  0.00    +0.056 C 
BRANCH  16  17
ATOM     17  C   UNL     1     -11.952  12.596  65.642  0.00  0.00    +0.075 C 
BRANCH  17  19
ATOM     18  C   UNL     1     -12.169  12.737  63.639  0.00  0.00    +0.090 C 
ATOM     19  N   UNL     1     -12.453  13.157  64.407  0.00  0.00    -0.270 NA
ATOM     20  C   UNL     1     -12.234  14.588  64.420  0.00  0.00    +0.090 C 
ENDBRANCH  17  19
ENDBRANCH  16  17
ENDBRANCH   1  16
TORSDOF 5
ENDMDL
MODEL 6
REMARK VINA RESULT:      -5.5      2.086      3.991
REMARK  Name = 
REMARK  5 active torsions:
REMARK  status: ('A' for Active; 'I' for Inactive)
REMARK    1  A    between atoms: N_2  and  C_4
REMARK    2  A    between atoms: C_4  and  C_5
REMARK    3  A    between atoms: C_5  and  C_6
REMARK    4  A    between atoms: C_6  and  C_8
REMARK    5  A    between atoms: C_6  and  C_14
REMARK                            x       y       z     vdW  Elec       q    Type
REMARK                         _______ _______ _______ _____ _____    ______ ____
ROOT
ATOM      1  C   UNL     1     -10.749  13.948  66.772  0.00  0.00    +0.166 C 
ATOM      2  O   UNL     1     -10.385  12.813  67.516  0.00  0.00    -0.217 OA
ENDROOT
BRANCH   1   3
ATOM      3  C   UNL     1      -9.557  14.813  66.698  0.00  0.00    +0.020 A 
ATOM      4  C   UNL     1      -9.649  16.072  66.131  0.00  0.00    +0.056 A 
ATOM      5 CL   UNL     1     -10.824  16.346  64.863  0.00  0.00    -0.082 Cl
ATOM      6  C   UNL     1      -8.580  16.926  66.297  0.00  0.00    +0.011 A 
ATOM      7  C   UNL     1      -7.449  16.548  67.003  0.00  0.00    +0.001 A 
ATOM      8  C   UNL     1      -7.297  15.208  67.305  0.00  0.00    -0.000 A 
ATOM      9  C   UNL     1      -8.359  14.344  67.196  0.00  0.00    -0.001 A 
ENDBRANCH   1   3
BRANCH   1  10
ATOM     10  C   UNL     1     -11.122  13.437  65.417  0.00  0.00    +0.009 A 
ATOM     11  C   UNL     1     -12.453  13.110  65.197  0.00  0.00    -0.002 A 
ATOM     12  C   UNL     1     -12.858  12.338  64.133  0.00  0.00    -0.000 A 
ATOM     13  C   UNL     1     -11.873  11.697  63.403  0.00  0.00    -0.000 A 
ATOM     14  C   UNL     1     -10.550  11.728  63.819  0.00  0.00    -0.000 A 
ATOM     15  C   UNL     1     -10.197  12.580  64.833  0.00  0.00    -0.002 A 
ENDBRANCH   1  10
BRANCH   1  16
ATOM     16  C   UNL     1     -11.908  14.578  67.489  0.00  0.00    +0.056 C 
BRANCH  16  17
ATOM     17  C   UNL     1     -11.590  14.550  68.972  0.00  0.00    +0.075 C 
BRANCH  17  19
ATOM     18  C   UNL     1     -11.058  16.354  69.711  0.00  0.00    +0.090 C 
ATOM     19  N   UNL     1     -11.813  15.846  69.576  0.00  0.00    -0.270 NA
ATOM     20  C   UNL     1     -12.636  15.677  70.755  0.00  0.00    +0.090 C 
ENDBRANCH  17  19
ENDBRANCH  16  17
ENDBRANCH   1  16
TORSDOF 5
ENDMDL
MODEL 7
REMARK VINA RESULT:      -5.5      1.459      2.036
REMARK  Name = 
REMARK  5 active torsions:
REMARK  status: ('A' for Active; 'I' for Inactive)
REMARK    1  A    between atoms: N_2  and  C_4
REMARK    2  A    between atoms: C_4  and  C_5
REMARK    3  A    between atoms: C_5  and  C_6
REMARK    4  A    between atoms: C_6  and  C_8
REMARK    5  A    between atoms: C_6  and  C_14
REMARK                            x       y       z     vdW  Elec       q    Type
REMARK                         _______ _______ _______ _____ _____    ______ ____
ROOT
ATOM      1  C   UNL     1     -11.281  14.073  68.794  0.00  0.00    +0.166 C 
ATOM      2  O   UNL     1     -11.768  15.369  68.558  0.00  0.00    -0.217 OA
ENDROOT
BRANCH   1   3
ATOM      3  C   UNL     1     -11.915  13.595  70.036  0.00  0.00    +0.020 A 
ATOM      4  C   UNL     1     -12.354  14.503  70.983  0.00  0.00    +0.056 A 
ATOM      5 CL   UNL     1     -11.525  16.037  71.135  0.00  0.00    -0.082 Cl
ATOM      6  C   UNL     1     -13.145  14.026  72.006  0.00  0.00    +0.011 A 
ATOM      7  C   UNL     1     -13.492  12.687  72.095  0.00  0.00    +0.001 A 
ATOM      8  C   UNL     1     -12.809  11.792  71.294  0.00  0.00    -0.000 A 
ATOM      9  C   UNL     1     -12.054  12.237  70.236  0.00  0.00    -0.001 A 
ENDBRANCH   1   3
BRANCH   1  10
ATOM     10  C   UNL     1     -11.724  13.258  67.621  0.00  0.00    +0.009 A 
ATOM     11  C   UNL     1     -10.858  12.278  67.156  0.00  0.00    -0.002 A 
ATOM     12  C   UNL     1     -10.995  11.698  65.915  0.00  0.00    -0.000 A 
ATOM     13  C   UNL     1     -11.892  12.282  65.039  0.00  0.00    -0.000 A 
ATOM     14  C   UNL     1     -12.518  13.479  65.358  0.00  0.00    -0.000 A 
ATOM     15  C   UNL     1     -12.407  13.961  66.637  0.00  0.00    -0.002 A 
ENDBRANCH   1  10
BRANCH   1  16
ATOM     16  C   UNL     1      -9.786  14.187  68.885  0.00  0.00    +0.056 C 
BRANCH  16  17
ATOM     17  C   UNL     1      -9.388  15.478  68.196  0.00  0.00    +0.075 C 
BRANCH  17  19
ATOM     18  C   UNL     1      -7.729  15.500  67.043  0.00  0.00    +0.090 C 
ATOM     19  N   UNL     1      -8.603  15.212  67.010  0.00  0.00    -0.270 NA
ATOM     20  C   UNL     1      -9.339  15.671  65.850  0.00  0.00    +0.090 C 
ENDBRANCH  17  19
ENDBRANCH  16  17
ENDBRANCH   1  16
TORSDOF 5
ENDMDL
MODEL 8
REMARK VINA RESULT:      -5.5      1.754      4.948
REMARK  Name = 
REMARK  5 active torsions:
REMARK  status: ('A' for Active; 'I' for Inactive)
REMARK    1  A    between atoms: N_2  and  C_4
REMARK    2  A    between atoms: C_4  and  C_5
REMARK    3  A    between atoms: C_5  and  C_6
REMARK    4  A    between atoms: C_6  and  C_8
REMARK    5  A    between atoms: C_6  and  C_14
REMARK                            x       y       z     vdW  Elec       q    Type
REMARK                         _______ _______ _______ _____ _____    ______ ____
ROOT
ATOM      1  C   UNL     1     -11.103  13.663  66.934  0.00  0.00    +0.166 C 
ATOM      2  O   UNL     1     -12.362  14.266  66.776  0.00  0.00    -0.217 OA
ENDROOT
BRANCH   1   3
ATOM      3  C   UNL     1     -10.109  14.751  66.988  0.00  0.00    +0.020 A 
ATOM      4  C   UNL     1      -8.759  14.455  67.026  0.00  0.00    +0.056 A 
ATOM      5 CL   UNL     1      -8.240  12.962  67.778  0.00  0.00    -0.082 Cl
ATOM      6  C   UNL     1      -7.872  15.493  66.837  0.00  0.00    +0.011 A 
ATOM      7  C   UNL     1      -8.306  16.791  66.617  0.00  0.00    +0.001 A 
ATOM      8  C   UNL     1      -9.636  17.073  66.862  0.00  0.00    -0.000 A 
ATOM      9  C   UNL     1     -10.551  16.058  67.005  0.00  0.00    -0.001 A 
ENDBRANCH   1   3
BRANCH   1  10
ATOM     10  C   UNL     1     -11.167  12.935  68.238  0.00  0.00    +0.009 A 
ATOM     11  C   UNL     1     -11.524  11.594  68.209  0.00  0.00    -0.002 A 
ATOM     12  C   UNL     1     -11.933  10.913  69.333  0.00  0.00    -0.000 A 
ATOM     13  C   UNL     1     -12.201  11.662  70.465  0.00  0.00    -0.000 A 
ATOM     14  C   UNL     1     -12.187  13.048  70.418  0.00  0.00    -0.000 A 
ATOM     15  C   UNL     1     -11.692  13.665  69.298  0.00  0.00    -0.002 A 
ENDBRANCH   1  10
BRANCH   1  16
ATOM     16  C   UNL     1     -10.920  12.738  65.765  0.00  0.00    +0.056 C 
BRANCH  16  17
ATOM     17  C   UNL     1     -11.542  13.410  64.556  0.00  0.00    +0.075 C 
BRANCH  17  19
ATOM     18  C   UNL     1     -12.375  11.985  63.391  0.00  0.00    +0.090 C 
ATOM     19  N   UNL     1     -11.613  12.498  63.435  0.00  0.00    -0.270 NA
ATOM     20  C   UNL     1     -10.380  11.742  63.368  0.00  0.00    +0.090 C 
ENDBRANCH  17  19
ENDBRANCH  16  17
ENDBRANCH   1  16
TORSDOF 5
ENDMDL
MODEL 9
REMARK VINA RESULT:      -5.5      2.045      3.268
REMARK  Name = 
REMARK  5 active torsions:
REMARK  status: ('A' for Active; 'I' for Inactive)
REMARK    1  A    between atoms: N_2  and  C_4
REMARK    2  A    between atoms: C_4  and  C_5
REMARK    3  A    between atoms: C_5  and  C_6
REMARK    4  A    between atoms: C_6  and  C_8
REMARK    5  A    between atoms: C_6  and  C_14
REMARK                            x       y       z     vdW  Elec       q    Type
REMARK                         _______ _______ _______ _____ _____    ______ ____
ROOT
ATOM      1  C   UNL     1     -11.465  12.894  68.308  0.00  0.00    +0.166 C 
ATOM      2  O   UNL     1     -11.996  11.785  67.630  0.00  0.00    -0.217 OA
ENDROOT
BRANCH   1   3
ATOM      3  C   UNL     1     -11.978  12.838  69.690  0.00  0.00    +0.020 A 
ATOM      4  C   UNL     1     -12.240  14.008  70.379  0.00  0.00    +0.056 A 
ATOM      5 CL   UNL     1     -11.297  15.437  70.013  0.00  0.00    -0.082 Cl
ATOM      6  C   UNL     1     -12.934  13.908  71.566  0.00  0.00    +0.011 A 
ATOM      7  C   UNL     1     -13.357  12.684  72.061  0.00  0.00    +0.001 A 
ATOM      8  C   UNL     1     -12.835  11.543  71.483  0.00  0.00    -0.000 A 
ATOM      9  C   UNL     1     -12.183  11.606  70.276  0.00  0.00    -0.001 A 
ENDBRANCH   1   3
BRANCH   1  10
ATOM     10  C   UNL     1      -9.982  12.709  68.282  0.00  0.00    +0.009 A 
ATOM     11  C   UNL     1      -9.199  13.823  68.012  0.00  0.00    -0.002 A 
ATOM     12  C   UNL     1      -7.878  13.726  67.640  0.00  0.00    -0.000 A 
ATOM     13  C   UNL     1      -7.401  12.469  67.316  0.00  0.00    -0.000 A 
ATOM     14  C   UNL     1      -8.261  11.382  67.241  0.00  0.00    -0.000 A 
ATOM     15  C   UNL     1      -9.544  11.523  67.704  0.00  0.00    -0.002 A 
ENDBRANCH   1  10
BRANCH   1  16
ATOM     16  C   UNL     1     -11.907  14.113  67.551  0.00  0.00    +0.056 C 
BRANCH  16  17
ATOM     17  C   UNL     1     -12.310  13.660  66.161  0.00  0.00    +0.075 C 
BRANCH  17  19
ATOM     18  C   UNL     1     -11.976  14.812  64.535  0.00  0.00    +0.090 C 
ATOM     19  N   UNL     1     -11.507  14.311  65.149  0.00  0.00    -0.270 NA
ATOM     20  C   UNL     1     -10.611  13.336  64.563  0.00  0.00    +0.090 C 
ENDBRANCH  17  19
ENDBRANCH  16  17
ENDBRANCH   1  16
TORSDOF 5
ENDMDL
