MODEL 1
REMARK VINA RESULT:      -7.1      0.000      0.000
REMARK  Name = 
REMARK  6 active torsions:
REMARK  status: ('A' for Active; 'I' for Inactive)
REMARK    1  A    between atoms: C_5  and  C_6
REMARK    2  A    between atoms: C_6  and  O_7
REMARK    3  A    between atoms: O_7  and  C_8
REMARK    4  A    between atoms: C_8  and  C_9
REMARK    5  A    between atoms: C_8  and  C_15
REMARK    6  A    between atoms: C_9  and  N_10
REMARK                            x       y       z     vdW  Elec       q    Type
REMARK                         _______ _______ _______ _____ _____    ______ ____
ROOT
ATOM      1  C   UNL     1     -11.853  14.219  67.499  0.00  0.00    +0.161 C 
ENDROOT
BRANCH   1   2
ATOM      2  C   UNL     1     -11.743  13.084  66.349  0.00  0.00    +0.017 A 
ATOM      3  C   UNL     1     -11.397  13.403  65.109  0.00  0.00    +0.057 A 
ATOM      4 CL   UNL     1     -12.229  14.829  64.495  0.00  0.00    -0.082 Cl
ATOM      5  C   UNL     1     -10.807  12.469  64.272  0.00  0.00    +0.023 A 
ATOM      6  C   UNL     1     -10.326  11.311  64.872  0.00  0.00    +0.058 A 
ATOM      7 CL   UNL     1      -9.745  10.097  63.731  0.00  0.00    -0.082 Cl
ATOM      8  C   UNL     1     -10.680  10.967  66.168  0.00  0.00    +0.011 A 
ATOM      9  C   UNL     1     -11.424  11.865  66.921  0.00  0.00    -0.000 A 
ENDBRANCH   1   2
BRANCH   1  10
ATOM     10  O   UNL     1     -11.995  13.246  68.667  0.00  0.00    -0.345 OA
BRANCH  10  11
ATOM     11  C   UNL     1     -11.316  14.001  69.590  0.00  0.00    +0.169 C 
BRANCH  11  16
ATOM     12 CL   UNL     1     -12.402  15.369  74.496  0.00  0.00    -0.082 Cl
ATOM     13  C   UNL     1     -12.667  15.206  73.255  0.00  0.00    +0.058 A 
ATOM     14  C   UNL     1     -12.189  16.141  72.343  0.00  0.00    +0.011 A 
ATOM     15  C   UNL     1     -12.156  15.905  70.973  0.00  0.00    -0.001 A 
ATOM     16  C   UNL     1     -12.268  14.584  70.550  0.00  0.00    +0.007 A 
ATOM     17  C   UNL     1     -13.174  13.837  71.300  0.00  0.00    -0.001 A 
ATOM     18  C   UNL     1     -13.250  14.090  72.665  0.00  0.00    +0.011 A 
ENDBRANCH  11  16
ENDBRANCH  10  11
ENDBRANCH   1  10
BRANCH   1  19
ATOM     19  C   UNL     1     -10.211  14.281  67.701  0.00  0.00    +0.142 C 
BRANCH  19  20
ATOM     20  N   UNL     1      -9.938  15.597  67.200  0.00  0.00    -0.305 N 
ATOM     21  C   UNL     1      -8.947  15.850  66.317  0.00  0.00    +0.179 A 
ATOM     22  N   UNL     1      -9.174  17.024  65.698  0.00  0.00    -0.222 NA
ATOM     23  C   UNL     1     -10.124  17.637  66.434  0.00  0.00    +0.119 A 
ATOM     24  C   UNL     1     -10.473  16.790  67.478  0.00  0.00    +0.098 A 
ENDBRANCH  19  20
ENDBRANCH   1  19
TORSDOF 6
ENDMDL
MODEL 2
REMARK VINA RESULT:      -7.1      2.587      4.726
REMARK  Name = 
REMARK  6 active torsions:
REMARK  status: ('A' for Active; 'I' for Inactive)
REMARK    1  A    between atoms: C_5  and  C_6
REMARK    2  A    between atoms: C_6  and  O_7
REMARK    3  A    between atoms: O_7  and  C_8
REMARK    4  A    between atoms: C_8  and  C_9
REMARK    5  A    between atoms: C_8  and  C_15
REMARK    6  A    between atoms: C_9  and  N_10
REMARK                            x       y       z     vdW  Elec       q    Type
REMARK                         _______ _______ _______ _____ _____    ______ ____
ROOT
ATOM      1  C   UNL     1     -10.373  14.786  67.912  0.00  0.00    +0.161 C 
ENDROOT
BRANCH   1   2
ATOM      2  C   UNL     1      -9.831  16.267  68.279  0.00  0.00    +0.017 A 
ATOM      3  C   UNL     1      -8.534  16.500  68.424  0.00  0.00    +0.057 A 
ATOM      4 CL   UNL     1      -7.706  15.281  69.388  0.00  0.00    -0.082 Cl
ATOM      5  C   UNL     1      -8.012  17.769  68.223  0.00  0.00    +0.023 A 
ATOM      6  C   UNL     1      -8.836  18.687  67.582  0.00  0.00    +0.058 A 
ATOM      7 CL   UNL     1      -8.176  20.322  67.514  0.00  0.00    -0.082 Cl
ATOM      8  C   UNL     1     -10.193  18.453  67.425  0.00  0.00    +0.011 A 
ATOM      9  C   UNL     1     -10.711  17.222  67.800  0.00  0.00    -0.000 A 
ENDBRANCH   1   2
BRANCH   1  10
ATOM     10  O   UNL     1     -11.797  15.009  68.415  0.00  0.00    -0.345 OA
BRANCH  10  11
ATOM     11  C   UNL     1     -11.673  14.289  69.576  0.00  0.00    +0.169 C 
BRANCH  11  16
ATOM     12 CL   UNL     1     -12.343  15.241  74.653  0.00  0.00    -0.082 Cl
ATOM     13  C   UNL     1     -12.666  15.282  73.414  0.00  0.00    +0.058 A 
ATOM     14  C   UNL     1     -12.036  16.210  72.592  0.00  0.00    +0.011 A 
ATOM     15  C   UNL     1     -12.086  16.139  71.205  0.00  0.00    -0.001 A 
ATOM     16  C   UNL     1     -12.467  14.925  70.640  0.00  0.00    +0.007 A 
ATOM     17  C   UNL     1     -13.483  14.283  71.344  0.00  0.00    -0.001 A 
ATOM     18  C   UNL     1     -13.473  14.380  72.731  0.00  0.00    +0.011 A 
ENDBRANCH  11  16
ENDBRANCH  10  11
ENDBRANCH   1  10
BRANCH   1  19
ATOM     19  C   UNL     1     -10.803  15.242  66.379  0.00  0.00    +0.142 C 
BRANCH  19  20
ATOM     20  N   UNL     1     -11.405  14.029  65.908  0.00  0.00    -0.305 N 
ATOM     21  C   UNL     1     -12.658  13.985  65.405  0.00  0.00    +0.179 A 
ATOM     22  N   UNL     1     -12.815  12.874  64.660  0.00  0.00    -0.222 NA
ATOM     23  C   UNL     1     -11.768  12.083  64.976  0.00  0.00    +0.119 A 
ATOM     24  C   UNL     1     -10.979  12.762  65.896  0.00  0.00    +0.098 A 
ENDBRANCH  19  20
ENDBRANCH   1  19
TORSDOF 6
ENDMDL
MODEL 3
REMARK VINA RESULT:      -7.0      2.467      4.597
REMARK  Name = 
REMARK  6 active torsions:
REMARK  status: ('A' for Active; 'I' for Inactive)
REMARK    1  A    between atoms: C_5  and  C_6
REMARK    2  A    between atoms: C_6  and  O_7
REMARK    3  A    between atoms: O_7  and  C_8
REMARK    4  A    between atoms: C_8  and  C_9
REMARK    5  A    between atoms: C_8  and  C_15
REMARK    6  A    between atoms: C_9  and  N_10
REMARK                            x       y       z     vdW  Elec       q    Type
REMARK                         _______ _______ _______ _____ _____    ______ ____
ROOT
ATOM      1  C   UNL     1     -10.536  14.436  67.069  0.00  0.00    +0.161 C 
ENDROOT
BRANCH   1   2
ATOM      2  C   UNL     1      -9.620  15.757  67.265  0.00  0.00    +0.017 A 
ATOM      3  C   UNL     1      -8.364  15.784  66.841  0.00  0.00    +0.057 A 
ATOM      4 CL   UNL     1      -7.455  14.333  67.252  0.00  0.00    -0.082 Cl
ATOM      5  C   UNL     1      -7.746  16.983  66.522  0.00  0.00    +0.023 A 
ATOM      6  C   UNL     1      -8.572  18.091  66.376  0.00  0.00    +0.058 A 
ATOM      7 CL   UNL     1      -7.706  19.610  66.142  0.00  0.00    -0.082 Cl
ATOM      8  C   UNL     1      -9.887  18.074  66.816  0.00  0.00    +0.011 A 
ATOM      9  C   UNL     1     -10.421  16.885  67.292  0.00  0.00    -0.000 A 
ENDBRANCH   1   2
BRANCH   1  10
ATOM     10  O   UNL     1     -11.721  14.943  67.887  0.00  0.00    -0.345 OA
BRANCH  10  11
ATOM     11  C   UNL     1     -11.935  13.788  68.595  0.00  0.00    +0.169 C 
BRANCH  11  16
ATOM     12 CL   UNL     1     -13.990  15.947  72.867  0.00  0.00    -0.082 Cl
ATOM     13  C   UNL     1     -13.086  15.331  72.201  0.00  0.00    +0.058 A 
ATOM     14  C   UNL     1     -13.265  13.979  71.929  0.00  0.00    +0.011 A 
ATOM     15  C   UNL     1     -12.514  13.299  70.976  0.00  0.00    -0.001 A 
ATOM     16  C   UNL     1     -11.829  14.065  70.037  0.00  0.00    +0.007 A 
ATOM     17  C   UNL     1     -11.275  15.228  70.569  0.00  0.00    -0.001 A 
ATOM     18  C   UNL     1     -11.993  15.897  71.554  0.00  0.00    +0.011 A 
ENDBRANCH  11  16
ENDBRANCH  10  11
ENDBRANCH   1  10
BRANCH   1  19
ATOM     19  C   UNL     1     -11.205  15.017  65.670  0.00  0.00    +0.142 C 
BRANCH  19  20
ATOM     20  N   UNL     1     -11.460  13.788  64.976  0.00  0.00    -0.305 N 
ATOM     21  C   UNL     1     -12.667  13.182  64.986  0.00  0.00    +0.179 A 
ATOM     22  N   UNL     1     -12.760  12.327  63.950  0.00  0.00    -0.222 NA
ATOM     23  C   UNL     1     -11.497  12.172  63.502  0.00  0.00    +0.119 A 
ATOM     24  C   UNL     1     -10.665  12.973  64.273  0.00  0.00    +0.098 A 
ENDBRANCH  19  20
ENDBRANCH   1  19
TORSDOF 6
ENDMDL
MODEL 4
REMARK VINA RESULT:      -6.9      2.850      6.055
REMARK  Name = 
REMARK  6 active torsions:
REMARK  status: ('A' for Active; 'I' for Inactive)
REMARK    1  A    between atoms: C_5  and  C_6
REMARK    2  A    between atoms: C_6  and  O_7
REMARK    3  A    between atoms: O_7  and  C_8
REMARK    4  A    between atoms: C_8  and  C_9
REMARK    5  A    between atoms: C_8  and  C_15
REMARK    6  A    between atoms: C_9  and  N_10
REMARK                            x       y       z     vdW  Elec       q    Type
REMARK                         _______ _______ _______ _____ _____    ______ ____
ROOT
ATOM      1  C   UNL     1     -11.195  14.808  67.355  0.00  0.00    +0.161 C 
ENDROOT
BRANCH   1   2
ATOM      2  C   UNL     1     -11.228  14.781  68.974  0.00  0.00    +0.017 A 
ATOM      3  C   UNL     1     -11.432  15.892  69.669  0.00  0.00    +0.057 A 
ATOM      4 CL   UNL     1     -10.488  17.263  69.090  0.00  0.00    -0.082 Cl
ATOM      5  C   UNL     1     -11.966  15.845  70.947  0.00  0.00    +0.023 A 
ATOM      6  C   UNL     1     -12.549  14.644  71.334  0.00  0.00    +0.058 A 
ATOM      7 CL   UNL     1     -13.053  14.600  73.024  0.00  0.00    -0.082 Cl
ATOM      8  C   UNL     1     -12.344  13.476  70.615  0.00  0.00    +0.011 A 
ATOM      9  C   UNL     1     -11.649  13.539  69.416  0.00  0.00    -0.000 A 
ENDBRANCH   1   2
BRANCH   1  10
ATOM     10  O   UNL     1      -9.736  14.379  67.220  0.00  0.00    -0.345 OA
BRANCH  10  11
ATOM     11  C   UNL     1      -9.376  15.322  66.292  0.00  0.00    +0.169 C 
BRANCH  11  16
ATOM     12 CL   UNL     1      -6.840  18.784  69.244  0.00  0.00    -0.082 Cl
ATOM     13  C   UNL     1      -6.937  17.892  68.331  0.00  0.00    +0.058 A 
ATOM     14  C   UNL     1      -7.021  16.557  68.712  0.00  0.00    +0.011 A 
ATOM     15  C   UNL     1      -7.427  15.553  67.840  0.00  0.00    -0.001 A 
ATOM     16  C   UNL     1      -8.099  15.942  66.685  0.00  0.00    +0.007 A 
ATOM     17  C   UNL     1      -7.590  17.108  66.116  0.00  0.00    -0.001 A 
ATOM     18  C   UNL     1      -7.140  18.105  66.973  0.00  0.00    +0.011 A 
ENDBRANCH  11  16
ENDBRANCH  10  11
ENDBRANCH   1  10
BRANCH   1  19
ATOM     19  C   UNL     1     -11.706  13.237  67.245  0.00  0.00    +0.142 C 
BRANCH  19  20
ATOM     20  N   UNL     1     -12.042  13.171  65.852  0.00  0.00    -0.305 N 
ATOM     21  C   UNL     1     -12.761  14.131  65.230  0.00  0.00    +0.179 A 
ATOM     22  N   UNL     1     -12.567  14.059  63.899  0.00  0.00    -0.222 NA
ATOM     23  C   UNL     1     -11.993  12.857  63.688  0.00  0.00    +0.119 A 
ATOM     24  C   UNL     1     -11.824  12.238  64.920  0.00  0.00    +0.098 A 
ENDBRANCH  19  20
ENDBRANCH   1  19
TORSDOF 6
ENDMDL
MODEL 5
REMARK VINA RESULT:      -6.9      3.145      4.272
REMARK  Name = 
REMARK  6 active torsions:
REMARK  status: ('A' for Active; 'I' for Inactive)
REMARK    1  A    between atoms: C_5  and  C_6
REMARK    2  A    between atoms: C_6  and  O_7
REMARK    3  A    between atoms: O_7  and  C_8
REMARK    4  A    between atoms: C_8  and  C_9
REMARK    5  A    between atoms: C_8  and  C_15
REMARK    6  A    between atoms: C_9  and  N_10
REMARK                            x       y       z     vdW  Elec       q    Type
REMARK                         _______ _______ _______ _____ _____    ______ ____
ROOT
ATOM      1  C   UNL     1     -11.873  12.196  69.086  0.00  0.00    +0.161 C 
ENDROOT
BRANCH   1   2
ATOM      2  C   UNL     1     -11.423  11.033  70.119  0.00  0.00    +0.017 A 
ATOM      3  C   UNL     1     -12.293  10.504  70.969  0.00  0.00    +0.057 A 
ATOM      4 CL   UNL     1     -13.295  11.702  71.782  0.00  0.00    -0.082 Cl
ATOM      5  C   UNL     1     -12.110   9.224  71.470  0.00  0.00    +0.023 A 
ATOM      6  C   UNL     1     -11.170   8.430  70.823  0.00  0.00    +0.058 A 
ATOM      7 CL   UNL     1     -10.867   6.883  71.615  0.00  0.00    -0.082 Cl
ATOM      8  C   UNL     1     -10.256   8.973  69.933  0.00  0.00    +0.011 A 
ATOM      9  C   UNL     1     -10.369  10.311  69.586  0.00  0.00    -0.000 A 
ENDBRANCH   1   2
BRANCH   1  10
ATOM     10  O   UNL     1     -11.447  13.366  69.970  0.00  0.00    -0.345 OA
BRANCH  10  11
ATOM     11  C   UNL     1     -12.347  14.276  69.479  0.00  0.00    +0.169 C 
BRANCH  11  16
ATOM     12 CL   UNL     1     -12.500  15.424  74.557  0.00  0.00    -0.082 Cl
ATOM     13  C   UNL     1     -12.747  15.624  73.317  0.00  0.00    +0.058 A 
ATOM     14  C   UNL     1     -11.729  16.114  72.505  0.00  0.00    +0.011 A 
ATOM     15  C   UNL     1     -11.794  16.080  71.117  0.00  0.00    -0.001 A 
ATOM     16  C   UNL     1     -12.726  15.222  70.542  0.00  0.00    +0.007 A 
ATOM     17  C   UNL     1     -13.935  15.172  71.234  0.00  0.00    -0.001 A 
ATOM     18  C   UNL     1     -13.891  15.248  72.622  0.00  0.00    +0.011 A 
ENDBRANCH  11  16
ENDBRANCH  10  11
ENDBRANCH   1  10
BRANCH   1  19
ATOM     19  C   UNL     1     -10.404  12.190  68.323  0.00  0.00    +0.142 C 
BRANCH  19  20
ATOM     20  N   UNL     1     -10.774  12.724  67.044  0.00  0.00    -0.305 N 
ATOM     21  C   UNL     1     -11.733  12.169  66.272  0.00  0.00    +0.179 A 
ATOM     22  N   UNL     1     -12.178  13.069  65.375  0.00  0.00    -0.222 NA
ATOM     23  C   UNL     1     -11.266  14.063  65.386  0.00  0.00    +0.119 A 
ATOM     24  C   UNL     1     -10.295  13.746  66.327  0.00  0.00    +0.098 A 
ENDBRANCH  19  20
ENDBRANCH   1  19
TORSDOF 6
ENDMDL
MODEL 6
REMARK VINA RESULT:      -6.8      3.057      5.568
REMARK  Name = 
REMARK  6 active torsions:
REMARK  status: ('A' for Active; 'I' for Inactive)
REMARK    1  A    between atoms: C_5  and  C_6
REMARK    2  A    between atoms: C_6  and  O_7
REMARK    3  A    between atoms: O_7  and  C_8
REMARK    4  A    between atoms: C_8  and  C_9
REMARK    5  A    between atoms: C_8  and  C_15
REMARK    6  A    between atoms: C_9  and  N_10
REMARK                            x       y       z     vdW  Elec       q    Type
REMARK                         _______ _______ _______ _____ _____    ______ ____
ROOT
ATOM      1  C   UNL     1     -11.293  14.613  67.195  0.00  0.00    +0.161 C 
ENDROOT
BRANCH   1   2
ATOM      2  C   UNL     1     -11.218  13.744  68.559  0.00  0.00    +0.017 A 
ATOM      3  C   UNL     1     -12.041  13.990  69.570  0.00  0.00    +0.057 A 
ATOM      4 CL   UNL     1     -12.207  15.705  69.935  0.00  0.00    -0.082 Cl
ATOM      5  C   UNL     1     -12.358  13.001  70.487  0.00  0.00    +0.023 A 
ATOM      6  C   UNL     1     -12.029  11.696  70.136  0.00  0.00    +0.058 A 
ATOM      7 CL   UNL     1     -12.303  10.514  71.416  0.00  0.00    -0.082 Cl
ATOM      8  C   UNL     1     -11.170  11.427  69.081  0.00  0.00    +0.011 A 
ATOM      9  C   UNL     1     -10.735  12.476  68.284  0.00  0.00    -0.000 A 
ENDBRANCH   1   2
BRANCH   1  10
ATOM     10  O   UNL     1     -10.043  15.446  67.469  0.00  0.00    -0.345 OA
BRANCH  10  11
ATOM     11  C   UNL     1     -10.448  16.571  66.797  0.00  0.00    +0.169 C 
BRANCH  11  16
ATOM     12 CL   UNL     1      -7.430  20.789  67.275  0.00  0.00    -0.082 Cl
ATOM     13  C   UNL     1      -8.325  19.957  67.656  0.00  0.00    +0.058 A 
ATOM     14  C   UNL     1      -9.599  20.050  67.106  0.00  0.00    +0.011 A 
ATOM     15  C   UNL     1     -10.540  19.033  67.216  0.00  0.00    -0.001 A 
ATOM     16  C   UNL     1     -10.077  17.769  67.569  0.00  0.00    +0.007 A 
ATOM     17  C   UNL     1      -9.061  17.798  68.522  0.00  0.00    -0.001 A 
ATOM     18  C   UNL     1      -8.136  18.833  68.453  0.00  0.00    +0.011 A 
ENDBRANCH  11  16
ENDBRANCH  10  11
ENDBRANCH   1  10
BRANCH   1  19
ATOM     19  C   UNL     1     -10.410  13.498  66.348  0.00  0.00    +0.142 C 
BRANCH  19  20
ATOM     20  N   UNL     1     -11.303  13.236  65.256  0.00  0.00    -0.305 N 
ATOM     21  C   UNL     1     -12.163  14.162  64.780  0.00  0.00    +0.179 A 
ATOM     22  N   UNL     1     -12.551  13.830  63.534  0.00  0.00    -0.222 NA
ATOM     23  C   UNL     1     -12.185  12.541  63.379  0.00  0.00    +0.119 A 
ATOM     24  C   UNL     1     -11.549  12.132  64.544  0.00  0.00    +0.098 A 
ENDBRANCH  19  20
ENDBRANCH   1  19
TORSDOF 6
ENDMDL
MODEL 7
REMARK VINA RESULT:      -6.8      2.436      3.483
REMARK  Name = 
REMARK  6 active torsions:
REMARK  status: ('A' for Active; 'I' for Inactive)
REMARK    1  A    between atoms: C_5  and  C_6
REMARK    2  A    between atoms: C_6  and  O_7
REMARK    3  A    between atoms: O_7  and  C_8
REMARK    4  A    between atoms: C_8  and  C_9
REMARK    5  A    between atoms: C_8  and  C_15
REMARK    6  A    between atoms: C_9  and  N_10
REMARK                            x       y       z     vdW  Elec       q    Type
REMARK                         _______ _______ _______ _____ _____    ______ ____
ROOT
ATOM      1  C   UNL     1     -11.605  13.551  67.763  0.00  0.00    +0.161 C 
ENDROOT
BRANCH   1   2
ATOM      2  C   UNL     1     -10.072  13.182  68.132  0.00  0.00    +0.017 A 
ATOM      3  C   UNL     1      -9.585  11.973  67.889  0.00  0.00    +0.057 A 
ATOM      4 CL   UNL     1     -10.670  10.672  68.373  0.00  0.00    -0.082 Cl
ATOM      5  C   UNL     1      -8.226  11.777  67.703  0.00  0.00    +0.023 A 
ATOM      6  C   UNL     1      -7.457  12.914  67.482  0.00  0.00    +0.058 A 
ATOM      7 CL   UNL     1      -5.720  12.608  67.425  0.00  0.00    -0.082 Cl
ATOM      8  C   UNL     1      -7.955  14.183  67.732  0.00  0.00    +0.011 A 
ATOM      9  C   UNL     1      -9.290  14.323  68.086  0.00  0.00    -0.000 A 
ENDBRANCH   1   2
BRANCH   1  10
ATOM     10  O   UNL     1     -11.699  14.769  68.679  0.00  0.00    -0.345 OA
BRANCH  10  11
ATOM     11  C   UNL     1     -12.395  14.157  69.690  0.00  0.00    +0.169 C 
BRANCH  11  16
ATOM     12 CL   UNL     1     -12.500  15.648  74.680  0.00  0.00    -0.082 Cl
ATOM     13  C   UNL     1     -12.779  15.751  73.434  0.00  0.00    +0.058 A 
ATOM     14  C   UNL     1     -11.798  16.224  72.569  0.00  0.00    +0.011 A 
ATOM     15  C   UNL     1     -11.888  16.092  71.189  0.00  0.00    -0.001 A 
ATOM     16  C   UNL     1     -12.793  15.158  70.694  0.00  0.00    +0.007 A 
ATOM     17  C   UNL     1     -13.985  15.107  71.414  0.00  0.00    -0.001 A 
ATOM     18  C   UNL     1     -13.918  15.282  72.792  0.00  0.00    +0.011 A 
ENDBRANCH  11  16
ENDBRANCH  10  11
ENDBRANCH   1  10
BRANCH   1  19
ATOM     19  C   UNL     1     -11.147  14.500  66.486  0.00  0.00    +0.142 C 
BRANCH  19  20
ATOM     20  N   UNL     1     -11.826  13.835  65.412  0.00  0.00    -0.305 N 
ATOM     21  C   UNL     1     -12.304  14.492  64.333  0.00  0.00    +0.179 A 
ATOM     22  N   UNL     1     -12.492  13.629  63.317  0.00  0.00    -0.222 NA
ATOM     23  C   UNL     1     -12.438  12.403  63.876  0.00  0.00    +0.119 A 
ATOM     24  C   UNL     1     -12.186  12.560  65.233  0.00  0.00    +0.098 A 
ENDBRANCH  19  20
ENDBRANCH   1  19
TORSDOF 6
ENDMDL
MODEL 8
REMARK VINA RESULT:      -6.7      3.067      3.709
REMARK  Name = 
REMARK  6 active torsions:
REMARK  status: ('A' for Active; 'I' for Inactive)
REMARK    1  A    between atoms: C_5  and  C_6
REMARK    2  A    between atoms: C_6  and  O_7
REMARK    3  A    between atoms: O_7  and  C_8
REMARK    4  A    between atoms: C_8  and  C_9
REMARK    5  A    between atoms: C_8  and  C_15
REMARK    6  A    between atoms: C_9  and  N_10
REMARK                            x       y       z     vdW  Elec       q    Type
REMARK                         _______ _______ _______ _____ _____    ______ ____
ROOT
ATOM      1  C   UNL     1     -11.672  12.799  67.963  0.00  0.00    +0.161 C 
ENDROOT
BRANCH   1   2
ATOM      2  C   UNL     1     -11.539  11.906  66.619  0.00  0.00    +0.017 A 
ATOM      3  C   UNL     1     -11.547  12.474  65.421  0.00  0.00    +0.057 A 
ATOM      4 CL   UNL     1     -12.804  13.694  65.233  0.00  0.00    -0.082 Cl
ATOM      5  C   UNL     1     -10.942  11.858  64.337  0.00  0.00    +0.023 A 
ATOM      6  C   UNL     1     -10.085  10.801  64.620  0.00  0.00    +0.058 A 
ATOM      7 CL   UNL     1      -9.486   9.957  63.191  0.00  0.00    -0.082 Cl
ATOM      8  C   UNL     1     -10.067  10.199  65.869  0.00  0.00    +0.011 A 
ATOM      9  C   UNL     1     -10.827  10.750  66.890  0.00  0.00    -0.000 A 
ENDBRANCH   1   2
BRANCH   1  10
ATOM     10  O   UNL     1     -11.170  11.719  68.920  0.00  0.00    -0.345 OA
BRANCH  10  11
ATOM     11  C   UNL     1     -12.112  11.917  69.896  0.00  0.00    +0.169 C 
BRANCH  11  16
ATOM     12 CL   UNL     1     -13.166   6.997  71.241  0.00  0.00    -0.082 Cl
ATOM     13  C   UNL     1     -12.724   8.182  71.439  0.00  0.00    +0.058 A 
ATOM     14  C   UNL     1     -11.484   8.528  70.913  0.00  0.00    +0.011 A 
ATOM     15  C   UNL     1     -11.054   9.845  70.808  0.00  0.00    -0.001 A 
ATOM     16  C   UNL     1     -12.021  10.842  70.898  0.00  0.00    +0.007 A 
ATOM     17  C   UNL     1     -13.010  10.571  71.842  0.00  0.00    -0.001 A 
ATOM     18  C   UNL     1     -13.420   9.251  71.991  0.00  0.00    +0.011 A 
ENDBRANCH  11  16
ENDBRANCH  10  11
ENDBRANCH   1  10
BRANCH   1  19
ATOM     19  C   UNL     1     -10.144  13.414  67.795  0.00  0.00    +0.142 C 
BRANCH  19  20
ATOM     20  N   UNL     1     -10.431  14.818  67.773  0.00  0.00    -0.305 N 
ATOM     21  C   UNL     1     -11.525  15.348  68.363  0.00  0.00    +0.179 A 
ATOM     22  N   UNL     1     -11.340  16.666  68.571  0.00  0.00    -0.222 NA
ATOM     23  C   UNL     1     -10.273  17.000  67.816  0.00  0.00    +0.119 A 
ATOM     24  C   UNL     1      -9.816  15.850  67.185  0.00  0.00    +0.098 A 
ENDBRANCH  19  20
ENDBRANCH   1  19
TORSDOF 6
ENDMDL
MODEL 9
REMARK VINA RESULT:      -6.6      2.996      5.570
REMARK  Name = 
REMARK  6 active torsions:
REMARK  status: ('A' for Active; 'I' for Inactive)
REMARK    1  A    between atoms: C_5  and  C_6
REMARK    2  A    between atoms: C_6  and  O_7
REMARK    3  A    between atoms: O_7  and  C_8
REMARK    4  A    between atoms: C_8  and  C_9
REMARK    5  A    between atoms: C_8  and  C_15
REMARK    6  A    between atoms: C_9  and  N_10
REMARK                            x       y       z     vdW  Elec       q    Type
REMARK                         _______ _______ _______ _____ _____    ______ ____
ROOT
ATOM      1  C   UNL     1     -10.884  15.141  69.264  0.00  0.00    +0.161 C 
ENDROOT
BRANCH   1   2
ATOM      2  C   UNL     1     -10.653  14.454  67.816  0.00  0.00    +0.017 A 
ATOM      3  C   UNL     1      -9.620  13.650  67.601  0.00  0.00    +0.057 A 
ATOM      4 CL   UNL     1      -8.102  14.275  68.241  0.00  0.00    -0.082 Cl
ATOM      5  C   UNL     1      -9.667  12.679  66.613  0.00  0.00    +0.023 A 
ATOM      6  C   UNL     1     -10.919  12.391  66.082  0.00  0.00    +0.058 A 
ATOM      7 CL   UNL     1     -10.881  11.275  64.716  0.00  0.00    -0.082 Cl
ATOM      8  C   UNL     1     -12.006  13.223  66.300  0.00  0.00    +0.011 A 
ATOM      9  C   UNL     1     -11.867  14.293  67.172  0.00  0.00    -0.000 A 
ENDBRANCH   1   2
BRANCH   1  10
ATOM     10  O   UNL     1     -11.497  16.433  68.729  0.00  0.00    -0.345 OA
BRANCH  10  11
ATOM     11  C   UNL     1     -10.445  17.254  69.047  0.00  0.00    +0.169 C 
BRANCH  11  16
ATOM     12 CL   UNL     1      -7.243  20.754  66.897  0.00  0.00    -0.082 Cl
ATOM     13  C   UNL     1      -8.254  19.969  66.917  0.00  0.00    +0.058 A 
ATOM     14  C   UNL     1      -8.042  18.606  66.741  0.00  0.00    +0.011 A 
ATOM     15  C   UNL     1      -9.007  17.651  67.043  0.00  0.00    -0.001 A 
ATOM     16  C   UNL     1     -10.058  18.043  67.866  0.00  0.00    +0.007 A 
ATOM     17  C   UNL     1     -10.506  19.339  67.613  0.00  0.00    -0.001 A 
ATOM     18  C   UNL     1      -9.559  20.296  67.268  0.00  0.00    +0.011 A 
ENDBRANCH  11  16
ENDBRANCH  10  11
ENDBRANCH   1  10
BRANCH   1  19
ATOM     19  C   UNL     1     -12.383  14.457  69.433  0.00  0.00    +0.142 C 
BRANCH  19  20
ATOM     20  N   UNL     1     -12.686  14.828  70.785  0.00  0.00    -0.305 N 
ATOM     21  C   UNL     1     -11.733  14.980  71.730  0.00  0.00    +0.179 A 
ATOM     22  N   UNL     1     -12.208  15.726  72.745  0.00  0.00    -0.222 NA
ATOM     23  C   UNL     1     -13.546  15.753  72.570  0.00  0.00    +0.119 A 
ATOM     24  C   UNL     1     -13.844  15.036  71.419  0.00  0.00    +0.098 A 
ENDBRANCH  19  20
ENDBRANCH   1  19
TORSDOF 6
ENDMDL
