MODEL 1
REMARK VINA RESULT:      -5.1      0.000      0.000
REMARK  Name = 
REMARK  1 active torsions:
REMARK  status: ('A' for Active; 'I' for Inactive)
REMARK    1  A    between atoms: C_7  and  C_8
REMARK                            x       y       z     vdW  Elec       q    Type
REMARK                         _______ _______ _______ _____ _____    ______ ____
ROOT
ATOM      1  N   UNL     1     -13.178  12.037  64.073  0.00  0.00    -0.128 NA
ATOM      2  C   UNL     1     -12.179  12.710  64.826  0.00  0.00    +0.090 A 
ATOM      3  C   UNL     1     -11.718  13.970  64.519  0.00  0.00    +0.028 A 
ATOM      4  C   UNL     1     -11.243  14.832  65.494  0.00  0.00    +0.120 A 
ATOM      5  C   UNL     1     -11.306  14.400  66.815  0.00  0.00    +0.202 A 
ATOM      6  O   UNL     1     -11.458  15.364  67.818  0.00  0.00    -0.286 OA
ATOM      7  C   UNL     1     -11.465  13.051  67.108  0.00  0.00    +0.044 A 
ATOM      8  C   UNL     1     -11.830  12.204  66.072  0.00  0.00    +0.021 A 
ENDROOT
BRANCH   4   9
ATOM      9  C   UNL     1     -10.620  16.108  65.196  0.00  0.00    +0.391 C 
ATOM     10  O   UNL     1     -11.230  17.013  64.342  0.00  0.00    -0.240 OA
ATOM     11  O   UNL     1      -9.452  16.407  65.589  0.00  0.00    -0.240 OA
ENDBRANCH   4   9
TORSDOF 1
ENDMDL
MODEL 2
REMARK VINA RESULT:      -5.0      5.864      6.949
REMARK  Name = 
REMARK  1 active torsions:
REMARK  status: ('A' for Active; 'I' for Inactive)
REMARK    1  A    between atoms: C_7  and  C_8
REMARK                            x       y       z     vdW  Elec       q    Type
REMARK                         _______ _______ _______ _____ _____    ______ ____
ROOT
ATOM      1  N   UNL     1     -11.752  16.311  68.856  0.00  0.00    -0.128 NA
ATOM      2  C   UNL     1     -11.769  15.459  69.991  0.00  0.00    +0.090 A 
ATOM      3  C   UNL     1     -11.985  15.908  71.274  0.00  0.00    +0.028 A 
ATOM      4  C   UNL     1     -12.573  15.107  72.239  0.00  0.00    +0.120 A 
ATOM      5  C   UNL     1     -13.001  13.843  71.848  0.00  0.00    +0.202 A 
ATOM      6  O   UNL     1     -14.097  13.282  72.512  0.00  0.00    -0.286 OA
ATOM      7  C   UNL     1     -12.520  13.268  70.678  0.00  0.00    +0.044 A 
ATOM      8  C   UNL     1     -11.832  14.085  69.792  0.00  0.00    +0.021 A 
ENDROOT
BRANCH   4   9
ATOM      9  C   UNL     1     -12.689  15.493  73.633  0.00  0.00    +0.391 C 
ATOM     10  O   UNL     1     -13.300  16.683  73.993  0.00  0.00    -0.240 OA
ATOM     11  O   UNL     1     -12.138  14.840  74.571  0.00  0.00    -0.240 OA
ENDBRANCH   4   9
TORSDOF 1
ENDMDL
MODEL 3
REMARK VINA RESULT:      -5.0      5.555      6.631
REMARK  Name = 
REMARK  1 active torsions:
REMARK  status: ('A' for Active; 'I' for Inactive)
REMARK    1  A    between atoms: C_7  and  C_8
REMARK                            x       y       z     vdW  Elec       q    Type
REMARK                         _______ _______ _______ _____ _____    ______ ____
ROOT
ATOM      1  N   UNL     1     -12.511  16.246  74.501  0.00  0.00    -0.128 NA
ATOM      2  C   UNL     1     -12.762  15.870  73.155  0.00  0.00    +0.090 A 
ATOM      3  C   UNL     1     -11.959  16.241  72.101  0.00  0.00    +0.028 A 
ATOM      4  C   UNL     1     -11.830  15.454  70.968  0.00  0.00    +0.120 A 
ATOM      5  C   UNL     1     -12.497  14.233  70.958  0.00  0.00    +0.202 A 
ATOM      6  O   UNL     1     -11.941  13.184  70.219  0.00  0.00    -0.286 OA
ATOM      7  C   UNL     1     -13.536  13.991  71.848  0.00  0.00    +0.044 A 
ATOM      8  C   UNL     1     -13.700  14.875  72.905  0.00  0.00    +0.021 A 
ENDROOT
BRANCH   4   9
ATOM      9  C   UNL     1     -11.108  15.875  69.783  0.00  0.00    +0.391 C 
ATOM     10  O   UNL     1      -9.741  15.675  69.674  0.00  0.00    -0.240 OA
ATOM     11  O   UNL     1     -11.651  16.548  68.855  0.00  0.00    -0.240 OA
ENDBRANCH   4   9
TORSDOF 1
ENDMDL
MODEL 4
REMARK VINA RESULT:      -4.9      4.728      5.753
REMARK  Name = 
REMARK  1 active torsions:
REMARK  status: ('A' for Active; 'I' for Inactive)
REMARK    1  A    between atoms: C_7  and  C_8
REMARK                            x       y       z     vdW  Elec       q    Type
REMARK                         _______ _______ _______ _____ _____    ______ ____
ROOT
ATOM      1  N   UNL     1     -12.043  11.067  68.297  0.00  0.00    -0.128 NA
ATOM      2  C   UNL     1     -12.016  11.649  69.591  0.00  0.00    +0.090 A 
ATOM      3  C   UNL     1     -11.884  13.002  69.812  0.00  0.00    +0.028 A 
ATOM      4  C   UNL     1     -12.428  13.616  70.929  0.00  0.00    +0.120 A 
ATOM      5  C   UNL     1     -13.173  12.824  71.795  0.00  0.00    +0.202 A 
ATOM      6  O   UNL     1     -14.213  13.426  72.512  0.00  0.00    -0.286 OA
ATOM      7  C   UNL     1     -13.055  11.439  71.762  0.00  0.00    +0.044 A 
ATOM      8  C   UNL     1     -12.397  10.873  70.679  0.00  0.00    +0.021 A 
ENDROOT
BRANCH   4   9
ATOM      9  C   UNL     1     -12.191  15.006  71.268  0.00  0.00    +0.391 C 
ATOM     10  O   UNL     1     -11.567  15.352  72.455  0.00  0.00    -0.240 OA
ATOM     11  O   UNL     1     -12.644  15.966  70.573  0.00  0.00    -0.240 OA
ENDBRANCH   4   9
TORSDOF 1
ENDMDL
MODEL 5
REMARK VINA RESULT:      -4.7      2.802      3.976
REMARK  Name = 
REMARK  1 active torsions:
REMARK  status: ('A' for Active; 'I' for Inactive)
REMARK    1  A    between atoms: C_7  and  C_8
REMARK                            x       y       z     vdW  Elec       q    Type
REMARK                         _______ _______ _______ _____ _____    ______ ____
ROOT
ATOM      1  N   UNL     1     -11.912  16.023  69.358  0.00  0.00    -0.128 NA
ATOM      2  C   UNL     1     -11.221  15.859  68.128  0.00  0.00    +0.090 A 
ATOM      3  C   UNL     1     -11.515  14.867  67.220  0.00  0.00    +0.028 A 
ATOM      4  C   UNL     1     -11.304  15.036  65.860  0.00  0.00    +0.120 A 
ATOM      5  C   UNL     1     -10.842  16.276  65.434  0.00  0.00    +0.202 A 
ATOM      6  O   UNL     1     -11.204  16.712  64.155  0.00  0.00    -0.286 OA
ATOM      7  C   UNL     1     -10.254  17.156  66.335  0.00  0.00    +0.044 A 
ATOM      8  C   UNL     1     -10.391  16.883  67.688  0.00  0.00    +0.021 A 
ENDROOT
BRANCH   4   9
ATOM      9  C   UNL     1     -11.467  13.970  64.890  0.00  0.00    +0.391 C 
ATOM     10  O   UNL     1     -12.725  13.477  64.581  0.00  0.00    -0.240 OA
ATOM     11  O   UNL     1     -10.483  13.358  64.376  0.00  0.00    -0.240 OA
ENDBRANCH   4   9
TORSDOF 1
ENDMDL
MODEL 6
REMARK VINA RESULT:      -4.7      1.635      2.432
REMARK  Name = 
REMARK  1 active torsions:
REMARK  status: ('A' for Active; 'I' for Inactive)
REMARK    1  A    between atoms: C_7  and  C_8
REMARK                            x       y       z     vdW  Elec       q    Type
REMARK                         _______ _______ _______ _____ _____    ______ ____
ROOT
ATOM      1  N   UNL     1     -10.065  11.703  65.005  0.00  0.00    -0.128 NA
ATOM      2  C   UNL     1     -10.668  12.954  65.301  0.00  0.00    +0.090 A 
ATOM      3  C   UNL     1      -9.971  14.034  65.795  0.00  0.00    +0.028 A 
ATOM      4  C   UNL     1     -10.363  15.337  65.533  0.00  0.00    +0.120 A 
ATOM      5  C   UNL     1     -11.457  15.520  64.695  0.00  0.00    +0.202 A 
ATOM      6  O   UNL     1     -11.506  16.681  63.916  0.00  0.00    -0.286 OA
ATOM      7  C   UNL     1     -12.341  14.475  64.452  0.00  0.00    +0.044 A 
ATOM      8  C   UNL     1     -11.955  13.200  64.838  0.00  0.00    +0.021 A 
ENDROOT
BRANCH   4   9
ATOM      9  C   UNL     1      -9.742  16.495  66.149  0.00  0.00    +0.391 C 
ATOM     10  O   UNL     1     -10.431  17.265  67.072  0.00  0.00    -0.240 OA
ATOM     11  O   UNL     1      -8.605  16.930  65.792  0.00  0.00    -0.240 OA
ENDBRANCH   4   9
TORSDOF 1
ENDMDL
MODEL 7
REMARK VINA RESULT:      -4.6      3.223      3.750
REMARK  Name = 
REMARK  1 active torsions:
REMARK  status: ('A' for Active; 'I' for Inactive)
REMARK    1  A    between atoms: C_7  and  C_8
REMARK                            x       y       z     vdW  Elec       q    Type
REMARK                         _______ _______ _______ _____ _____    ______ ____
ROOT
ATOM      1  N   UNL     1      -9.177  16.101  65.765  0.00  0.00    -0.128 NA
ATOM      2  C   UNL     1     -10.351  15.302  65.768  0.00  0.00    +0.090 A 
ATOM      3  C   UNL     1     -10.642  14.376  64.792  0.00  0.00    +0.028 A 
ATOM      4  C   UNL     1     -11.395  13.244  65.059  0.00  0.00    +0.120 A 
ATOM      5  C   UNL     1     -11.796  13.039  66.375  0.00  0.00    +0.202 A 
ATOM      6  O   UNL     1     -11.964  11.722  66.816  0.00  0.00    -0.286 OA
ATOM      7  C   UNL     1     -11.787  14.088  67.286  0.00  0.00    +0.044 A 
ATOM      8  C   UNL     1     -11.118  15.250  66.926  0.00  0.00    +0.021 A 
ENDROOT
BRANCH   4   9
ATOM      9  C   UNL     1     -11.840  12.322  64.031  0.00  0.00    +0.391 C 
ATOM     10  O   UNL     1     -13.184  12.204  63.717  0.00  0.00    -0.240 OA
ATOM     11  O   UNL     1     -11.057  11.501  63.464  0.00  0.00    -0.240 OA
ENDBRANCH   4   9
TORSDOF 1
ENDMDL
MODEL 8
REMARK VINA RESULT:      -4.6      2.934      3.567
REMARK  Name = 
REMARK  1 active torsions:
REMARK  status: ('A' for Active; 'I' for Inactive)
REMARK    1  A    between atoms: C_7  and  C_8
REMARK                            x       y       z     vdW  Elec       q    Type
REMARK                         _______ _______ _______ _____ _____    ______ ____
ROOT
ATOM      1  N   UNL     1     -11.995  11.085  68.758  0.00  0.00    -0.128 NA
ATOM      2  C   UNL     1     -11.664  11.994  67.719  0.00  0.00    +0.090 A 
ATOM      3  C   UNL     1     -11.632  11.645  66.387  0.00  0.00    +0.028 A 
ATOM      4  C   UNL     1     -11.899  12.563  65.385  0.00  0.00    +0.120 A 
ATOM      5  C   UNL     1     -12.267  13.846  65.774  0.00  0.00    +0.202 A 
ATOM      6  O   UNL     1     -13.119  14.572  64.935  0.00  0.00    -0.286 OA
ATOM      7  C   UNL     1     -12.004  14.294  67.063  0.00  0.00    +0.044 A 
ATOM      8  C   UNL     1     -11.624  13.352  68.009  0.00  0.00    +0.021 A 
ENDROOT
BRANCH   4   9
ATOM      9  C   UNL     1     -11.737  12.271  63.973  0.00  0.00    +0.391 C 
ATOM     10  O   UNL     1     -12.820  11.885  63.199  0.00  0.00    -0.240 OA
ATOM     11  O   UNL     1     -10.602  12.230  63.410  0.00  0.00    -0.240 OA
ENDBRANCH   4   9
TORSDOF 1
ENDMDL
MODEL 9
REMARK VINA RESULT:      -4.5      4.254      5.466
REMARK  Name = 
REMARK  1 active torsions:
REMARK  status: ('A' for Active; 'I' for Inactive)
REMARK    1  A    between atoms: C_7  and  C_8
REMARK                            x       y       z     vdW  Elec       q    Type
REMARK                         _______ _______ _______ _____ _____    ______ ____
ROOT
ATOM      1  N   UNL     1     -13.960  13.530  72.524  0.00  0.00    -0.128 NA
ATOM      2  C   UNL     1     -12.852  14.033  71.792  0.00  0.00    +0.090 A 
ATOM      3  C   UNL     1     -12.463  13.536  70.568  0.00  0.00    +0.028 A 
ATOM      4  C   UNL     1     -11.833  14.331  69.624  0.00  0.00    +0.120 A 
ATOM      5  C   UNL     1     -11.662  15.676  69.931  0.00  0.00    +0.202 A 
ATOM      6  O   UNL     1     -11.647  16.597  68.879  0.00  0.00    -0.286 OA
ATOM      7  C   UNL     1     -11.756  16.115  71.247  0.00  0.00    +0.044 A 
ATOM      8  C   UNL     1     -12.287  15.240  72.183  0.00  0.00    +0.021 A 
ENDROOT
BRANCH   4   9
ATOM      9  C   UNL     1     -11.284  13.813  68.385  0.00  0.00    +0.391 C 
ATOM     10  O   UNL     1      -9.914  13.753  68.185  0.00  0.00    -0.240 OA
ATOM     11  O   UNL     1     -12.010  13.509  67.390  0.00  0.00    -0.240 OA
ENDBRANCH   4   9
TORSDOF 1
ENDMDL
