MODEL 1
REMARK VINA RESULT:      -5.5      0.000      0.000
REMARK  Name = 
REMARK  0 active torsions:
REMARK  status: ('A' for Active; 'I' for Inactive)
REMARK                            x       y       z     vdW  Elec       q    Type
REMARK                         _______ _______ _______ _____ _____    ______ ____
ROOT
ATOM      1  C   UNL     1     -12.369  13.129  65.592  0.00  0.00    +0.137 C 
ATOM      2  C   UNL     1     -11.817  13.732  66.846  0.00  0.00    +0.368 C 
ATOM      3  N   UNL     1     -11.588  12.954  68.025  0.00  0.00    -0.007 NA
ATOM      4  C   UNL     1     -11.705  13.465  69.334  0.00  0.00    +0.204 A 
ATOM      5  C   UNL     1     -11.649  14.840  69.538  0.00  0.00    +0.193 A 
ATOM      6  C   UNL     1     -12.468  15.476  70.463  0.00  0.00    +0.038 A 
ATOM      7  C   UNL     1     -13.245  14.718  71.331  0.00  0.00    +0.059 A 
ATOM      8  C   UNL     1     -12.910  13.372  71.423  0.00  0.00    +0.015 A 
ATOM      9 CL   UNL     1     -14.817  15.327  71.823  0.00  0.00    -0.082 Cl
ATOM     10  S   UNL     1     -10.882  15.716  68.218  0.00  0.00    +0.183 S 
ATOM     11  O   UNL     1      -9.405  15.388  68.245  0.00  0.00    -0.125 OA
ATOM     12  O   UNL     1     -11.146  17.177  68.274  0.00  0.00    -0.125 OA
ATOM     13  C   UNL     1     -12.193  12.740  70.413  0.00  0.00    +0.047 A 
ATOM     14  N   UNL     1     -11.500  14.987  66.768  0.00  0.00    +0.095 NA
ENDROOT
TORSDOF 0
ENDMDL
MODEL 2
REMARK VINA RESULT:      -5.4      5.216      6.109
REMARK  Name = 
REMARK  0 active torsions:
REMARK  status: ('A' for Active; 'I' for Inactive)
REMARK                            x       y       z     vdW  Elec       q    Type
REMARK                         _______ _______ _______ _____ _____    ______ ____
ROOT
ATOM      1  C   UNL     1      -9.143  15.982  66.049  0.00  0.00    +0.137 C 
ATOM      2  C   UNL     1     -10.106  14.867  65.786  0.00  0.00    +0.368 C 
ATOM      3  N   UNL     1     -10.115  13.671  66.572  0.00  0.00    -0.007 NA
ATOM      4  C   UNL     1     -10.465  12.403  66.063  0.00  0.00    +0.204 A 
ATOM      5  C   UNL     1     -11.206  12.319  64.888  0.00  0.00    +0.193 A 
ATOM      6  C   UNL     1     -10.950  11.346  63.930  0.00  0.00    +0.038 A 
ATOM      7  C   UNL     1     -10.051  10.324  64.211  0.00  0.00    +0.059 A 
ATOM      8  C   UNL     1      -9.708  10.169  65.549  0.00  0.00    +0.015 A 
ATOM      9 CL   UNL     1      -9.065   9.673  62.911  0.00  0.00    -0.082 Cl
ATOM     10  S   UNL     1     -12.081  13.797  64.503  0.00  0.00    +0.183 S 
ATOM     11  O   UNL     1     -13.202  13.944  65.508  0.00  0.00    -0.125 OA
ATOM     12  O   UNL     1     -12.564  13.823  63.098  0.00  0.00    -0.125 OA
ATOM     13  C   UNL     1      -9.865  11.214  66.455  0.00  0.00    +0.047 A 
ATOM     14  N   UNL     1     -10.970  15.087  64.844  0.00  0.00    +0.095 NA
ENDROOT
TORSDOF 0
ENDMDL
MODEL 3
REMARK VINA RESULT:      -5.3      5.588      6.746
REMARK  Name = 
REMARK  0 active torsions:
REMARK  status: ('A' for Active; 'I' for Inactive)
REMARK                            x       y       z     vdW  Elec       q    Type
REMARK                         _______ _______ _______ _____ _____    ______ ____
ROOT
ATOM      1  C   UNL     1     -15.064   7.281  71.775  0.00  0.00    +0.137 C 
ATOM      2  C   UNL     1     -13.745   7.989  71.784  0.00  0.00    +0.368 C 
ATOM      3  N   UNL     1     -13.616   9.349  72.211  0.00  0.00    -0.007 NA
ATOM      4  C   UNL     1     -12.666  10.247  71.684  0.00  0.00    +0.204 A 
ATOM      5  C   UNL     1     -11.548   9.749  71.021  0.00  0.00    +0.193 A 
ATOM      6  C   UNL     1     -11.042  10.360  69.881  0.00  0.00    +0.038 A 
ATOM      7  C   UNL     1     -11.546  11.591  69.478  0.00  0.00    +0.059 A 
ATOM      8  C   UNL     1     -12.305  12.273  70.422  0.00  0.00    +0.015 A 
ATOM      9 CL   UNL     1     -11.641  11.954  67.762  0.00  0.00    -0.082 Cl
ATOM     10  S   UNL     1     -11.185   8.073  71.418  0.00  0.00    +0.183 S 
ATOM     11  O   UNL     1     -10.681   8.036  72.844  0.00  0.00    -0.125 OA
ATOM     12  O   UNL     1     -10.236   7.453  70.458  0.00  0.00    -0.125 OA
ATOM     13  C   UNL     1     -12.901  11.601  71.484  0.00  0.00    +0.047 A 
ATOM     14  N   UNL     1     -12.724   7.267  71.441  0.00  0.00    +0.095 NA
ENDROOT
TORSDOF 0
ENDMDL
MODEL 4
REMARK VINA RESULT:      -5.2      4.071      4.929
REMARK  Name = 
REMARK  0 active torsions:
REMARK  status: ('A' for Active; 'I' for Inactive)
REMARK                            x       y       z     vdW  Elec       q    Type
REMARK                         _______ _______ _______ _____ _____    ______ ____
ROOT
ATOM      1  C   UNL     1     -11.736  11.491  68.221  0.00  0.00    +0.137 C 
ATOM      2  C   UNL     1     -11.235  12.292  67.061  0.00  0.00    +0.368 C 
ATOM      3  N   UNL     1      -9.891  12.780  67.000  0.00  0.00    -0.007 NA
ATOM      4  C   UNL     1      -9.525  13.986  66.366  0.00  0.00    +0.204 A 
ATOM      5  C   UNL     1     -10.380  14.550  65.425  0.00  0.00    +0.193 A 
ATOM      6  C   UNL     1     -10.578  15.923  65.347  0.00  0.00    +0.038 A 
ATOM      7  C   UNL     1      -9.786  16.777  66.105  0.00  0.00    +0.059 A 
ATOM      8  C   UNL     1      -8.639  16.213  66.652  0.00  0.00    +0.015 A 
ATOM      9 CL   UNL     1     -10.485  18.263  66.728  0.00  0.00    -0.082 Cl
ATOM     10  S   UNL     1     -11.528  13.404  64.743  0.00  0.00    +0.183 S 
ATOM     11  O   UNL     1     -10.758  12.451  63.857  0.00  0.00    -0.125 OA
ATOM     12  O   UNL     1     -12.646  14.074  64.029  0.00  0.00    -0.125 OA
ATOM     13  C   UNL     1      -8.530  14.837  66.828  0.00  0.00    +0.047 A 
ATOM     14  N   UNL     1     -12.079  12.455  66.090  0.00  0.00    +0.095 NA
ENDROOT
TORSDOF 0
ENDMDL
MODEL 5
REMARK VINA RESULT:      -5.2      3.242      3.916
REMARK  Name = 
REMARK  0 active torsions:
REMARK  status: ('A' for Active; 'I' for Inactive)
REMARK                            x       y       z     vdW  Elec       q    Type
REMARK                         _______ _______ _______ _____ _____    ______ ____
ROOT
ATOM      1  C   UNL     1      -9.021  16.024  66.108  0.00  0.00    +0.137 C 
ATOM      2  C   UNL     1     -10.199  15.122  66.303  0.00  0.00    +0.368 C 
ATOM      3  N   UNL     1     -11.055  15.226  67.445  0.00  0.00    -0.007 NA
ATOM      4  C   UNL     1     -11.716  14.126  68.030  0.00  0.00    +0.204 A 
ATOM      5  C   UNL     1     -11.893  12.962  67.289  0.00  0.00    +0.193 A 
ATOM      6  C   UNL     1     -11.760  11.703  67.862  0.00  0.00    +0.038 A 
ATOM      7  C   UNL     1     -11.614  11.586  69.239  0.00  0.00    +0.059 A 
ATOM      8  C   UNL     1     -11.927  12.719  69.980  0.00  0.00    +0.015 A 
ATOM      9 CL   UNL     1     -10.616  10.292  69.885  0.00  0.00    -0.082 Cl
ATOM     10  S   UNL     1     -11.773  13.211  65.551  0.00  0.00    +0.183 S 
ATOM     11  O   UNL     1     -12.994  13.988  65.111  0.00  0.00    -0.125 OA
ATOM     12  O   UNL     1     -11.604  11.938  64.803  0.00  0.00    -0.125 OA
ATOM     13  C   UNL     1     -11.928  13.981  69.395  0.00  0.00    +0.047 A 
ATOM     14  N   UNL     1     -10.427  14.287  65.336  0.00  0.00    +0.095 NA
ENDROOT
TORSDOF 0
ENDMDL
MODEL 6
REMARK VINA RESULT:      -5.2      4.671      5.908
REMARK  Name = 
REMARK  0 active torsions:
REMARK  status: ('A' for Active; 'I' for Inactive)
REMARK                            x       y       z     vdW  Elec       q    Type
REMARK                         _______ _______ _______ _____ _____    ______ ____
ROOT
ATOM      1  C   UNL     1     -13.502  13.238  72.196  0.00  0.00    +0.137 C 
ATOM      2  C   UNL     1     -12.918  12.103  71.416  0.00  0.00    +0.368 C 
ATOM      3  N   UNL     1     -13.302  10.744  71.651  0.00  0.00    -0.007 NA
ATOM      4  C   UNL     1     -12.432   9.646  71.485  0.00  0.00    +0.204 A 
ATOM      5  C   UNL     1     -11.292   9.790  70.699  0.00  0.00    +0.193 A 
ATOM      6  C   UNL     1     -10.082   9.208  71.055  0.00  0.00    +0.038 A 
ATOM      7  C   UNL     1     -10.032   8.322  72.124  0.00  0.00    +0.059 A 
ATOM      8  C   UNL     1     -11.257   7.837  72.566  0.00  0.00    +0.015 A 
ATOM      9 CL   UNL     1      -8.589   8.273  73.126  0.00  0.00    -0.082 Cl
ATOM     10  S   UNL     1     -11.382  11.138  69.571  0.00  0.00    +0.183 S 
ATOM     11  O   UNL     1     -12.391  10.779  68.503  0.00  0.00    -0.125 OA
ATOM     12  O   UNL     1     -10.055  11.499  69.009  0.00  0.00    -0.125 OA
ATOM     13  C   UNL     1     -12.439   8.518  72.294  0.00  0.00    +0.047 A 
ATOM     14  N   UNL     1     -12.093  12.441  70.474  0.00  0.00    +0.095 NA
ENDROOT
TORSDOF 0
ENDMDL
MODEL 7
REMARK VINA RESULT:      -4.9      4.688      5.497
REMARK  Name = 
REMARK  0 active torsions:
REMARK  status: ('A' for Active; 'I' for Inactive)
REMARK                            x       y       z     vdW  Elec       q    Type
REMARK                         _______ _______ _______ _____ _____    ______ ____
ROOT
ATOM      1  C   UNL     1      -6.226  17.368  66.154  0.00  0.00    +0.137 C 
ATOM      2  C   UNL     1      -7.629  16.877  66.324  0.00  0.00    +0.368 C 
ATOM      3  N   UNL     1      -7.940  15.723  67.111  0.00  0.00    -0.007 NA
ATOM      4  C   UNL     1      -9.011  14.849  66.830  0.00  0.00    +0.204 A 
ATOM      5  C   UNL     1     -10.057  15.288  66.023  0.00  0.00    +0.193 A 
ATOM      6  C   UNL     1     -10.656  14.456  65.086  0.00  0.00    +0.038 A 
ATOM      7  C   UNL     1     -10.330  13.105  65.057  0.00  0.00    +0.059 A 
ATOM      8  C   UNL     1      -9.662  12.619  66.175  0.00  0.00    +0.015 A 
ATOM      9 CL   UNL     1     -10.306  12.265  63.514  0.00  0.00    -0.082 Cl
ATOM     10  S   UNL     1     -10.181  17.041  65.925  0.00  0.00    +0.183 S 
ATOM     11  O   UNL     1     -10.659  17.545  67.269  0.00  0.00    -0.125 OA
ATOM     12  O   UNL     1     -11.046  17.489  64.804  0.00  0.00    -0.125 OA
ATOM     13  C   UNL     1      -8.967  13.475  67.023  0.00  0.00    +0.047 A 
ATOM     14  N   UNL     1      -8.546  17.605  65.765  0.00  0.00    +0.095 NA
ENDROOT
TORSDOF 0
ENDMDL
MODEL 8
REMARK VINA RESULT:      -4.9      3.109      3.951
REMARK  Name = 
REMARK  0 active torsions:
REMARK  status: ('A' for Active; 'I' for Inactive)
REMARK                            x       y       z     vdW  Elec       q    Type
REMARK                         _______ _______ _______ _____ _____    ______ ____
ROOT
ATOM      1  C   UNL     1      -6.877  16.874  67.622  0.00  0.00    +0.137 C 
ATOM      2  C   UNL     1      -8.303  16.574  67.282  0.00  0.00    +0.368 C 
ATOM      3  N   UNL     1      -9.388  17.008  68.108  0.00  0.00    -0.007 NA
ATOM      4  C   UNL     1     -10.594  16.291  68.256  0.00  0.00    +0.204 A 
ATOM      5  C   UNL     1     -10.948  15.346  67.298  0.00  0.00    +0.193 A 
ATOM      6  C   UNL     1     -11.542  14.139  67.647  0.00  0.00    +0.038 A 
ATOM      7  C   UNL     1     -11.951  13.927  68.958  0.00  0.00    +0.059 A 
ATOM      8  C   UNL     1     -12.023  15.059  69.761  0.00  0.00    +0.015 A 
ATOM      9 CL   UNL     1     -11.853  12.308  69.632  0.00  0.00    -0.082 Cl
ATOM     10  S   UNL     1     -10.134  15.570  65.754  0.00  0.00    +0.183 S 
ATOM     11  O   UNL     1     -10.700  16.817  65.112  0.00  0.00    -0.125 OA
ATOM     12  O   UNL     1     -10.237  14.376  64.877  0.00  0.00    -0.125 OA
ATOM     13  C   UNL     1     -11.312  16.212  69.441  0.00  0.00    +0.047 A 
ATOM     14  N   UNL     1      -8.489  15.954  66.158  0.00  0.00    +0.095 NA
ENDROOT
TORSDOF 0
ENDMDL
MODEL 9
REMARK VINA RESULT:      -4.9      3.181      4.160
REMARK  Name = 
REMARK  0 active torsions:
REMARK  status: ('A' for Active; 'I' for Inactive)
REMARK                            x       y       z     vdW  Elec       q    Type
REMARK                         _______ _______ _______ _____ _____    ______ ____
ROOT
ATOM      1  C   UNL     1      -6.960  16.308  69.149  0.00  0.00    +0.137 C 
ATOM      2  C   UNL     1      -8.382  16.364  68.686  0.00  0.00    +0.368 C 
ATOM      3  N   UNL     1      -9.447  15.764  69.431  0.00  0.00    -0.007 NA
ATOM      4  C   UNL     1     -10.601  15.212  68.837  0.00  0.00    +0.204 A 
ATOM      5  C   UNL     1     -10.949  15.585  67.543  0.00  0.00    +0.193 A 
ATOM      6  C   UNL     1     -11.455  14.668  66.629  0.00  0.00    +0.038 A 
ATOM      7  C   UNL     1     -11.786  13.386  67.051  0.00  0.00    +0.059 A 
ATOM      8  C   UNL     1     -11.882  13.208  68.427  0.00  0.00    +0.015 A 
ATOM      9 CL   UNL     1     -11.562  12.039  65.946  0.00  0.00    -0.082 Cl
ATOM     10  S   UNL     1     -10.228  17.106  67.032  0.00  0.00    +0.183 S 
ATOM     11  O   UNL     1     -10.895  18.218  67.811  0.00  0.00    -0.125 OA
ATOM     12  O   UNL     1     -10.306  17.310  65.562  0.00  0.00    -0.125 OA
ATOM     13  C   UNL     1     -11.254  14.081  69.309  0.00  0.00    +0.047 A 
ATOM     14  N   UNL     1      -8.588  17.048  67.604  0.00  0.00    +0.095 NA
ENDROOT
TORSDOF 0
ENDMDL
