MODEL 1
REMARK VINA RESULT:      -4.5      0.000      0.000
REMARK  Name = 
REMARK  0 active torsions:
REMARK  status: ('A' for Active; 'I' for Inactive)
REMARK                            x       y       z     vdW  Elec       q    Type
REMARK                         _______ _______ _______ _____ _____    ______ ____
ROOT
ATOM      1  N   UNL     1     -10.530  16.984  65.305  0.00  0.00    -0.134 NA
ATOM      2  C   UNL     1      -9.957  17.848  66.313  0.00  0.00    +0.077 C 
ATOM      3  C   UNL     1     -10.503  17.499  67.681  0.00  0.00    +0.018 C 
ATOM      4  C   UNL     1      -9.740  18.324  68.698  0.00  0.00    +0.001 C 
ATOM      5  C   UNL     1      -8.254  18.174  68.590  0.00  0.00    +0.000 C 
ATOM      6  C   UNL     1      -7.799  18.655  67.223  0.00  0.00    +0.001 C 
ATOM      7  C   UNL     1      -8.211  20.090  66.963  0.00  0.00    +0.000 C 
ATOM      8  C   UNL     1      -9.718  20.177  67.065  0.00  0.00    +0.001 C 
ATOM      9  C   UNL     1     -10.098  19.766  68.476  0.00  0.00    +0.000 C 
ATOM     10  C   UNL     1      -8.453  17.697  66.239  0.00  0.00    +0.018 C 
ATOM     11  C   UNL     1     -10.350  19.284  66.023  0.00  0.00    +0.018 C 
ENDROOT
TORSDOF 0
ENDMDL
MODEL 2
REMARK VINA RESULT:      -4.4      0.081      2.227
REMARK  Name = 
REMARK  0 active torsions:
REMARK  status: ('A' for Active; 'I' for Inactive)
REMARK                            x       y       z     vdW  Elec       q    Type
REMARK                         _______ _______ _______ _____ _____    ______ ____
ROOT
ATOM      1  N   UNL     1     -10.566  16.982  65.326  0.00  0.00    -0.134 NA
ATOM      2  C   UNL     1      -9.914  17.826  66.302  0.00  0.00    +0.077 C 
ATOM      3  C   UNL     1      -8.416  17.605  66.274  0.00  0.00    +0.018 C 
ATOM      4  C   UNL     1      -7.789  18.632  67.195  0.00  0.00    +0.001 C 
ATOM      5  C   UNL     1      -8.194  20.040  66.879  0.00  0.00    +0.000 C 
ATOM      6  C   UNL     1      -9.697  20.179  67.045  0.00  0.00    +0.001 C 
ATOM      7  C   UNL     1     -10.150  19.794  68.440  0.00  0.00    +0.000 C 
ATOM      8  C   UNL     1      -9.733  18.362  68.695  0.00  0.00    +0.001 C 
ATOM      9  C   UNL     1      -8.219  18.309  68.598  0.00  0.00    +0.000 C 
ATOM     10  C   UNL     1     -10.290  19.258  65.990  0.00  0.00    +0.018 C 
ATOM     11  C   UNL     1     -10.399  17.451  67.690  0.00  0.00    +0.018 C 
ENDROOT
TORSDOF 0
ENDMDL
MODEL 3
REMARK VINA RESULT:      -4.4      0.250      2.230
REMARK  Name = 
REMARK  0 active torsions:
REMARK  status: ('A' for Active; 'I' for Inactive)
REMARK                            x       y       z     vdW  Elec       q    Type
REMARK                         _______ _______ _______ _____ _____    ______ ____
ROOT
ATOM      1  N   UNL     1     -10.564  17.303  65.342  0.00  0.00    -0.134 NA
ATOM      2  C   UNL     1      -9.908  18.127  66.333  0.00  0.00    +0.077 C 
ATOM      3  C   UNL     1     -10.214  19.590  66.091  0.00  0.00    +0.018 C 
ATOM      4  C   UNL     1      -9.638  20.372  67.253  0.00  0.00    +0.001 C 
ATOM      5  C   UNL     1     -10.098  19.877  68.590  0.00  0.00    +0.000 C 
ATOM      6  C   UNL     1      -9.644  18.439  68.776  0.00  0.00    +0.001 C 
ATOM      7  C   UNL     1      -8.141  18.301  68.644  0.00  0.00    +0.000 C 
ATOM      8  C   UNL     1      -7.737  18.796  67.274  0.00  0.00    +0.001 C 
ATOM      9  C   UNL     1      -8.142  20.256  67.184  0.00  0.00    +0.000 C 
ATOM     10  C   UNL     1     -10.376  17.660  67.694  0.00  0.00    +0.018 C 
ATOM     11  C   UNL     1      -8.406  17.954  66.211  0.00  0.00    +0.018 C 
ENDROOT
TORSDOF 0
ENDMDL
MODEL 4
REMARK VINA RESULT:      -4.4      4.663      5.837
REMARK  Name = 
REMARK  0 active torsions:
REMARK  status: ('A' for Active; 'I' for Inactive)
REMARK                            x       y       z     vdW  Elec       q    Type
REMARK                         _______ _______ _______ _____ _____    ______ ____
ROOT
ATOM      1  N   UNL     1     -12.437  13.312  63.468  0.00  0.00    -0.134 NA
ATOM      2  C   UNL     1     -11.819  13.328  64.776  0.00  0.00    +0.077 C 
ATOM      3  C   UNL     1     -11.622  11.915  65.284  0.00  0.00    +0.018 C 
ATOM      4  C   UNL     1     -10.826  12.003  66.570  0.00  0.00    +0.001 C 
ATOM      5  C   UNL     1      -9.548  12.771  66.426  0.00  0.00    +0.000 C 
ATOM      6  C   UNL     1      -9.864  14.201  66.022  0.00  0.00    +0.001 C 
ATOM      7  C   UNL     1     -10.786  14.878  67.017  0.00  0.00    +0.000 C 
ATOM      8  C   UNL     1     -12.063  14.073  67.106  0.00  0.00    +0.001 C 
ATOM      9  C   UNL     1     -11.687  12.685  67.595  0.00  0.00    +0.000 C 
ATOM     10  C   UNL     1     -10.512  14.080  64.651  0.00  0.00    +0.018 C 
ATOM     11  C   UNL     1     -12.736  14.036  65.754  0.00  0.00    +0.018 C 
ENDROOT
TORSDOF 0
ENDMDL
MODEL 5
REMARK VINA RESULT:      -4.3      4.593      6.173
REMARK  Name = 
REMARK  0 active torsions:
REMARK  status: ('A' for Active; 'I' for Inactive)
REMARK                            x       y       z     vdW  Elec       q    Type
REMARK                         _______ _______ _______ _____ _____    ______ ____
ROOT
ATOM      1  N   UNL     1     -12.437  13.348  63.486  0.00  0.00    -0.134 NA
ATOM      2  C   UNL     1     -11.757  13.408  64.761  0.00  0.00    +0.077 C 
ATOM      3  C   UNL     1     -10.453  14.167  64.628  0.00  0.00    +0.018 C 
ATOM      4  C   UNL     1      -9.882  14.334  66.021  0.00  0.00    +0.001 C 
ATOM      5  C   UNL     1     -10.842  14.957  66.987  0.00  0.00    +0.000 C 
ATOM      6  C   UNL     1     -12.062  14.063  67.130  0.00  0.00    +0.001 C 
ATOM      7  C   UNL     1     -11.687  12.664  67.578  0.00  0.00    +0.000 C 
ATOM      8  C   UNL     1     -10.735  12.079  66.560  0.00  0.00    +0.001 C 
ATOM      9  C   UNL     1      -9.506  12.970  66.527  0.00  0.00    +0.000 C 
ATOM     10  C   UNL     1     -12.701  14.057  65.750  0.00  0.00    +0.018 C 
ATOM     11  C   UNL     1     -11.417  12.001  65.213  0.00  0.00    +0.018 C 
ENDROOT
TORSDOF 0
ENDMDL
MODEL 6
REMARK VINA RESULT:      -4.3      4.622      5.836
REMARK  Name = 
REMARK  0 active torsions:
REMARK  status: ('A' for Active; 'I' for Inactive)
REMARK                            x       y       z     vdW  Elec       q    Type
REMARK                         _______ _______ _______ _____ _____    ______ ____
ROOT
ATOM      1  N   UNL     1     -12.438  13.150  63.510  0.00  0.00    -0.134 NA
ATOM      2  C   UNL     1     -11.802  13.323  64.797  0.00  0.00    +0.077 C 
ATOM      3  C   UNL     1     -12.722  14.062  65.746  0.00  0.00    +0.018 C 
ATOM      4  C   UNL     1     -12.063  14.059  67.110  0.00  0.00    +0.001 C 
ATOM      5  C   UNL     1     -11.687  12.690  67.586  0.00  0.00    +0.000 C 
ATOM      6  C   UNL     1     -10.680  12.083  66.625  0.00  0.00    +0.001 C 
ATOM      7  C   UNL     1      -9.447  12.953  66.475  0.00  0.00    +0.000 C 
ATOM      8  C   UNL     1      -9.884  14.312  65.975  0.00  0.00    +0.001 C 
ATOM      9  C   UNL     1     -10.819  14.897  67.018  0.00  0.00    +0.000 C 
ATOM     10  C   UNL     1     -11.433  11.948  65.310  0.00  0.00    +0.018 C 
ATOM     11  C   UNL     1     -10.554  14.167  64.628  0.00  0.00    +0.018 C 
ENDROOT
TORSDOF 0
ENDMDL
MODEL 7
REMARK VINA RESULT:      -4.1      1.586      2.785
REMARK  Name = 
REMARK  0 active torsions:
REMARK  status: ('A' for Active; 'I' for Inactive)
REMARK                            x       y       z     vdW  Elec       q    Type
REMARK                         _______ _______ _______ _____ _____    ______ ____
ROOT
ATOM      1  N   UNL     1      -6.327  18.602  66.790  0.00  0.00    -0.134 NA
ATOM      2  C   UNL     1      -7.751  18.624  67.041  0.00  0.00    +0.077 C 
ATOM      3  C   UNL     1      -8.025  18.839  68.514  0.00  0.00    +0.018 C 
ATOM      4  C   UNL     1      -9.521  19.018  68.676  0.00  0.00    +0.001 C 
ATOM      5  C   UNL     1     -10.090  20.090  67.798  0.00  0.00    +0.000 C 
ATOM      6  C   UNL     1      -9.859  19.722  66.342  0.00  0.00    +0.001 C 
ATOM      7  C   UNL     1     -10.462  18.374  65.998  0.00  0.00    +0.000 C 
ATOM      8  C   UNL     1      -9.838  17.331  66.899  0.00  0.00    +0.001 C 
ATOM      9  C   UNL     1     -10.176  17.711  68.330  0.00  0.00    +0.000 C 
ATOM     10  C   UNL     1      -8.347  19.717  66.180  0.00  0.00    +0.018 C 
ATOM     11  C   UNL     1      -8.346  17.281  66.662  0.00  0.00    +0.018 C 
ENDROOT
TORSDOF 0
ENDMDL
MODEL 8
REMARK VINA RESULT:      -4.1      1.557      2.901
REMARK  Name = 
REMARK  0 active torsions:
REMARK  status: ('A' for Active; 'I' for Inactive)
REMARK                            x       y       z     vdW  Elec       q    Type
REMARK                         _______ _______ _______ _____ _____    ______ ____
ROOT
ATOM      1  N   UNL     1      -6.364  18.384  66.685  0.00  0.00    -0.134 NA
ATOM      2  C   UNL     1      -7.776  18.563  66.944  0.00  0.00    +0.077 C 
ATOM      3  C   UNL     1      -8.311  19.741  66.158  0.00  0.00    +0.018 C 
ATOM      4  C   UNL     1      -9.814  19.766  66.346  0.00  0.00    +0.001 C 
ATOM      5  C   UNL     1     -10.478  18.467  66.006  0.00  0.00    +0.000 C 
ATOM      6  C   UNL     1      -9.951  17.378  66.924  0.00  0.00    +0.001 C 
ATOM      7  C   UNL     1     -10.164  17.719  68.386  0.00  0.00    +0.000 C 
ATOM      8  C   UNL     1      -9.459  19.025  68.676  0.00  0.00    +0.001 C 
ATOM      9  C   UNL     1     -10.088  20.085  67.789  0.00  0.00    +0.000 C 
ATOM     10  C   UNL     1      -8.472  17.269  66.585  0.00  0.00    +0.018 C 
ATOM     11  C   UNL     1      -7.978  18.872  68.415  0.00  0.00    +0.018 C 
ENDROOT
TORSDOF 0
ENDMDL
MODEL 9
REMARK VINA RESULT:      -4.1      1.615      2.546
REMARK  Name = 
REMARK  0 active torsions:
REMARK  status: ('A' for Active; 'I' for Inactive)
REMARK                            x       y       z     vdW  Elec       q    Type
REMARK                         _______ _______ _______ _____ _____    ______ ____
ROOT
ATOM      1  N   UNL     1      -6.274  18.505  66.892  0.00  0.00    -0.134 NA
ATOM      2  C   UNL     1      -7.711  18.576  67.045  0.00  0.00    +0.077 C 
ATOM      3  C   UNL     1      -8.351  17.265  66.639  0.00  0.00    +0.018 C 
ATOM      4  C   UNL     1      -9.824  17.355  66.980  0.00  0.00    +0.001 C 
ATOM      5  C   UNL     1     -10.083  17.732  68.406  0.00  0.00    +0.000 C 
ATOM      6  C   UNL     1      -9.497  19.108  68.676  0.00  0.00    +0.001 C 
ATOM      7  C   UNL     1     -10.061  20.155  67.736  0.00  0.00    +0.000 C 
ATOM      8  C   UNL     1      -9.755  19.733  66.317  0.00  0.00    +0.001 C 
ATOM      9  C   UNL     1     -10.436  18.396  66.086  0.00  0.00    +0.000 C 
ATOM     10  C   UNL     1      -7.998  18.934  68.486  0.00  0.00    +0.018 C 
ATOM     11  C   UNL     1      -8.258  19.649  66.123  0.00  0.00    +0.018 C 
ENDROOT
TORSDOF 0
ENDMDL
