MODEL 1
REMARK VINA RESULT:      -5.7      0.000      0.000
REMARK  Name = 
REMARK  9 active torsions:
REMARK  status: ('A' for Active; 'I' for Inactive)
REMARK    1  A    between atoms: C_3  and  C_4
REMARK    2  A    between atoms: C_4  and  C_5
REMARK    3  A    between atoms: C_5  and  C_6
REMARK    4  A    between atoms: C_6  and  C_7
REMARK    5  A    between atoms: C_13  and  N_14
REMARK    6  A    between atoms: N_14  and  C_15
REMARK    7  A    between atoms: N_14  and  C_18
REMARK    8  A    between atoms: C_15  and  C_16
REMARK    9  A    between atoms: C_18  and  C_19
REMARK                            x       y       z     vdW  Elec       q    Type
REMARK                         _______ _______ _______ _____ _____    ______ ____
ROOT
ATOM      1  C   UNL     1     -10.983  15.240  66.674  0.00  0.00    +0.132 C 
ATOM      2  N   UNL     1     -10.895  16.327  67.638  0.00  0.00    -0.313 N 
ATOM      3  C   UNL     1     -10.475  17.587  67.418  0.00  0.00    +0.079 A 
ATOM      4  C   UNL     1      -9.995  18.129  68.604  0.00  0.00    +0.100 A 
ATOM      5  C   UNL     1      -9.031  19.131  68.586  0.00  0.00    +0.035 A 
ATOM      6  C   UNL     1      -8.411  19.460  67.387  0.00  0.00    +0.050 A 
ATOM      7  C   UNL     1      -9.164  19.241  66.242  0.00  0.00    +0.016 A 
ATOM      8  N   UNL     1     -10.537  17.350  69.572  0.00  0.00    -0.231 NA
ATOM      9  C   UNL     1     -10.186  18.300  66.264  0.00  0.00    +0.020 A 
ATOM     10  C   UNL     1     -11.043  16.240  68.980  0.00  0.00    +0.120 A 
ENDROOT
BRANCH   6  11
ATOM     11  N   UNL     1      -7.001  19.714  67.337  0.00  0.00    -0.305 N 
BRANCH  11  12
ATOM     12  C   UNL     1      -6.432  20.994  67.738  0.00  0.00    +0.108 C 
BRANCH  12  13
ATOM     13  C   UNL     1      -5.356  20.852  68.772  0.00  0.00    +0.116 C 
ATOM     14 CL   UNL     1      -6.100  20.245  70.280  0.00  0.00    -0.112 Cl
ENDBRANCH  12  13
ENDBRANCH  11  12
BRANCH  11  15
ATOM     15  C   UNL     1      -6.213  18.693  66.654  0.00  0.00    +0.108 C 
BRANCH  15  16
ATOM     16  C   UNL     1      -6.154  17.505  67.604  0.00  0.00    +0.116 C 
ATOM     17 CL   UNL     1      -7.140  16.200  66.881  0.00  0.00    -0.112 Cl
ENDBRANCH  15  16
ENDBRANCH  11  15
ENDBRANCH   6  11
BRANCH  10  18
ATOM     18  C   UNL     1     -11.679  15.095  69.664  0.00  0.00    +0.065 C 
BRANCH  18  19
ATOM     19  C   UNL     1     -12.649  15.626  70.683  0.00  0.00    +0.020 C 
BRANCH  19  20
ATOM     20  C   UNL     1     -12.125  15.427  72.089  0.00  0.00    +0.115 C 
BRANCH  20  21
ATOM     21  C   UNL     1     -13.185  15.838  73.060  0.00  0.00    +0.365 C 
ATOM     22  O   UNL     1     -12.744  16.273  74.298  0.00  0.00    -0.246 OA
ATOM     23  O   UNL     1     -14.351  16.054  72.639  0.00  0.00    -0.246 OA
ENDBRANCH  20  21
ENDBRANCH  19  20
ENDBRANCH  18  19
ENDBRANCH  10  18
TORSDOF 9
ENDMDL
MODEL 2
REMARK VINA RESULT:      -5.7      1.757      2.389
REMARK  Name = 
REMARK  9 active torsions:
REMARK  status: ('A' for Active; 'I' for Inactive)
REMARK    1  A    between atoms: C_3  and  C_4
REMARK    2  A    between atoms: C_4  and  C_5
REMARK    3  A    between atoms: C_5  and  C_6
REMARK    4  A    between atoms: C_6  and  C_7
REMARK    5  A    between atoms: C_13  and  N_14
REMARK    6  A    between atoms: N_14  and  C_15
REMARK    7  A    between atoms: N_14  and  C_18
REMARK    8  A    between atoms: C_15  and  C_16
REMARK    9  A    between atoms: C_18  and  C_19
REMARK                            x       y       z     vdW  Elec       q    Type
REMARK                         _______ _______ _______ _____ _____    ______ ____
ROOT
ATOM      1  C   UNL     1     -11.071  12.726  68.286  0.00  0.00    +0.132 C 
ATOM      2  N   UNL     1     -11.482  14.113  68.452  0.00  0.00    -0.313 N 
ATOM      3  C   UNL     1     -11.320  15.127  67.581  0.00  0.00    +0.079 A 
ATOM      4  C   UNL     1     -11.293  16.332  68.273  0.00  0.00    +0.100 A 
ATOM      5  C   UNL     1     -10.613  17.429  67.758  0.00  0.00    +0.035 A 
ATOM      6  C   UNL     1      -9.802  17.268  66.642  0.00  0.00    +0.050 A 
ATOM      7  C   UNL     1     -10.168  16.247  65.777  0.00  0.00    +0.016 A 
ATOM      8  N   UNL     1     -11.869  16.046  69.467  0.00  0.00    -0.231 NA
ATOM      9  C   UNL     1     -10.919  15.179  66.255  0.00  0.00    +0.020 A 
ATOM     10  C   UNL     1     -11.941  14.696  69.583  0.00  0.00    +0.120 A 
ENDROOT
BRANCH   6  11
ATOM     11  N   UNL     1      -8.522  17.910  66.566  0.00  0.00    -0.305 N 
BRANCH  11  12
ATOM     12  C   UNL     1      -8.384  19.319  66.223  0.00  0.00    +0.108 C 
BRANCH  12  13
ATOM     13  C   UNL     1      -8.229  20.197  67.428  0.00  0.00    +0.116 C 
ATOM     14 CL   UNL     1      -6.613  20.960  67.365  0.00  0.00    -0.112 Cl
ENDBRANCH  12  13
ENDBRANCH  11  12
BRANCH  11  15
ATOM     15  C   UNL     1      -7.374  17.010  66.637  0.00  0.00    +0.108 C 
BRANCH  15  16
ATOM     16  C   UNL     1      -7.243  16.615  68.101  0.00  0.00    +0.116 C 
ATOM     17 CL   UNL     1      -6.008  17.684  68.829  0.00  0.00    -0.112 Cl
ENDBRANCH  15  16
ENDBRANCH  11  15
ENDBRANCH   6  11
BRANCH  10  18
ATOM     18  C   UNL     1     -12.449  13.944  70.748  0.00  0.00    +0.065 C 
BRANCH  18  19
ATOM     19  C   UNL     1     -13.359  14.843  71.538  0.00  0.00    +0.020 C 
BRANCH  19  20
ATOM     20  C   UNL     1     -13.158  14.649  73.027  0.00  0.00    +0.115 C 
BRANCH  20  21
ATOM     21  C   UNL     1     -12.564  15.897  73.599  0.00  0.00    +0.365 C 
ATOM     22  O   UNL     1     -12.523  15.975  74.980  0.00  0.00    -0.246 OA
ATOM     23  O   UNL     1     -11.884  16.648  72.854  0.00  0.00    -0.246 OA
ENDBRANCH  20  21
ENDBRANCH  19  20
ENDBRANCH  18  19
ENDBRANCH  10  18
TORSDOF 9
ENDMDL
MODEL 3
REMARK VINA RESULT:      -5.6      1.621      2.383
REMARK  Name = 
REMARK  9 active torsions:
REMARK  status: ('A' for Active; 'I' for Inactive)
REMARK    1  A    between atoms: C_3  and  C_4
REMARK    2  A    between atoms: C_4  and  C_5
REMARK    3  A    between atoms: C_5  and  C_6
REMARK    4  A    between atoms: C_6  and  C_7
REMARK    5  A    between atoms: C_13  and  N_14
REMARK    6  A    between atoms: N_14  and  C_15
REMARK    7  A    between atoms: N_14  and  C_18
REMARK    8  A    between atoms: C_15  and  C_16
REMARK    9  A    between atoms: C_18  and  C_19
REMARK                            x       y       z     vdW  Elec       q    Type
REMARK                         _______ _______ _______ _____ _____    ______ ____
ROOT
ATOM      1  C   UNL     1     -10.449  15.358  66.161  0.00  0.00    +0.132 C 
ATOM      2  N   UNL     1     -10.651  16.333  67.223  0.00  0.00    -0.313 N 
ATOM      3  C   UNL     1     -10.367  17.648  67.194  0.00  0.00    +0.079 A 
ATOM      4  C   UNL     1     -10.148  18.103  68.489  0.00  0.00    +0.100 A 
ATOM      5  C   UNL     1      -9.330  19.202  68.725  0.00  0.00    +0.035 A 
ATOM      6  C   UNL     1      -8.580  19.731  67.682  0.00  0.00    +0.050 A 
ATOM      7  C   UNL     1      -9.113  19.559  66.412  0.00  0.00    +0.016 A 
ATOM      8  N   UNL     1     -10.729  17.165  69.277  0.00  0.00    -0.231 NA
ATOM      9  C   UNL     1      -9.998  18.514  66.176  0.00  0.00    +0.020 A 
ATOM     10  C   UNL     1     -10.992  16.079  68.507  0.00  0.00    +0.120 A 
ENDROOT
BRANCH   6  11
ATOM     11  N   UNL     1      -7.224  20.145  67.891  0.00  0.00    -0.305 N 
BRANCH  11  12
ATOM     12  C   UNL     1      -6.527  21.014  66.952  0.00  0.00    +0.108 C 
BRANCH  12  13
ATOM     13  C   UNL     1      -5.601  20.263  66.043  0.00  0.00    +0.116 C 
ATOM     14 CL   UNL     1      -6.210  20.413  64.369  0.00  0.00    -0.112 Cl
ENDBRANCH  12  13
ENDBRANCH  11  12
BRANCH  11  15
ATOM     15  C   UNL     1      -6.530  19.462  68.979  0.00  0.00    +0.108 C 
BRANCH  15  16
ATOM     16  C   UNL     1      -5.775  20.545  69.738  0.00  0.00    +0.116 C 
ATOM     17 CL   UNL     1      -5.793  20.089  71.467  0.00  0.00    -0.112 Cl
ENDBRANCH  15  16
ENDBRANCH  11  15
ENDBRANCH   6  11
BRANCH  10  18
ATOM     18  C   UNL     1     -11.573  14.801  68.967  0.00  0.00    +0.065 C 
BRANCH  18  19
ATOM     19  C   UNL     1     -11.669  14.831  70.467  0.00  0.00    +0.020 C 
BRANCH  19  20
ATOM     20  C   UNL     1     -12.545  13.708  70.980  0.00  0.00    +0.115 C 
BRANCH  20  21
ATOM     21  C   UNL     1     -13.624  14.291  71.836  0.00  0.00    +0.365 C 
ATOM     22  O   UNL     1     -14.001  15.590  71.540  0.00  0.00    -0.246 OA
ATOM     23  O   UNL     1     -14.321  13.525  72.549  0.00  0.00    -0.246 OA
ENDBRANCH  20  21
ENDBRANCH  19  20
ENDBRANCH  18  19
ENDBRANCH  10  18
TORSDOF 9
ENDMDL
MODEL 4
REMARK VINA RESULT:      -5.6      4.380      5.819
REMARK  Name = 
REMARK  9 active torsions:
REMARK  status: ('A' for Active; 'I' for Inactive)
REMARK    1  A    between atoms: C_3  and  C_4
REMARK    2  A    between atoms: C_4  and  C_5
REMARK    3  A    between atoms: C_5  and  C_6
REMARK    4  A    between atoms: C_6  and  C_7
REMARK    5  A    between atoms: C_13  and  N_14
REMARK    6  A    between atoms: N_14  and  C_15
REMARK    7  A    between atoms: N_14  and  C_18
REMARK    8  A    between atoms: C_15  and  C_16
REMARK    9  A    between atoms: C_18  and  C_19
REMARK                            x       y       z     vdW  Elec       q    Type
REMARK                         _______ _______ _______ _____ _____    ______ ____
ROOT
ATOM      1  C   UNL     1     -10.938  10.247  67.596  0.00  0.00    +0.132 C 
ATOM      2  N   UNL     1     -11.537  11.408  68.239  0.00  0.00    -0.313 N 
ATOM      3  C   UNL     1     -11.840  12.593  67.676  0.00  0.00    +0.079 A 
ATOM      4  C   UNL     1     -11.838  13.582  68.651  0.00  0.00    +0.100 A 
ATOM      5  C   UNL     1     -11.566  14.905  68.317  0.00  0.00    +0.035 A 
ATOM      6  C   UNL     1     -11.112  15.207  67.039  0.00  0.00    +0.050 A 
ATOM      7  C   UNL     1     -11.519  14.338  66.037  0.00  0.00    +0.016 A 
ATOM      8  N   UNL     1     -11.964  12.904  69.818  0.00  0.00    -0.231 NA
ATOM      9  C   UNL     1     -11.874  13.034  66.362  0.00  0.00    +0.020 A 
ATOM     10  C   UNL     1     -11.738  11.591  69.564  0.00  0.00    +0.120 A 
ENDROOT
BRANCH   6  11
ATOM     11  N   UNL     1     -10.062  16.162  66.842  0.00  0.00    -0.305 N 
BRANCH  11  12
ATOM     12  C   UNL     1      -8.761  15.781  66.305  0.00  0.00    +0.108 C 
BRANCH  12  13
ATOM     13  C   UNL     1      -7.895  15.092  67.316  0.00  0.00    +0.116 C 
ATOM     14 CL   UNL     1      -8.155  13.329  67.172  0.00  0.00    -0.112 Cl
ENDBRANCH  12  13
ENDBRANCH  11  12
BRANCH  11  15
ATOM     15  C   UNL     1     -10.309  17.480  67.418  0.00  0.00    +0.108 C 
BRANCH  15  16
ATOM     16  C   UNL     1      -9.458  18.454  66.614  0.00  0.00    +0.116 C 
ATOM     17 CL   UNL     1     -10.569  19.657  65.895  0.00  0.00    -0.112 Cl
ENDBRANCH  15  16
ENDBRANCH  11  15
ENDBRANCH   6  11
BRANCH  10  18
ATOM     18  C   UNL     1     -11.720  10.498  70.558  0.00  0.00    +0.065 C 
BRANCH  18  19
ATOM     19  C   UNL     1     -13.117  10.301  71.077  0.00  0.00    +0.020 C 
BRANCH  19  20
ATOM     20  C   UNL     1     -13.141   9.295  72.208  0.00  0.00    +0.115 C 
BRANCH  20  21
ATOM     21  C   UNL     1     -14.111   8.210  71.866  0.00  0.00    +0.365 C 
ATOM     22  O   UNL     1     -13.573   7.070  71.292  0.00  0.00    -0.246 OA
ATOM     23  O   UNL     1     -15.266   8.242  72.361  0.00  0.00    -0.246 OA
ENDBRANCH  20  21
ENDBRANCH  19  20
ENDBRANCH  18  19
ENDBRANCH  10  18
TORSDOF 9
ENDMDL
MODEL 5
REMARK VINA RESULT:      -5.6      5.635      9.047
REMARK  Name = 
REMARK  9 active torsions:
REMARK  status: ('A' for Active; 'I' for Inactive)
REMARK    1  A    between atoms: C_3  and  C_4
REMARK    2  A    between atoms: C_4  and  C_5
REMARK    3  A    between atoms: C_5  and  C_6
REMARK    4  A    between atoms: C_6  and  C_7
REMARK    5  A    between atoms: C_13  and  N_14
REMARK    6  A    between atoms: N_14  and  C_15
REMARK    7  A    between atoms: N_14  and  C_18
REMARK    8  A    between atoms: C_15  and  C_16
REMARK    9  A    between atoms: C_18  and  C_19
REMARK                            x       y       z     vdW  Elec       q    Type
REMARK                         _______ _______ _______ _____ _____    ______ ____
ROOT
ATOM      1  C   UNL     1     -11.768  15.315  72.441  0.00  0.00    +0.132 C 
ATOM      2  N   UNL     1     -11.944  14.569  71.203  0.00  0.00    -0.313 N 
ATOM      3  C   UNL     1     -12.532  13.368  71.047  0.00  0.00    +0.079 A 
ATOM      4  C   UNL     1     -12.019  12.746  69.915  0.00  0.00    +0.100 A 
ATOM      5  C   UNL     1     -12.004  11.359  69.814  0.00  0.00    +0.035 A 
ATOM      6  C   UNL     1     -12.329  10.591  70.925  0.00  0.00    +0.050 A 
ATOM      7  C   UNL     1     -13.199  11.183  71.831  0.00  0.00    +0.016 A 
ATOM      8  N   UNL     1     -11.472  13.756  69.195  0.00  0.00    -0.231 NA
ATOM      9  C   UNL     1     -13.288  12.568  71.889  0.00  0.00    +0.020 A 
ATOM     10  C   UNL     1     -11.392  14.846  70.000  0.00  0.00    +0.120 A 
ENDROOT
BRANCH   6  11
ATOM     11  N   UNL     1     -11.579   9.412  71.245  0.00  0.00    -0.305 N 
BRANCH  11  12
ATOM     12  C   UNL     1     -12.057   8.430  72.210  0.00  0.00    +0.108 C 
BRANCH  12  13
ATOM     13  C   UNL     1     -12.744   7.266  71.561  0.00  0.00    +0.116 C 
ATOM     14 CL   UNL     1     -14.492   7.626  71.461  0.00  0.00    -0.112 Cl
ENDBRANCH  12  13
ENDBRANCH  11  12
BRANCH  11  15
ATOM     15  C   UNL     1     -10.221   9.380  70.712  0.00  0.00    +0.108 C 
BRANCH  15  16
ATOM     16  C   UNL     1      -9.374   8.680  71.767  0.00  0.00    +0.116 C 
ATOM     17 CL   UNL     1      -8.807   7.141  71.054  0.00  0.00    -0.112 Cl
ENDBRANCH  15  16
ENDBRANCH  11  15
ENDBRANCH   6  11
BRANCH  10  18
ATOM     18  C   UNL     1     -10.809  16.156  69.644  0.00  0.00    +0.065 C 
BRANCH  18  19
ATOM     19  C   UNL     1     -10.634  16.212  68.152  0.00  0.00    +0.020 C 
BRANCH  19  20
ATOM     20  C   UNL     1      -9.660  17.302  67.758  0.00  0.00    +0.115 C 
BRANCH  20  21
ATOM     21  C   UNL     1     -10.382  18.314  66.927  0.00  0.00    +0.365 C 
ATOM     22  O   UNL     1     -10.523  18.012  65.583  0.00  0.00    -0.246 OA
ATOM     23  O   UNL     1     -11.063  19.203  67.499  0.00  0.00    -0.246 OA
ENDBRANCH  20  21
ENDBRANCH  19  20
ENDBRANCH  18  19
ENDBRANCH  10  18
TORSDOF 9
ENDMDL
MODEL 6
REMARK VINA RESULT:      -5.6      4.428      5.647
REMARK  Name = 
REMARK  9 active torsions:
REMARK  status: ('A' for Active; 'I' for Inactive)
REMARK    1  A    between atoms: C_3  and  C_4
REMARK    2  A    between atoms: C_4  and  C_5
REMARK    3  A    between atoms: C_5  and  C_6
REMARK    4  A    between atoms: C_6  and  C_7
REMARK    5  A    between atoms: C_13  and  N_14
REMARK    6  A    between atoms: N_14  and  C_15
REMARK    7  A    between atoms: N_14  and  C_18
REMARK    8  A    between atoms: C_15  and  C_16
REMARK    9  A    between atoms: C_18  and  C_19
REMARK                            x       y       z     vdW  Elec       q    Type
REMARK                         _______ _______ _______ _____ _____    ______ ____
ROOT
ATOM      1  C   UNL     1     -10.851  10.134  67.620  0.00  0.00    +0.132 C 
ATOM      2  N   UNL     1     -11.488  11.269  68.273  0.00  0.00    -0.313 N 
ATOM      3  C   UNL     1     -11.817  12.453  67.723  0.00  0.00    +0.079 A 
ATOM      4  C   UNL     1     -11.852  13.428  68.713  0.00  0.00    +0.100 A 
ATOM      5  C   UNL     1     -11.612  14.762  68.402  0.00  0.00    +0.035 A 
ATOM      6  C   UNL     1     -11.151  15.095  67.134  0.00  0.00    +0.050 A 
ATOM      7  C   UNL     1     -11.523  14.231  66.114  0.00  0.00    +0.016 A 
ATOM      8  N   UNL     1     -11.974  12.730  69.868  0.00  0.00    -0.231 NA
ATOM      9  C   UNL     1     -11.846  12.913  66.416  0.00  0.00    +0.020 A 
ATOM     10  C   UNL     1     -11.710  11.427  69.598  0.00  0.00    +0.120 A 
ENDROOT
BRANCH   6  11
ATOM     11  N   UNL     1     -10.124  16.080  66.964  0.00  0.00    -0.305 N 
BRANCH  11  12
ATOM     12  C   UNL     1     -10.332  17.481  67.306  0.00  0.00    +0.108 C 
BRANCH  12  13
ATOM     13  C   UNL     1      -9.495  18.411  66.481  0.00  0.00    +0.116 C 
ATOM     14 CL   UNL     1     -10.525  19.772  65.947  0.00  0.00    -0.112 Cl
ENDBRANCH  12  13
ENDBRANCH  11  12
BRANCH  11  15
ATOM     15  C   UNL     1      -8.950  15.627  66.225  0.00  0.00    +0.108 C 
BRANCH  15  16
ATOM     16  C   UNL     1      -8.001  15.044  67.263  0.00  0.00    +0.116 C 
ATOM     17 CL   UNL     1      -8.151  13.264  67.174  0.00  0.00    -0.112 Cl
ENDBRANCH  15  16
ENDBRANCH  11  15
ENDBRANCH   6  11
BRANCH  10  18
ATOM     18  C   UNL     1     -11.675  10.320  70.576  0.00  0.00    +0.065 C 
BRANCH  18  19
ATOM     19  C   UNL     1     -12.970  10.315  71.339  0.00  0.00    +0.020 C 
BRANCH  19  20
ATOM     20  C   UNL     1     -13.024   9.157  72.313  0.00  0.00    +0.115 C 
BRANCH  20  21
ATOM     21  C   UNL     1     -14.080   8.199  71.863  0.00  0.00    +0.365 C 
ATOM     22  O   UNL     1     -13.641   7.104  71.138  0.00  0.00    -0.246 OA
ATOM     23  O   UNL     1     -15.221   8.253  72.388  0.00  0.00    -0.246 OA
ENDBRANCH  20  21
ENDBRANCH  19  20
ENDBRANCH  18  19
ENDBRANCH  10  18
TORSDOF 9
ENDMDL
MODEL 7
REMARK VINA RESULT:      -5.5      4.119      7.160
REMARK  Name = 
REMARK  9 active torsions:
REMARK  status: ('A' for Active; 'I' for Inactive)
REMARK    1  A    between atoms: C_3  and  C_4
REMARK    2  A    between atoms: C_4  and  C_5
REMARK    3  A    between atoms: C_5  and  C_6
REMARK    4  A    between atoms: C_6  and  C_7
REMARK    5  A    between atoms: C_13  and  N_14
REMARK    6  A    between atoms: N_14  and  C_15
REMARK    7  A    between atoms: N_14  and  C_18
REMARK    8  A    between atoms: C_15  and  C_16
REMARK    9  A    between atoms: C_18  and  C_19
REMARK                            x       y       z     vdW  Elec       q    Type
REMARK                         _______ _______ _______ _____ _____    ______ ____
ROOT
ATOM      1  C   UNL     1      -9.417  20.223  67.748  0.00  0.00    +0.132 C 
ATOM      2  N   UNL     1      -8.687  18.988  68.001  0.00  0.00    -0.313 N 
ATOM      3  C   UNL     1      -9.112  17.728  67.792  0.00  0.00    +0.079 A 
ATOM      4  C   UNL     1      -8.434  16.865  68.645  0.00  0.00    +0.100 A 
ATOM      5  C   UNL     1      -9.015  15.667  69.048  0.00  0.00    +0.035 A 
ATOM      6  C   UNL     1     -10.349  15.420  68.748  0.00  0.00    +0.050 A 
ATOM      7  C   UNL     1     -10.832  16.043  67.606  0.00  0.00    +0.016 A 
ATOM      8  N   UNL     1      -7.333  17.560  69.021  0.00  0.00    -0.231 NA
ATOM      9  C   UNL     1     -10.214  17.197  67.140  0.00  0.00    +0.020 A 
ATOM     10  C   UNL     1      -7.515  18.856  68.663  0.00  0.00    +0.120 A 
ENDROOT
BRANCH   6  11
ATOM     11  N   UNL     1     -11.218  14.820  69.717  0.00  0.00    -0.305 N 
BRANCH  11  12
ATOM     12  C   UNL     1     -12.094  13.704  69.383  0.00  0.00    +0.108 C 
BRANCH  12  13
ATOM     13  C   UNL     1     -11.352  12.535  68.809  0.00  0.00    +0.116 C 
ATOM     14 CL   UNL     1     -11.719  12.436  67.063  0.00  0.00    -0.112 Cl
ENDBRANCH  12  13
ENDBRANCH  11  12
BRANCH  11  15
ATOM     15  C   UNL     1     -11.325  15.540  70.982  0.00  0.00    +0.108 C 
BRANCH  15  16
ATOM     16  C   UNL     1     -12.815  15.634  71.285  0.00  0.00    +0.116 C 
ATOM     17 CL   UNL     1     -12.978  16.008  73.026  0.00  0.00    -0.112 Cl
ENDBRANCH  15  16
ENDBRANCH  11  15
ENDBRANCH   6  11
BRANCH  10  18
ATOM     18  C   UNL     1      -6.589  19.976  68.927  0.00  0.00    +0.065 C 
BRANCH  18  19
ATOM     19  C   UNL     1      -5.515  19.497  69.864  0.00  0.00    +0.020 C 
BRANCH  19  20
ATOM     20  C   UNL     1      -5.740  20.023  71.266  0.00  0.00    +0.115 C 
BRANCH  20  21
ATOM     21  C   UNL     1      -4.490  20.700  71.731  0.00  0.00    +0.365 C 
ATOM     22  O   UNL     1      -4.440  22.073  71.560  0.00  0.00    -0.246 OA
ATOM     23  O   UNL     1      -3.706  20.080  72.495  0.00  0.00    -0.246 OA
ENDBRANCH  20  21
ENDBRANCH  19  20
ENDBRANCH  18  19
ENDBRANCH  10  18
TORSDOF 9
ENDMDL
MODEL 8
REMARK VINA RESULT:      -5.5      6.906      9.864
REMARK  Name = 
REMARK  9 active torsions:
REMARK  status: ('A' for Active; 'I' for Inactive)
REMARK    1  A    between atoms: C_3  and  C_4
REMARK    2  A    between atoms: C_4  and  C_5
REMARK    3  A    between atoms: C_5  and  C_6
REMARK    4  A    between atoms: C_6  and  C_7
REMARK    5  A    between atoms: C_13  and  N_14
REMARK    6  A    between atoms: N_14  and  C_15
REMARK    7  A    between atoms: N_14  and  C_18
REMARK    8  A    between atoms: C_15  and  C_16
REMARK    9  A    between atoms: C_18  and  C_19
REMARK                            x       y       z     vdW  Elec       q    Type
REMARK                         _______ _______ _______ _____ _____    ______ ____
ROOT
ATOM      1  C   UNL     1      -9.946  10.328  65.513  0.00  0.00    +0.132 C 
ATOM      2  N   UNL     1     -10.542  11.066  66.618  0.00  0.00    -0.313 N 
ATOM      3  C   UNL     1     -10.299  10.912  67.933  0.00  0.00    +0.079 A 
ATOM      4  C   UNL     1     -11.405  11.335  68.661  0.00  0.00    +0.100 A 
ATOM      5  C   UNL     1     -11.670  10.805  69.919  0.00  0.00    +0.035 A 
ATOM      6  C   UNL     1     -10.935   9.716  70.370  0.00  0.00    +0.050 A 
ATOM      7  C   UNL     1      -9.649   9.608  69.860  0.00  0.00    +0.016 A 
ATOM      8  N   UNL     1     -12.091  12.125  67.799  0.00  0.00    -0.231 NA
ATOM      9  C   UNL     1      -9.342  10.201  68.641  0.00  0.00    +0.020 A 
ATOM     10  C   UNL     1     -11.587  11.922  66.556  0.00  0.00    +0.120 A 
ENDROOT
BRANCH   6  11
ATOM     11  N   UNL     1     -11.575   8.637  71.063  0.00  0.00    -0.305 N 
BRANCH  11  12
ATOM     12  C   UNL     1     -12.441   8.863  72.213  0.00  0.00    +0.108 C 
BRANCH  12  13
ATOM     13  C   UNL     1     -13.892   8.930  71.842  0.00  0.00    +0.116 C 
ATOM     14 CL   UNL     1     -14.500   7.261  71.642  0.00  0.00    -0.112 Cl
ENDBRANCH  12  13
ENDBRANCH  11  12
BRANCH  11  15
ATOM     15  C   UNL     1     -11.124   7.303  70.681  0.00  0.00    +0.108 C 
BRANCH  15  16
ATOM     16  C   UNL     1     -10.436   6.725  71.910  0.00  0.00    +0.116 C 
ATOM     17 CL   UNL     1     -11.517   5.469  72.580  0.00  0.00    -0.112 Cl
ENDBRANCH  15  16
ENDBRANCH  11  15
ENDBRANCH   6  11
BRANCH  10  18
ATOM     18  C   UNL     1     -12.073  12.537  65.303  0.00  0.00    +0.065 C 
BRANCH  18  19
ATOM     19  C   UNL     1     -12.067  14.031  65.471  0.00  0.00    +0.020 C 
BRANCH  19  20
ATOM     20  C   UNL     1     -10.765  14.629  64.982  0.00  0.00    +0.115 C 
BRANCH  20  21
ATOM     21  C   UNL     1     -10.936  16.108  64.844  0.00  0.00    +0.365 C 
ATOM     22  O   UNL     1     -10.063  16.894  65.577  0.00  0.00    -0.246 OA
ATOM     23  O   UNL     1     -11.622  16.559  63.891  0.00  0.00    -0.246 OA
ENDBRANCH  20  21
ENDBRANCH  19  20
ENDBRANCH  18  19
ENDBRANCH  10  18
TORSDOF 9
ENDMDL
MODEL 9
REMARK VINA RESULT:      -5.4      1.712      2.023
REMARK  Name = 
REMARK  9 active torsions:
REMARK  status: ('A' for Active; 'I' for Inactive)
REMARK    1  A    between atoms: C_3  and  C_4
REMARK    2  A    between atoms: C_4  and  C_5
REMARK    3  A    between atoms: C_5  and  C_6
REMARK    4  A    between atoms: C_6  and  C_7
REMARK    5  A    between atoms: C_13  and  N_14
REMARK    6  A    between atoms: N_14  and  C_15
REMARK    7  A    between atoms: N_14  and  C_18
REMARK    8  A    between atoms: C_15  and  C_16
REMARK    9  A    between atoms: C_18  and  C_19
REMARK                            x       y       z     vdW  Elec       q    Type
REMARK                         _______ _______ _______ _____ _____    ______ ____
ROOT
ATOM      1  C   UNL     1      -9.511  13.896  68.141  0.00  0.00    +0.132 C 
ATOM      2  N   UNL     1     -10.135  15.209  68.068  0.00  0.00    -0.313 N 
ATOM      3  C   UNL     1      -9.719  16.277  67.361  0.00  0.00    +0.079 A 
ATOM      4  C   UNL     1     -10.187  17.440  67.962  0.00  0.00    +0.100 A 
ATOM      5  C   UNL     1      -9.499  18.639  67.812  0.00  0.00    +0.035 A 
ATOM      6  C   UNL     1      -8.243  18.637  67.218  0.00  0.00    +0.050 A 
ATOM      7  C   UNL     1      -8.015  17.621  66.301  0.00  0.00    +0.016 A 
ATOM      8  N   UNL     1     -11.214  17.025  68.742  0.00  0.00    -0.231 NA
ATOM      9  C   UNL     1      -8.751  16.445  66.383  0.00  0.00    +0.020 A 
ATOM     10  C   UNL     1     -11.149  15.673  68.835  0.00  0.00    +0.120 A 
ENDROOT
BRANCH   6  11
ATOM     11  N   UNL     1      -7.181  19.440  67.749  0.00  0.00    -0.305 N 
BRANCH  11  12
ATOM     12  C   UNL     1      -6.376  19.005  68.883  0.00  0.00    +0.108 C 
BRANCH  12  13
ATOM     13  C   UNL     1      -6.386  19.989  70.013  0.00  0.00    +0.116 C 
ATOM     14 CL   UNL     1      -4.845  20.894  69.987  0.00  0.00    -0.112 Cl
ENDBRANCH  12  13
ENDBRANCH  11  12
BRANCH  11  15
ATOM     15  C   UNL     1      -7.112  20.800  67.222  0.00  0.00    +0.108 C 
BRANCH  15  16
ATOM     16  C   UNL     1      -5.891  20.834  66.313  0.00  0.00    +0.116 C 
ATOM     17 CL   UNL     1      -6.462  20.516  64.648  0.00  0.00    -0.112 Cl
ENDBRANCH  15  16
ENDBRANCH  11  15
ENDBRANCH   6  11
BRANCH  10  18
ATOM     18  C   UNL     1     -12.040  14.806  69.631  0.00  0.00    +0.065 C 
BRANCH  18  19
ATOM     19  C   UNL     1     -12.557  15.597  70.801  0.00  0.00    +0.020 C 
BRANCH  19  20
ATOM     20  C   UNL     1     -11.767  15.293  72.056  0.00  0.00    +0.115 C 
BRANCH  20  21
ATOM     21  C   UNL     1     -12.722  14.966  73.159  0.00  0.00    +0.365 C 
ATOM     22  O   UNL     1     -13.681  14.009  72.871  0.00  0.00    -0.246 OA
ATOM     23  O   UNL     1     -12.448  15.322  74.333  0.00  0.00    -0.246 OA
ENDBRANCH  20  21
ENDBRANCH  19  20
ENDBRANCH  18  19
ENDBRANCH  10  18
TORSDOF 9
ENDMDL
