MODEL 1
REMARK VINA RESULT:      -5.4      0.000      0.000
REMARK  Name = 
REMARK  13 active torsions:
REMARK  status: ('A' for Active; 'I' for Inactive)
REMARK    1  A    between atoms: C_2  and  C_3
REMARK    2  A    between atoms: C_4  and  C_5
REMARK    3  A    between atoms: C_5  and  C_6
REMARK    4  A    between atoms: C_7  and  C_8
REMARK    5  A    between atoms: C_8  and  C_9
REMARK    6  A    between atoms: C_10  and  C_11
REMARK    7  A    between atoms: C_11  and  C_12
REMARK    8  A    between atoms: C_13  and  C_14
REMARK    9  A    between atoms: C_14  and  C_15
REMARK   10  A    between atoms: C_16  and  C_17
REMARK   11  A    between atoms: C_17  and  C_18
REMARK   12  A    between atoms: C_18  and  C_19
REMARK   13  A    between atoms: C_19  and  C_20
REMARK                            x       y       z     vdW  Elec       q    Type
REMARK                         _______ _______ _______ _____ _____    ______ ____
ROOT
ATOM      1  C   UNL     1     -13.863  14.810  71.654  0.00  0.00    +0.051 C 
ENDROOT
BRANCH   1   2
ATOM      2  C   UNL     1     -13.781  13.516  72.359  0.00  0.00    -0.026 C 
ATOM      3  C   UNL     1     -12.976  12.590  71.848  0.00  0.00    -0.026 C 
BRANCH   3   4
ATOM      4  C   UNL     1     -12.470  12.588  70.465  0.00  0.00    +0.051 C 
BRANCH   4   5
ATOM      5  C   UNL     1     -11.784  11.346  70.075  0.00  0.00    -0.026 C 
ATOM      6  C   UNL     1     -11.339  11.054  68.872  0.00  0.00    -0.030 C 
BRANCH   6   7
ATOM      7  C   UNL     1     -11.860  11.875  67.740  0.00  0.00    +0.026 C 
BRANCH   7   8
ATOM      8  C   UNL     1     -11.077  11.614  66.475  0.00  0.00    +0.016 C 
BRANCH   8   9
ATOM      9  C   UNL     1     -11.149  12.760  65.504  0.00  0.00    +0.114 C 
BRANCH   9  10
ATOM     10  C   UNL     1     -12.559  12.962  65.060  0.00  0.00    +0.365 C 
ATOM     11  O   UNL     1     -13.009  12.208  63.976  0.00  0.00    -0.246 OA
ATOM     12  O   UNL     1     -13.112  14.054  65.375  0.00  0.00    -0.246 OA
ENDBRANCH   9  10
ENDBRANCH   8   9
ENDBRANCH   7   8
ENDBRANCH   6   7
ENDBRANCH   4   5
ENDBRANCH   3   4
ENDBRANCH   1   2
BRANCH   1  14
ATOM     13  C   UNL     1     -11.759  15.922  71.860  0.00  0.00    -0.026 C 
ATOM     14  C   UNL     1     -13.005  15.831  72.342  0.00  0.00    -0.026 C 
BRANCH  13  15
ATOM     15  C   UNL     1     -11.679  16.044  70.366  0.00  0.00    +0.051 C 
BRANCH  15  17
ATOM     16  C   UNL     1     -10.241  15.041  68.729  0.00  0.00    -0.026 C 
ATOM     17  C   UNL     1     -10.337  15.489  69.989  0.00  0.00    -0.026 C 
BRANCH  16  18
ATOM     18  C   UNL     1     -10.935  15.885  67.704  0.00  0.00    +0.051 C 
BRANCH  18  20
ATOM     19  C   UNL     1     -10.150  17.746  66.409  0.00  0.00    -0.030 C 
ATOM     20  C   UNL     1      -9.973  16.458  66.720  0.00  0.00    -0.026 C 
BRANCH  19  22
ATOM     21  C   UNL     1      -9.401  19.122  68.294  0.00  0.00    +0.005 C 
ATOM     22  C   UNL     1     -10.592  18.675  67.493  0.00  0.00    +0.026 C 
ENDBRANCH  19  22
ENDBRANCH  18  20
ENDBRANCH  16  18
ENDBRANCH  15  17
ENDBRANCH  13  15
ENDBRANCH   1  14
TORSDOF 13
ENDMDL
MODEL 2
REMARK VINA RESULT:      -5.3      2.103      5.357
REMARK  Name = 
REMARK  13 active torsions:
REMARK  status: ('A' for Active; 'I' for Inactive)
REMARK    1  A    between atoms: C_2  and  C_3
REMARK    2  A    between atoms: C_4  and  C_5
REMARK    3  A    between atoms: C_5  and  C_6
REMARK    4  A    between atoms: C_7  and  C_8
REMARK    5  A    between atoms: C_8  and  C_9
REMARK    6  A    between atoms: C_10  and  C_11
REMARK    7  A    between atoms: C_11  and  C_12
REMARK    8  A    between atoms: C_13  and  C_14
REMARK    9  A    between atoms: C_14  and  C_15
REMARK   10  A    between atoms: C_16  and  C_17
REMARK   11  A    between atoms: C_17  and  C_18
REMARK   12  A    between atoms: C_18  and  C_19
REMARK   13  A    between atoms: C_19  and  C_20
REMARK                            x       y       z     vdW  Elec       q    Type
REMARK                         _______ _______ _______ _____ _____    ______ ____
ROOT
ATOM      1  C   UNL     1     -10.031  10.318  67.626  0.00  0.00    +0.051 C 
ENDROOT
BRANCH   1   2
ATOM      2  C   UNL     1     -10.228   9.294  66.580  0.00  0.00    -0.026 C 
ATOM      3  C   UNL     1      -9.937   9.633  65.328  0.00  0.00    -0.026 C 
BRANCH   3   4
ATOM      4  C   UNL     1      -9.812  11.017  64.841  0.00  0.00    +0.051 C 
BRANCH   4   5
ATOM      5  C   UNL     1     -10.551  11.289  63.598  0.00  0.00    -0.026 C 
ATOM      6  C   UNL     1     -11.558  12.126  63.464  0.00  0.00    -0.030 C 
BRANCH   6   7
ATOM      7  C   UNL     1     -12.228  12.584  64.717  0.00  0.00    +0.026 C 
BRANCH   7   8
ATOM      8  C   UNL     1     -12.241  14.091  64.806  0.00  0.00    +0.016 C 
BRANCH   8   9
ATOM      9  C   UNL     1     -10.878  14.666  65.076  0.00  0.00    +0.114 C 
BRANCH   9  10
ATOM     10  C   UNL     1     -10.862  16.119  64.739  0.00  0.00    +0.365 C 
ATOM     11  O   UNL     1     -10.235  16.983  65.637  0.00  0.00    -0.246 OA
ATOM     12  O   UNL     1     -11.744  16.535  63.935  0.00  0.00    -0.246 OA
ENDBRANCH   9  10
ENDBRANCH   8   9
ENDBRANCH   7   8
ENDBRANCH   6   7
ENDBRANCH   4   5
ENDBRANCH   3   4
ENDBRANCH   1   2
BRANCH   1  14
ATOM     13  C   UNL     1     -11.418  11.538  69.140  0.00  0.00    -0.026 C 
ATOM     14  C   UNL     1     -11.217  10.355  68.544  0.00  0.00    -0.026 C 
BRANCH  13  15
ATOM     15  C   UNL     1     -11.399  12.714  68.208  0.00  0.00    +0.051 C 
BRANCH  15  17
ATOM     16  C   UNL     1     -10.503  14.896  68.645  0.00  0.00    -0.026 C 
ATOM     17  C   UNL     1     -10.264  13.577  68.673  0.00  0.00    -0.026 C 
BRANCH  16  18
ATOM     18  C   UNL     1     -11.880  15.297  69.081  0.00  0.00    +0.051 C 
BRANCH  18  20
ATOM     19  C   UNL     1     -12.649  15.492  71.345  0.00  0.00    -0.030 C 
ATOM     20  C   UNL     1     -11.858  16.000  70.395  0.00  0.00    -0.026 C 
BRANCH  19  22
ATOM     21  C   UNL     1     -13.897  13.651  72.374  0.00  0.00    +0.005 C 
ATOM     22  C   UNL     1     -12.798  14.006  71.413  0.00  0.00    +0.026 C 
ENDBRANCH  19  22
ENDBRANCH  18  20
ENDBRANCH  16  18
ENDBRANCH  15  17
ENDBRANCH  13  15
ENDBRANCH   1  14
TORSDOF 13
ENDMDL
MODEL 3
REMARK VINA RESULT:      -5.3      2.011      4.511
REMARK  Name = 
REMARK  13 active torsions:
REMARK  status: ('A' for Active; 'I' for Inactive)
REMARK    1  A    between atoms: C_2  and  C_3
REMARK    2  A    between atoms: C_4  and  C_5
REMARK    3  A    between atoms: C_5  and  C_6
REMARK    4  A    between atoms: C_7  and  C_8
REMARK    5  A    between atoms: C_8  and  C_9
REMARK    6  A    between atoms: C_10  and  C_11
REMARK    7  A    between atoms: C_11  and  C_12
REMARK    8  A    between atoms: C_13  and  C_14
REMARK    9  A    between atoms: C_14  and  C_15
REMARK   10  A    between atoms: C_16  and  C_17
REMARK   11  A    between atoms: C_17  and  C_18
REMARK   12  A    between atoms: C_18  and  C_19
REMARK   13  A    between atoms: C_19  and  C_20
REMARK                            x       y       z     vdW  Elec       q    Type
REMARK                         _______ _______ _______ _____ _____    ______ ____
ROOT
ATOM      1  C   UNL     1     -11.346  10.691  69.923  0.00  0.00    +0.051 C 
ENDROOT
BRANCH   1   2
ATOM      2  C   UNL     1     -10.823   9.540  69.161  0.00  0.00    -0.026 C 
ATOM      3  C   UNL     1     -10.616   9.709  67.859  0.00  0.00    -0.026 C 
BRANCH   3   4
ATOM      4  C   UNL     1     -11.210  10.786  67.048  0.00  0.00    +0.051 C 
BRANCH   4   5
ATOM      5  C   UNL     1     -10.483  11.073  65.802  0.00  0.00    -0.026 C 
ATOM      6  C   UNL     1     -10.773  12.024  64.938  0.00  0.00    -0.030 C 
BRANCH   6   7
ATOM      7  C   UNL     1     -12.129  12.639  65.041  0.00  0.00    +0.026 C 
BRANCH   7   8
ATOM      8  C   UNL     1     -12.033  14.109  65.373  0.00  0.00    +0.016 C 
BRANCH   8   9
ATOM      9  C   UNL     1     -10.718  14.710  64.959  0.00  0.00    +0.114 C 
BRANCH   9  10
ATOM     10  C   UNL     1     -10.876  16.177  64.739  0.00  0.00    +0.365 C 
ATOM     11  O   UNL     1     -10.403  17.034  65.734  0.00  0.00    -0.246 OA
ATOM     12  O   UNL     1     -11.770  16.546  63.926  0.00  0.00    -0.246 OA
ENDBRANCH   9  10
ENDBRANCH   8   9
ENDBRANCH   7   8
ENDBRANCH   6   7
ENDBRANCH   4   5
ENDBRANCH   3   4
ENDBRANCH   1   2
BRANCH   1  14
ATOM     13  C   UNL     1     -12.976  11.123  71.615  0.00  0.00    -0.026 C 
ATOM     14  C   UNL     1     -12.636  10.324  70.595  0.00  0.00    -0.026 C 
BRANCH  13  15
ATOM     15  C   UNL     1     -12.908  12.590  71.303  0.00  0.00    +0.051 C 
BRANCH  15  17
ATOM     16  C   UNL     1     -13.413  14.571  72.558  0.00  0.00    -0.026 C 
ATOM     17  C   UNL     1     -13.683  13.269  72.394  0.00  0.00    -0.026 C 
BRANCH  16  18
ATOM     18  C   UNL     1     -13.220  15.341  71.286  0.00  0.00    +0.051 C 
BRANCH  18  20
ATOM     19  C   UNL     1     -11.007  15.715  70.440  0.00  0.00    -0.030 C 
ATOM     20  C   UNL     1     -11.947  16.116  71.301  0.00  0.00    -0.026 C 
BRANCH  19  22
ATOM     21  C   UNL     1     -10.620  14.036  68.695  0.00  0.00    +0.005 C 
ATOM     22  C   UNL     1     -11.447  15.225  69.098  0.00  0.00    +0.026 C 
ENDBRANCH  19  22
ENDBRANCH  18  20
ENDBRANCH  16  18
ENDBRANCH  15  17
ENDBRANCH  13  15
ENDBRANCH   1  14
TORSDOF 13
ENDMDL
MODEL 4
REMARK VINA RESULT:      -5.2      3.008      6.923
REMARK  Name = 
REMARK  13 active torsions:
REMARK  status: ('A' for Active; 'I' for Inactive)
REMARK    1  A    between atoms: C_2  and  C_3
REMARK    2  A    between atoms: C_4  and  C_5
REMARK    3  A    between atoms: C_5  and  C_6
REMARK    4  A    between atoms: C_7  and  C_8
REMARK    5  A    between atoms: C_8  and  C_9
REMARK    6  A    between atoms: C_10  and  C_11
REMARK    7  A    between atoms: C_11  and  C_12
REMARK    8  A    between atoms: C_13  and  C_14
REMARK    9  A    between atoms: C_14  and  C_15
REMARK   10  A    between atoms: C_16  and  C_17
REMARK   11  A    between atoms: C_17  and  C_18
REMARK   12  A    between atoms: C_18  and  C_19
REMARK   13  A    between atoms: C_19  and  C_20
REMARK                            x       y       z     vdW  Elec       q    Type
REMARK                         _______ _______ _______ _____ _____    ______ ____
ROOT
ATOM      1  C   UNL     1     -11.556  14.429  65.990  0.00  0.00    +0.051 C 
ENDROOT
BRANCH   1   2
ATOM      2  C   UNL     1     -10.164  14.898  65.835  0.00  0.00    -0.026 C 
ATOM      3  C   UNL     1      -9.703  15.757  66.739  0.00  0.00    -0.026 C 
BRANCH   3   4
ATOM      4  C   UNL     1     -10.547  16.567  67.634  0.00  0.00    +0.051 C 
BRANCH   4   5
ATOM      5  C   UNL     1     -10.168  16.490  69.054  0.00  0.00    -0.026 C 
ATOM      6  C   UNL     1     -10.744  15.739  69.968  0.00  0.00    -0.030 C 
BRANCH   6   7
ATOM      7  C   UNL     1     -12.089  15.181  69.637  0.00  0.00    +0.026 C 
BRANCH   7   8
ATOM      8  C   UNL     1     -12.930  15.019  70.881  0.00  0.00    +0.016 C 
BRANCH   8   9
ATOM      9  C   UNL     1     -12.150  15.270  72.142  0.00  0.00    +0.114 C 
BRANCH   9  10
ATOM     10  C   UNL     1     -13.013  15.957  73.146  0.00  0.00    +0.365 C 
ATOM     11  O   UNL     1     -12.591  15.946  74.476  0.00  0.00    -0.246 OA
ATOM     12  O   UNL     1     -14.229  16.123  72.845  0.00  0.00    -0.246 OA
ENDBRANCH   9  10
ENDBRANCH   8   9
ENDBRANCH   7   8
ENDBRANCH   6   7
ENDBRANCH   4   5
ENDBRANCH   3   4
ENDBRANCH   1   2
BRANCH   1  14
ATOM     13  C   UNL     1     -11.925  13.396  63.868  0.00  0.00    -0.026 C 
ATOM     14  C   UNL     1     -12.252  14.425  64.661  0.00  0.00    -0.026 C 
BRANCH  13  15
ATOM     15  C   UNL     1     -11.993  12.053  64.535  0.00  0.00    +0.051 C 
BRANCH  15  17
ATOM     16  C   UNL     1      -9.844  11.165  65.123  0.00  0.00    -0.026 C 
ATOM     17  C   UNL     1     -10.734  11.342  64.136  0.00  0.00    -0.026 C 
BRANCH  16  18
ATOM     18  C   UNL     1     -10.437  10.797  66.449  0.00  0.00    +0.051 C 
BRANCH  18  20
ATOM     19  C   UNL     1     -10.377  12.186  68.405  0.00  0.00    -0.030 C 
ATOM     20  C   UNL     1      -9.676  11.403  67.579  0.00  0.00    -0.026 C 
BRANCH  19  22
ATOM     21  C   UNL     1     -11.889  11.362  70.150  0.00  0.00    +0.005 C 
ATOM     22  C   UNL     1     -11.787  11.795  68.714  0.00  0.00    +0.026 C 
ENDBRANCH  19  22
ENDBRANCH  18  20
ENDBRANCH  16  18
ENDBRANCH  15  17
ENDBRANCH  13  15
ENDBRANCH   1  14
TORSDOF 13
ENDMDL
MODEL 5
REMARK VINA RESULT:      -5.2      1.103      2.617
REMARK  Name = 
REMARK  13 active torsions:
REMARK  status: ('A' for Active; 'I' for Inactive)
REMARK    1  A    between atoms: C_2  and  C_3
REMARK    2  A    between atoms: C_4  and  C_5
REMARK    3  A    between atoms: C_5  and  C_6
REMARK    4  A    between atoms: C_7  and  C_8
REMARK    5  A    between atoms: C_8  and  C_9
REMARK    6  A    between atoms: C_10  and  C_11
REMARK    7  A    between atoms: C_11  and  C_12
REMARK    8  A    between atoms: C_13  and  C_14
REMARK    9  A    between atoms: C_14  and  C_15
REMARK   10  A    between atoms: C_16  and  C_17
REMARK   11  A    between atoms: C_17  and  C_18
REMARK   12  A    between atoms: C_18  and  C_19
REMARK   13  A    between atoms: C_19  and  C_20
REMARK                            x       y       z     vdW  Elec       q    Type
REMARK                         _______ _______ _______ _____ _____    ______ ____
ROOT
ATOM      1  C   UNL     1     -12.562  11.933  71.041  0.00  0.00    +0.051 C 
ENDROOT
BRANCH   1   2
ATOM      2  C   UNL     1     -12.444  10.465  70.943  0.00  0.00    -0.026 C 
ATOM      3  C   UNL     1     -11.431   9.978  70.234  0.00  0.00    -0.026 C 
BRANCH   3   4
ATOM      4  C   UNL     1     -10.659  10.741  69.238  0.00  0.00    +0.051 C 
BRANCH   4   5
ATOM      5  C   UNL     1     -11.166  10.622  67.862  0.00  0.00    -0.026 C 
ATOM      6  C   UNL     1     -11.494  11.621  67.070  0.00  0.00    -0.030 C 
BRANCH   6   7
ATOM      7  C   UNL     1     -11.697  12.954  67.711  0.00  0.00    +0.026 C 
BRANCH   7   8
ATOM      8  C   UNL     1     -12.121  13.985  66.693  0.00  0.00    +0.016 C 
BRANCH   8   9
ATOM      9  C   UNL     1     -11.283  13.944  65.445  0.00  0.00    +0.114 C 
BRANCH   9  10
ATOM     10  C   UNL     1     -12.162  13.979  64.240  0.00  0.00    +0.365 C 
ATOM     11  O   UNL     1     -12.030  12.943  63.314  0.00  0.00    -0.246 OA
ATOM     12  O   UNL     1     -12.640  15.100  63.906  0.00  0.00    -0.246 OA
ENDBRANCH   9  10
ENDBRANCH   8   9
ENDBRANCH   7   8
ENDBRANCH   6   7
ENDBRANCH   4   5
ENDBRANCH   3   4
ENDBRANCH   1   2
BRANCH   1  14
ATOM     13  C   UNL     1     -13.521  13.591  72.468  0.00  0.00    -0.026 C 
ATOM     14  C   UNL     1     -13.556  12.303  72.102  0.00  0.00    -0.026 C 
BRANCH  13  15
ATOM     15  C   UNL     1     -13.542  14.562  71.323  0.00  0.00    +0.051 C 
BRANCH  15  17
ATOM     16  C   UNL     1     -11.711  16.110  71.417  0.00  0.00    -0.026 C 
ATOM     17  C   UNL     1     -12.945  15.829  71.861  0.00  0.00    -0.026 C 
BRANCH  16  18
ATOM     18  C   UNL     1     -11.481  15.817  69.966  0.00  0.00    +0.051 C 
BRANCH  18  20
ATOM     19  C   UNL     1      -9.552  16.029  68.554  0.00  0.00    -0.030 C 
ATOM     20  C   UNL     1     -10.047  15.518  69.686  0.00  0.00    -0.026 C 
BRANCH  19  22
ATOM     21  C   UNL     1     -10.277  17.394  66.652  0.00  0.00    +0.005 C 
ATOM     22  C   UNL     1     -10.021  17.384  68.133  0.00  0.00    +0.026 C 
ENDBRANCH  19  22
ENDBRANCH  18  20
ENDBRANCH  16  18
ENDBRANCH  15  17
ENDBRANCH  13  15
ENDBRANCH   1  14
TORSDOF 13
ENDMDL
MODEL 6
REMARK VINA RESULT:      -5.2      3.138      7.283
REMARK  Name = 
REMARK  13 active torsions:
REMARK  status: ('A' for Active; 'I' for Inactive)
REMARK    1  A    between atoms: C_2  and  C_3
REMARK    2  A    between atoms: C_4  and  C_5
REMARK    3  A    between atoms: C_5  and  C_6
REMARK    4  A    between atoms: C_7  and  C_8
REMARK    5  A    between atoms: C_8  and  C_9
REMARK    6  A    between atoms: C_10  and  C_11
REMARK    7  A    between atoms: C_11  and  C_12
REMARK    8  A    between atoms: C_13  and  C_14
REMARK    9  A    between atoms: C_14  and  C_15
REMARK   10  A    between atoms: C_16  and  C_17
REMARK   11  A    between atoms: C_17  and  C_18
REMARK   12  A    between atoms: C_18  and  C_19
REMARK   13  A    between atoms: C_19  and  C_20
REMARK                            x       y       z     vdW  Elec       q    Type
REMARK                         _______ _______ _______ _____ _____    ______ ____
ROOT
ATOM      1  C   UNL     1     -12.287  12.513  64.865  0.00  0.00    +0.051 C 
ENDROOT
BRANCH   1   2
ATOM      2  C   UNL     1     -12.142  13.957  64.592  0.00  0.00    -0.026 C 
ATOM      3  C   UNL     1     -11.712  14.728  65.586  0.00  0.00    -0.026 C 
BRANCH   3   4
ATOM      4  C   UNL     1     -11.740  14.354  67.011  0.00  0.00    +0.051 C 
BRANCH   4   5
ATOM      5  C   UNL     1     -10.583  14.834  67.783  0.00  0.00    -0.026 C 
ATOM      6  C   UNL     1     -10.606  15.253  69.030  0.00  0.00    -0.030 C 
BRANCH   6   7
ATOM      7  C   UNL     1     -11.941  15.594  69.605  0.00  0.00    +0.026 C 
BRANCH   7   8
ATOM      8  C   UNL     1     -11.819  16.000  71.054  0.00  0.00    +0.016 C 
BRANCH   8   9
ATOM      9  C   UNL     1     -12.123  14.870  71.998  0.00  0.00    +0.114 C 
BRANCH   9  10
ATOM     10  C   UNL     1     -13.085  15.325  73.044  0.00  0.00    +0.365 C 
ATOM     11  O   UNL     1     -14.238  15.986  72.617  0.00  0.00    -0.246 OA
ATOM     12  O   UNL     1     -12.635  15.481  74.215  0.00  0.00    -0.246 OA
ENDBRANCH   9  10
ENDBRANCH   8   9
ENDBRANCH   7   8
ENDBRANCH   6   7
ENDBRANCH   4   5
ENDBRANCH   3   4
ENDBRANCH   1   2
BRANCH   1  14
ATOM     13  C   UNL     1     -10.222  11.314  64.871  0.00  0.00    -0.026 C 
ATOM     14  C   UNL     1     -11.245  11.737  64.117  0.00  0.00    -0.026 C 
BRANCH  13  15
ATOM     15  C   UNL     1     -10.630  10.620  66.137  0.00  0.00    +0.051 C 
BRANCH  15  17
ATOM     16  C   UNL     1      -9.901  11.386  68.290  0.00  0.00    -0.026 C 
ATOM     17  C   UNL     1      -9.519  10.874  67.112  0.00  0.00    -0.026 C 
BRANCH  16  18
ATOM     18  C   UNL     1     -11.169  10.812  68.846  0.00  0.00    +0.051 C 
BRANCH  18  20
ATOM     19  C   UNL     1     -12.542  11.144  70.785  0.00  0.00    -0.030 C 
ATOM     20  C   UNL     1     -11.798  11.728  69.841  0.00  0.00    -0.026 C 
BRANCH  19  22
ATOM     21  C   UNL     1     -13.181   9.212  72.152  0.00  0.00    +0.005 C 
ATOM     22  C   UNL     1     -12.088   9.825  71.322  0.00  0.00    +0.026 C 
ENDBRANCH  19  22
ENDBRANCH  18  20
ENDBRANCH  16  18
ENDBRANCH  15  17
ENDBRANCH  13  15
ENDBRANCH   1  14
TORSDOF 13
ENDMDL
MODEL 7
REMARK VINA RESULT:      -5.1      2.907      5.387
REMARK  Name = 
REMARK  13 active torsions:
REMARK  status: ('A' for Active; 'I' for Inactive)
REMARK    1  A    between atoms: C_2  and  C_3
REMARK    2  A    between atoms: C_4  and  C_5
REMARK    3  A    between atoms: C_5  and  C_6
REMARK    4  A    between atoms: C_7  and  C_8
REMARK    5  A    between atoms: C_8  and  C_9
REMARK    6  A    between atoms: C_10  and  C_11
REMARK    7  A    between atoms: C_11  and  C_12
REMARK    8  A    between atoms: C_13  and  C_14
REMARK    9  A    between atoms: C_14  and  C_15
REMARK   10  A    between atoms: C_16  and  C_17
REMARK   11  A    between atoms: C_17  and  C_18
REMARK   12  A    between atoms: C_18  and  C_19
REMARK   13  A    between atoms: C_19  and  C_20
REMARK                            x       y       z     vdW  Elec       q    Type
REMARK                         _______ _______ _______ _____ _____    ______ ____
ROOT
ATOM      1  C   UNL     1     -12.035  14.135  65.842  0.00  0.00    +0.051 C 
ENDROOT
BRANCH   1   2
ATOM      2  C   UNL     1     -11.943  12.670  65.678  0.00  0.00    -0.026 C 
ATOM      3  C   UNL     1     -11.573  11.958  66.737  0.00  0.00    -0.026 C 
BRANCH   3   4
ATOM      4  C   UNL     1     -10.884  12.506  67.918  0.00  0.00    +0.051 C 
BRANCH   4   5
ATOM      5  C   UNL     1     -11.669  12.436  69.160  0.00  0.00    -0.026 C 
ATOM      6  C   UNL     1     -12.007  13.456  69.920  0.00  0.00    -0.030 C 
BRANCH   6   7
ATOM      7  C   UNL     1     -11.263  14.733  69.707  0.00  0.00    +0.026 C 
BRANCH   7   8
ATOM      8  C   UNL     1     -11.844  15.845  70.548  0.00  0.00    +0.016 C 
BRANCH   8   9
ATOM      9  C   UNL     1     -13.165  15.474  71.164  0.00  0.00    +0.114 C 
BRANCH   9  10
ATOM     10  C   UNL     1     -13.052  15.475  72.651  0.00  0.00    +0.365 C 
ATOM     11  O   UNL     1     -12.247  16.454  73.237  0.00  0.00    -0.246 OA
ATOM     12  O   UNL     1     -13.310  14.394  73.252  0.00  0.00    -0.246 OA
ENDBRANCH   9  10
ENDBRANCH   8   9
ENDBRANCH   7   8
ENDBRANCH   6   7
ENDBRANCH   4   5
ENDBRANCH   3   4
ENDBRANCH   1   2
BRANCH   1  14
ATOM     13  C   UNL     1     -10.631  16.004  65.350  0.00  0.00    -0.026 C 
ATOM     14  C   UNL     1     -11.080  14.821  64.910  0.00  0.00    -0.026 C 
BRANCH  13  15
ATOM     15  C   UNL     1     -10.118  15.988  66.760  0.00  0.00    +0.051 C 
BRANCH  15  17
ATOM     16  C   UNL     1      -7.892  16.839  67.031  0.00  0.00    -0.026 C 
ATOM     17  C   UNL     1      -8.635  15.793  66.645  0.00  0.00    -0.026 C 
BRANCH  16  18
ATOM     18  C   UNL     1      -8.387  17.549  68.254  0.00  0.00    +0.051 C 
BRANCH  18  20
ATOM     19  C   UNL     1      -8.570  19.871  67.680  0.00  0.00    -0.030 C 
ATOM     20  C   UNL     1      -7.864  18.943  68.332  0.00  0.00    -0.026 C 
BRANCH  19  22
ATOM     21  C   UNL     1     -10.554  19.662  66.255  0.00  0.00    +0.005 C 
ATOM     22  C   UNL     1     -10.059  19.743  67.672  0.00  0.00    +0.026 C 
ENDBRANCH  19  22
ENDBRANCH  18  20
ENDBRANCH  16  18
ENDBRANCH  15  17
ENDBRANCH  13  15
ENDBRANCH   1  14
TORSDOF 13
ENDMDL
MODEL 8
REMARK VINA RESULT:      -5.1      3.629      7.659
REMARK  Name = 
REMARK  13 active torsions:
REMARK  status: ('A' for Active; 'I' for Inactive)
REMARK    1  A    between atoms: C_2  and  C_3
REMARK    2  A    between atoms: C_4  and  C_5
REMARK    3  A    between atoms: C_5  and  C_6
REMARK    4  A    between atoms: C_7  and  C_8
REMARK    5  A    between atoms: C_8  and  C_9
REMARK    6  A    between atoms: C_10  and  C_11
REMARK    7  A    between atoms: C_11  and  C_12
REMARK    8  A    between atoms: C_13  and  C_14
REMARK    9  A    between atoms: C_14  and  C_15
REMARK   10  A    between atoms: C_16  and  C_17
REMARK   11  A    between atoms: C_17  and  C_18
REMARK   12  A    between atoms: C_18  and  C_19
REMARK   13  A    between atoms: C_19  and  C_20
REMARK                            x       y       z     vdW  Elec       q    Type
REMARK                         _______ _______ _______ _____ _____    ______ ____
ROOT
ATOM      1  C   UNL     1     -11.731  11.237  70.350  0.00  0.00    +0.051 C 
ENDROOT
BRANCH   1   2
ATOM      2  C   UNL     1     -11.966  11.047  68.905  0.00  0.00    -0.026 C 
ATOM      3  C   UNL     1     -11.385  11.904  68.072  0.00  0.00    -0.026 C 
BRANCH   3   4
ATOM      4  C   UNL     1     -10.860  13.225  68.457  0.00  0.00    +0.051 C 
BRANCH   4   5
ATOM      5  C   UNL     1     -11.788  14.339  68.212  0.00  0.00    -0.026 C 
ATOM      6  C   UNL     1     -11.765  15.511  68.810  0.00  0.00    -0.030 C 
BRANCH   6   7
ATOM      7  C   UNL     1     -10.966  15.613  70.067  0.00  0.00    +0.026 C 
BRANCH   7   8
ATOM      8  C   UNL     1     -11.850  15.939  71.247  0.00  0.00    +0.016 C 
BRANCH   8   9
ATOM      9  C   UNL     1     -12.264  14.715  72.015  0.00  0.00    +0.114 C 
BRANCH   9  10
ATOM     10  C   UNL     1     -13.747  14.695  72.181  0.00  0.00    +0.365 C 
ATOM     11  O   UNL     1     -14.385  15.910  72.432  0.00  0.00    -0.246 OA
ATOM     12  O   UNL     1     -14.277  13.596  72.510  0.00  0.00    -0.246 OA
ENDBRANCH   9  10
ENDBRANCH   8   9
ENDBRANCH   7   8
ENDBRANCH   6   7
ENDBRANCH   4   5
ENDBRANCH   3   4
ENDBRANCH   1   2
BRANCH   1  14
ATOM     13  C   UNL     1     -12.556   9.223  71.333  0.00  0.00    -0.026 C 
ATOM     14  C   UNL     1     -12.788  10.529  71.144  0.00  0.00    -0.026 C 
BRANCH  13  15
ATOM     15  C   UNL     1     -11.178   8.903  71.833  0.00  0.00    +0.051 C 
BRANCH  15  17
ATOM     16  C   UNL     1     -11.287   6.521  72.087  0.00  0.00    -0.026 C 
ATOM     17  C   UNL     1     -11.339   7.702  72.717  0.00  0.00    -0.026 C 
BRANCH  16  18
ATOM     18  C   UNL     1     -10.256   6.428  71.003  0.00  0.00    +0.051 C 
BRANCH  18  20
ATOM     19  C   UNL     1     -11.129   6.467  68.769  0.00  0.00    -0.030 C 
ATOM     20  C   UNL     1     -10.776   5.704  69.808  0.00  0.00    -0.026 C 
BRANCH  19  22
ATOM     21  C   UNL     1     -10.530   8.116  67.057  0.00  0.00    +0.005 C 
ATOM     22  C   UNL     1     -10.306   7.681  68.478  0.00  0.00    +0.026 C 
ENDBRANCH  19  22
ENDBRANCH  18  20
ENDBRANCH  16  18
ENDBRANCH  15  17
ENDBRANCH  13  15
ENDBRANCH   1  14
TORSDOF 13
ENDMDL
MODEL 9
REMARK VINA RESULT:      -5.0      1.998      4.944
REMARK  Name = 
REMARK  13 active torsions:
REMARK  status: ('A' for Active; 'I' for Inactive)
REMARK    1  A    between atoms: C_2  and  C_3
REMARK    2  A    between atoms: C_4  and  C_5
REMARK    3  A    between atoms: C_5  and  C_6
REMARK    4  A    between atoms: C_7  and  C_8
REMARK    5  A    between atoms: C_8  and  C_9
REMARK    6  A    between atoms: C_10  and  C_11
REMARK    7  A    between atoms: C_11  and  C_12
REMARK    8  A    between atoms: C_13  and  C_14
REMARK    9  A    between atoms: C_14  and  C_15
REMARK   10  A    between atoms: C_16  and  C_17
REMARK   11  A    between atoms: C_17  and  C_18
REMARK   12  A    between atoms: C_18  and  C_19
REMARK   13  A    between atoms: C_19  and  C_20
REMARK                            x       y       z     vdW  Elec       q    Type
REMARK                         _______ _______ _______ _____ _____    ______ ____
ROOT
ATOM      1  C   UNL     1     -13.079  15.343  71.118  0.00  0.00    +0.051 C 
ENDROOT
BRANCH   1   2
ATOM      2  C   UNL     1     -11.758  15.994  71.213  0.00  0.00    -0.026 C 
ATOM      3  C   UNL     1     -11.132  16.280  70.076  0.00  0.00    -0.026 C 
BRANCH   3   4
ATOM      4  C   UNL     1     -11.444  15.674  68.770  0.00  0.00    +0.051 C 
BRANCH   4   5
ATOM      5  C   UNL     1     -11.049  14.262  68.651  0.00  0.00    -0.026 C 
ATOM      6  C   UNL     1     -11.258  13.486  67.609  0.00  0.00    -0.030 C 
BRANCH   6   7
ATOM      7  C   UNL     1     -12.263  13.953  66.609  0.00  0.00    +0.026 C 
BRANCH   7   8
ATOM      8  C   UNL     1     -11.743  13.788  65.200  0.00  0.00    +0.016 C 
BRANCH   8   9
ATOM      9  C   UNL     1     -10.506  14.603  64.942  0.00  0.00    +0.114 C 
BRANCH   9  10
ATOM     10  C   UNL     1     -10.841  16.057  64.964  0.00  0.00    +0.365 C 
ATOM     11  O   UNL     1     -11.643  16.551  63.934  0.00  0.00    -0.246 OA
ATOM     12  O   UNL     1     -10.072  16.817  65.618  0.00  0.00    -0.246 OA
ENDBRANCH   9  10
ENDBRANCH   8   9
ENDBRANCH   7   8
ENDBRANCH   6   7
ENDBRANCH   4   5
ENDBRANCH   3   4
ENDBRANCH   1   2
BRANCH   1  14
ATOM     13  C   UNL     1     -13.796  13.366  72.251  0.00  0.00    -0.026 C 
ATOM     14  C   UNL     1     -13.403  14.638  72.402  0.00  0.00    -0.026 C 
BRANCH  13  15
ATOM     15  C   UNL     1     -12.901  12.540  71.374  0.00  0.00    +0.051 C 
BRANCH  15  17
ATOM     16  C   UNL     1     -12.935  10.207  70.820  0.00  0.00    -0.026 C 
ATOM     17  C   UNL     1     -13.141  11.117  71.782  0.00  0.00    -0.026 C 
BRANCH  16  18
ATOM     18  C   UNL     1     -11.744  10.468  69.949  0.00  0.00    +0.051 C 
BRANCH  18  20
ATOM     19  C   UNL     1      -9.714   9.437  69.191  0.00  0.00    -0.030 C 
ATOM     20  C   UNL     1     -10.738   9.372  70.048  0.00  0.00    -0.026 C 
BRANCH  19  22
ATOM     21  C   UNL     1      -8.137  10.658  67.767  0.00  0.00    +0.005 C 
ATOM     22  C   UNL     1      -9.165  10.786  68.856  0.00  0.00    +0.026 C 
ENDBRANCH  19  22
ENDBRANCH  18  20
ENDBRANCH  16  18
ENDBRANCH  15  17
ENDBRANCH  13  15
ENDBRANCH   1  14
TORSDOF 13
ENDMDL
