MODEL 1
REMARK VINA RESULT:      -8.3      0.000      0.000
REMARK  Name = 
REMARK  14 active torsions:
REMARK  status: ('A' for Active; 'I' for Inactive)
REMARK    1  A    between atoms: N_14  and  C_15
REMARK    2  A    between atoms: C_15  and  C_16
REMARK    3  A    between atoms: C_16  and  C_17
REMARK    4  A    between atoms: C_17  and  C_18
REMARK    5  A    between atoms: C_18  and  S_19
REMARK    6  A    between atoms: C_23  and  C_24
REMARK    7  A    between atoms: C_25  and  C_26
REMARK    8  A    between atoms: C_27  and  C_28
REMARK    9  A    between atoms: C_29  and  C_30
REMARK   10  A    between atoms: N_32  and  C_33
REMARK   11  A    between atoms: C_33  and  C_34
REMARK   12  A    between atoms: C_34  and  C_35
REMARK   13  A    between atoms: C_35  and  C_36
REMARK   14  A    between atoms: C_36  and  S_37
REMARK                            x       y       z     vdW  Elec       q    Type
REMARK                         _______ _______ _______ _____ _____    ______ ____
ROOT
ATOM      1  C   UNL     1     -10.990  11.531  67.692  0.00  0.00    +0.000 C 
ATOM      2  C   UNL     1     -11.728  10.782  68.479  0.00  0.00    +0.000 C 
ENDROOT
BRANCH   1   4
ATOM      3  C   UNL     1     -11.318  13.905  67.357  0.00  0.00    +0.065 C 
ATOM      4  C   UNL     1     -10.792  12.919  68.058  0.00  0.00    +0.006 C 
BRANCH   3   7
ATOM      5  C   UNL     1      -8.188  14.838  66.875  0.00  0.00    +0.015 C 
ATOM      6  C   UNL     1      -9.474  15.525  66.482  0.00  0.00    +0.102 C 
ATOM      7  C   UNL     1     -10.601  15.186  67.374  0.00  0.00    +0.206 C 
ATOM      8  N   UNL     1     -11.069  16.240  67.959  0.00  0.00    -0.173 N 
ATOM      9  C   UNL     1     -10.534  17.378  67.276  0.00  0.00    +0.222 A 
ATOM     10  C   UNL     1     -10.790  18.734  67.416  0.00  0.00    +0.069 A 
ATOM     11  C   UNL     1      -9.774  19.627  67.100  0.00  0.00    +0.006 A 
ATOM     12  C   UNL     1      -8.487  19.189  66.818  0.00  0.00    +0.000 A 
ATOM     13  C   UNL     1      -8.336  17.884  66.367  0.00  0.00    +0.002 A 
ATOM     14  C   UNL     1      -7.034  17.443  66.166  0.00  0.00    -0.000 A 
ATOM     15  C   UNL     1      -5.943  18.095  66.727  0.00  0.00    -0.000 A 
ATOM     16  C   UNL     1      -6.132  19.319  67.355  0.00  0.00    -0.000 A 
ATOM     17  C   UNL     1      -7.366  19.929  67.174  0.00  0.00    -0.000 A 
ATOM     18  C   UNL     1      -9.380  17.005  66.601  0.00  0.00    +0.050 A 
ATOM     19  C   UNL     1      -9.739  15.206  65.038  0.00  0.00    +0.015 C 
BRANCH   8  20
ATOM     20  C   UNL     1     -11.871  16.216  69.179  0.00  0.00    +0.322 C 
BRANCH  20  21
ATOM     21  C   UNL     1     -10.964  16.292  70.392  0.00  0.00    +0.087 C 
BRANCH  21  22
ATOM     22  C   UNL     1     -11.299  15.252  71.426  0.00  0.00    +0.030 C 
BRANCH  22  23
ATOM     23  C   UNL     1     -12.508  14.432  71.074  0.00  0.00    +0.126 C 
BRANCH  23  24
ATOM     24  S   UNL     1     -13.824  14.623  72.244  0.00  0.00    -0.107 S 
ATOM     25  O   UNL     1     -13.199  15.341  73.632  0.00  0.00    -0.291 OA
ATOM     26  O   UNL     1     -14.467  13.314  72.581  0.00  0.00    -0.371 OA
ATOM     27  O   UNL     1     -14.877  15.508  71.626  0.00  0.00    -0.371 OA
ENDBRANCH  23  24
ENDBRANCH  22  23
ENDBRANCH  21  22
ENDBRANCH  20  21
ENDBRANCH   8  20
ENDBRANCH   3   7
ENDBRANCH   1   4
BRANCH   2  28
ATOM     28  C   UNL     1     -11.962  11.087  69.889  0.00  0.00    +0.000 C 
ATOM     29  C   UNL     1     -11.517  10.192  70.772  0.00  0.00    +0.001 C 
BRANCH  29  30
ATOM     30  C   UNL     1     -10.288   9.486  70.386  0.00  0.00    +0.011 C 
ATOM     31  C   UNL     1     -10.240   8.162  70.520  0.00  0.00    +0.032 C 
ATOM     32  C   UNL     1     -10.728   7.478  71.743  0.00  0.00    +0.052 C 
ATOM     33  C   UNL     1     -10.011   7.986  72.987  0.00  0.00    +0.010 C 
ATOM     34  C   UNL     1     -12.222   7.548  71.896  0.00  0.00    +0.010 C 
ATOM     35  C   UNL     1     -10.319   6.067  71.479  0.00  0.00    -0.004 A 
ATOM     36  C   UNL     1      -9.989   5.914  70.139  0.00  0.00    +0.048 A 
ATOM     37  C   UNL     1     -10.088   4.668  69.559  0.00  0.00    +0.015 A 
ATOM     38  C   UNL     1      -9.783   3.556  70.335  0.00  0.00    +0.001 A 
ATOM     39  C   UNL     1      -9.829   3.708  71.702  0.00  0.00    -0.000 A 
ATOM     40  C   UNL     1      -9.780   2.548  72.462  0.00  0.00    -0.000 A 
ATOM     41  C   UNL     1     -10.216   2.585  73.779  0.00  0.00    -0.000 A 
ATOM     42  C   UNL     1     -10.366   3.846  74.341  0.00  0.00    -0.000 A 
ATOM     43  C   UNL     1     -10.318   5.005  73.598  0.00  0.00    -0.000 A 
ATOM     44  C   UNL     1     -10.300   4.901  72.234  0.00  0.00    -0.002 A 
ATOM     45  N   UNL     1      -9.639   7.209  69.635  0.00  0.00    -0.290 N 
BRANCH  45  46
ATOM     46  C   UNL     1      -9.017   7.498  68.349  0.00  0.00    +0.095 C 
BRANCH  46  47
ATOM     47  C   UNL     1     -10.083   7.484  67.287  0.00  0.00    +0.024 C 
BRANCH  47  48
ATOM     48  C   UNL     1      -9.667   8.487  66.225  0.00  0.00    +0.025 C 
BRANCH  48  49
ATOM     49  C   UNL     1      -8.213   8.830  66.396  0.00  0.00    +0.126 C 
BRANCH  49  50
ATOM     50  S   UNL     1      -7.823  10.406  65.667  0.00  0.00    -0.107 S 
ATOM     51  O   UNL     1      -9.107  10.955  64.728  0.00  0.00    -0.291 OA
ATOM     52  O   UNL     1      -7.536  11.388  66.754  0.00  0.00    -0.371 OA
ATOM     53  O   UNL     1      -6.594  10.197  64.813  0.00  0.00    -0.371 OA
ENDBRANCH  49  50
ENDBRANCH  48  49
ENDBRANCH  47  48
ENDBRANCH  46  47
ENDBRANCH  45  46
ENDBRANCH  29  30
ENDBRANCH   2  28
TORSDOF 14
ENDMDL
MODEL 2
REMARK VINA RESULT:      -8.3      2.259      5.598
REMARK  Name = 
REMARK  14 active torsions:
REMARK  status: ('A' for Active; 'I' for Inactive)
REMARK    1  A    between atoms: N_14  and  C_15
REMARK    2  A    between atoms: C_15  and  C_16
REMARK    3  A    between atoms: C_16  and  C_17
REMARK    4  A    between atoms: C_17  and  C_18
REMARK    5  A    between atoms: C_18  and  S_19
REMARK    6  A    between atoms: C_23  and  C_24
REMARK    7  A    between atoms: C_25  and  C_26
REMARK    8  A    between atoms: C_27  and  C_28
REMARK    9  A    between atoms: C_29  and  C_30
REMARK   10  A    between atoms: N_32  and  C_33
REMARK   11  A    between atoms: C_33  and  C_34
REMARK   12  A    between atoms: C_34  and  C_35
REMARK   13  A    between atoms: C_35  and  C_36
REMARK   14  A    between atoms: C_36  and  S_37
REMARK                            x       y       z     vdW  Elec       q    Type
REMARK                         _______ _______ _______ _____ _____    ______ ____
ROOT
ATOM      1  C   UNL     1     -11.017  13.705  65.106  0.00  0.00    +0.000 C 
ATOM      2  C   UNL     1     -11.170  12.404  65.014  0.00  0.00    +0.000 C 
ENDROOT
BRANCH   1   4
ATOM      3  C   UNL     1      -9.857  14.567  67.046  0.00  0.00    +0.065 C 
ATOM      4  C   UNL     1      -9.836  14.208  65.778  0.00  0.00    +0.006 C 
BRANCH   3   7
ATOM      5  C   UNL     1      -9.446  17.772  66.366  0.00  0.00    +0.015 C 
ATOM      6  C   UNL     1      -9.245  17.024  67.663  0.00  0.00    +0.102 C 
ATOM      7  C   UNL     1      -8.901  15.603  67.458  0.00  0.00    +0.206 C 
ATOM      8  N   UNL     1      -7.743  15.323  67.962  0.00  0.00    -0.173 N 
ATOM      9  C   UNL     1      -7.376  16.413  68.814  0.00  0.00    +0.222 A 
ATOM     10  C   UNL     1      -6.301  16.582  69.674  0.00  0.00    +0.069 A 
ATOM     11  C   UNL     1      -5.850  17.874  69.910  0.00  0.00    +0.006 A 
ATOM     12  C   UNL     1      -6.335  18.954  69.185  0.00  0.00    +0.000 A 
ATOM     13  C   UNL     1      -7.589  18.826  68.602  0.00  0.00    +0.002 A 
ATOM     14  C   UNL     1      -8.020  19.889  67.817  0.00  0.00    -0.000 A 
ATOM     15  C   UNL     1      -7.139  20.842  67.323  0.00  0.00    -0.000 A 
ATOM     16  C   UNL     1      -5.822  20.845  67.766  0.00  0.00    -0.000 A 
ATOM     17  C   UNL     1      -5.530  20.039  68.858  0.00  0.00    -0.000 A 
ATOM     18  C   UNL     1      -8.087  17.545  68.439  0.00  0.00    +0.050 A 
ATOM     19  C   UNL     1     -10.475  17.225  68.502  0.00  0.00    +0.015 C 
BRANCH   8  20
ATOM     20  C   UNL     1      -6.938  14.166  67.583  0.00  0.00    +0.322 C 
BRANCH  20  21
ATOM     21  C   UNL     1      -7.142  13.046  68.586  0.00  0.00    +0.087 C 
BRANCH  21  22
ATOM     22  C   UNL     1      -6.475  11.766  68.161  0.00  0.00    +0.030 C 
BRANCH  22  23
ATOM     23  C   UNL     1      -5.207  11.477  68.916  0.00  0.00    +0.126 C 
BRANCH  23  24
ATOM     24  S   UNL     1      -5.508  11.007  70.597  0.00  0.00    -0.107 S 
ATOM     25  O   UNL     1      -7.004  10.240  70.673  0.00  0.00    -0.291 OA
ATOM     26  O   UNL     1      -5.480  12.185  71.520  0.00  0.00    -0.371 OA
ATOM     27  O   UNL     1      -4.413  10.062  71.022  0.00  0.00    -0.371 OA
ENDBRANCH  23  24
ENDBRANCH  22  23
ENDBRANCH  21  22
ENDBRANCH  20  21
ENDBRANCH   8  20
ENDBRANCH   3   7
ENDBRANCH   1   4
BRANCH   2  28
ATOM     28  C   UNL     1     -10.061  11.457  65.100  0.00  0.00    +0.000 C 
ATOM     29  C   UNL     1      -9.831  10.920  66.299  0.00  0.00    +0.001 C 
BRANCH  29  30
ATOM     30  C   UNL     1     -11.023  10.705  67.130  0.00  0.00    +0.011 C 
ATOM     31  C   UNL     1     -10.920   9.933  68.210  0.00  0.00    +0.032 C 
ATOM     32  C   UNL     1     -10.212   8.629  68.179  0.00  0.00    +0.052 C 
ATOM     33  C   UNL     1     -10.811   7.698  67.132  0.00  0.00    +0.010 C 
ATOM     34  C   UNL     1      -8.725   8.774  68.008  0.00  0.00    +0.010 C 
ATOM     35  C   UNL     1     -10.509   8.096  69.541  0.00  0.00    -0.004 A 
ATOM     36  C   UNL     1     -10.992   9.115  70.352  0.00  0.00    +0.048 A 
ATOM     37  C   UNL     1     -10.844   9.016  71.718  0.00  0.00    +0.015 A 
ATOM     38  C   UNL     1     -10.933   7.756  72.299  0.00  0.00    +0.001 A 
ATOM     39  C   UNL     1     -10.727   6.667  71.482  0.00  0.00    -0.000 A 
ATOM     40  C   UNL     1     -10.561   5.440  72.107  0.00  0.00    -0.000 A 
ATOM     41  C   UNL     1      -9.965   4.401  71.406  0.00  0.00    -0.000 A 
ATOM     42  C   UNL     1      -9.872   4.563  70.030  0.00  0.00    -0.000 A 
ATOM     43  C   UNL     1     -10.130   5.760  69.400  0.00  0.00    -0.000 A 
ATOM     44  C   UNL     1     -10.313   6.874  70.173  0.00  0.00    -0.002 A 
ATOM     45  N   UNL     1     -11.531  10.125  69.491  0.00  0.00    -0.290 N 
BRANCH  45  46
ATOM     46  C   UNL     1     -12.340  11.268  69.899  0.00  0.00    +0.095 C 
BRANCH  46  47
ATOM     47  C   UNL     1     -11.476  12.500  69.873  0.00  0.00    +0.024 C 
BRANCH  47  48
ATOM     48  C   UNL     1     -12.397  13.693  70.056  0.00  0.00    +0.025 C 
BRANCH  48  49
ATOM     49  C   UNL     1     -11.964  14.487  71.258  0.00  0.00    +0.126 C 
BRANCH  49  50
ATOM     50  S   UNL     1     -13.302  14.710  72.410  0.00  0.00    -0.107 S 
ATOM     51  O   UNL     1     -12.715  15.217  73.904  0.00  0.00    -0.291 OA
ATOM     52  O   UNL     1     -14.247  15.730  71.866  0.00  0.00    -0.371 OA
ATOM     53  O   UNL     1     -13.992  13.373  72.539  0.00  0.00    -0.371 OA
ENDBRANCH  49  50
ENDBRANCH  48  49
ENDBRANCH  47  48
ENDBRANCH  46  47
ENDBRANCH  45  46
ENDBRANCH  29  30
ENDBRANCH   2  28
TORSDOF 14
ENDMDL
MODEL 3
REMARK VINA RESULT:      -8.2      3.957     11.051
REMARK  Name = 
REMARK  14 active torsions:
REMARK  status: ('A' for Active; 'I' for Inactive)
REMARK    1  A    between atoms: N_14  and  C_15
REMARK    2  A    between atoms: C_15  and  C_16
REMARK    3  A    between atoms: C_16  and  C_17
REMARK    4  A    between atoms: C_17  and  C_18
REMARK    5  A    between atoms: C_18  and  S_19
REMARK    6  A    between atoms: C_23  and  C_24
REMARK    7  A    between atoms: C_25  and  C_26
REMARK    8  A    between atoms: C_27  and  C_28
REMARK    9  A    between atoms: C_29  and  C_30
REMARK   10  A    between atoms: N_32  and  C_33
REMARK   11  A    between atoms: C_33  and  C_34
REMARK   12  A    between atoms: C_34  and  C_35
REMARK   13  A    between atoms: C_35  and  C_36
REMARK   14  A    between atoms: C_36  and  S_37
REMARK                            x       y       z     vdW  Elec       q    Type
REMARK                         _______ _______ _______ _____ _____    ______ ____
ROOT
ATOM      1  C   UNL     1      -6.551  11.281  67.589  0.00  0.00    +0.000 C 
ATOM      2  C   UNL     1      -5.878  12.230  68.198  0.00  0.00    +0.000 C 
ENDROOT
BRANCH   1   4
ATOM      3  C   UNL     1      -8.626  10.052  67.790  0.00  0.00    +0.065 C 
ATOM      4  C   UNL     1      -7.541  10.548  68.353  0.00  0.00    +0.006 C 
BRANCH   3   7
ATOM      5  C   UNL     1     -10.267   7.516  69.123  0.00  0.00    +0.015 C 
ATOM      6  C   UNL     1      -9.976   8.885  69.690  0.00  0.00    +0.102 C 
ATOM      7  C   UNL     1      -9.812   9.916  68.645  0.00  0.00    +0.206 C 
ATOM      8  N   UNL     1     -10.694  10.853  68.768  0.00  0.00    -0.173 N 
ATOM      9  C   UNL     1     -11.289  10.709  70.062  0.00  0.00    +0.222 A 
ATOM     10  C   UNL     1     -12.200  11.501  70.745  0.00  0.00    +0.069 A 
ATOM     11  C   UNL     1     -13.043  10.886  71.661  0.00  0.00    +0.006 A 
ATOM     12  C   UNL     1     -13.103   9.503  71.775  0.00  0.00    +0.000 A 
ATOM     13  C   UNL     1     -11.998   8.775  71.355  0.00  0.00    +0.002 A 
ATOM     14  C   UNL     1     -12.110   7.391  71.405  0.00  0.00    -0.000 A 
ATOM     15  C   UNL     1     -13.343   6.757  71.497  0.00  0.00    -0.000 A 
ATOM     16  C   UNL     1     -14.483   7.517  71.725  0.00  0.00    -0.000 A 
ATOM     17  C   UNL     1     -14.286   8.843  72.085  0.00  0.00    -0.000 A 
ATOM     18  C   UNL     1     -11.103   9.408  70.508  0.00  0.00    +0.050 A 
ATOM     19  C   UNL     1      -8.784   8.761  70.596  0.00  0.00    +0.015 C 
BRANCH   8  20
ATOM     20  C   UNL     1     -11.078  11.769  67.698  0.00  0.00    +0.322 C 
BRANCH  20  21
ATOM     21  C   UNL     1     -10.817  13.200  68.127  0.00  0.00    +0.087 C 
BRANCH  21  22
ATOM     22  C   UNL     1     -11.072  14.187  67.021  0.00  0.00    +0.030 C 
BRANCH  22  23
ATOM     23  C   UNL     1     -12.382  13.967  66.318  0.00  0.00    +0.126 C 
BRANCH  23  24
ATOM     24  S   UNL     1     -12.182  13.654  64.586  0.00  0.00    -0.107 S 
ATOM     25  O   UNL     1     -10.554  13.346  64.288  0.00  0.00    -0.291 OA
ATOM     26  O   UNL     1     -12.655  14.802  63.751  0.00  0.00    -0.371 OA
ATOM     27  O   UNL     1     -13.015  12.449  64.228  0.00  0.00    -0.371 OA
ENDBRANCH  23  24
ENDBRANCH  22  23
ENDBRANCH  21  22
ENDBRANCH  20  21
ENDBRANCH   8  20
ENDBRANCH   3   7
ENDBRANCH   1   4
BRANCH   2  28
ATOM     28  C   UNL     1      -6.358  12.911  69.399  0.00  0.00    +0.000 C 
ATOM     29  C   UNL     1      -5.683  13.998  69.774  0.00  0.00    +0.001 C 
BRANCH  29  30
ATOM     30  C   UNL     1      -5.116  14.794  68.678  0.00  0.00    +0.011 C 
ATOM     31  C   UNL     1      -5.721  15.928  68.329  0.00  0.00    +0.032 C 
ATOM     32  C   UNL     1      -7.193  16.015  68.168  0.00  0.00    +0.052 C 
ATOM     33  C   UNL     1      -7.700  15.013  67.139  0.00  0.00    +0.010 C 
ATOM     34  C   UNL     1      -7.933  15.895  69.472  0.00  0.00    +0.010 C 
ATOM     35  C   UNL     1      -7.353  17.399  67.630  0.00  0.00    -0.004 A 
ATOM     36  C   UNL     1      -6.179  18.117  67.818  0.00  0.00    +0.048 A 
ATOM     37  C   UNL     1      -6.235  19.491  67.892  0.00  0.00    +0.015 A 
ATOM     38  C   UNL     1      -7.170  20.154  67.104  0.00  0.00    +0.001 A 
ATOM     39  C   UNL     1      -8.244  19.423  66.649  0.00  0.00    -0.000 A 
ATOM     40  C   UNL     1      -9.294  20.138  66.090  0.00  0.00    -0.000 A 
ATOM     41  C   UNL     1     -10.540  19.535  65.984  0.00  0.00    -0.000 A 
ATOM     42  C   UNL     1     -10.570  18.156  66.144  0.00  0.00    -0.000 A 
ATOM     43  C   UNL     1      -9.493  17.434  66.610  0.00  0.00    -0.000 A 
ATOM     44  C   UNL     1      -8.414  18.120  67.099  0.00  0.00    -0.002 A 
ATOM     45  N   UNL     1      -5.114  17.167  67.944  0.00  0.00    -0.290 N 
BRANCH  45  46
ATOM     46  C   UNL     1      -3.686  17.462  67.933  0.00  0.00    +0.095 C 
BRANCH  46  47
ATOM     47  C   UNL     1      -3.280  17.919  69.308  0.00  0.00    +0.024 C 
BRANCH  47  48
ATOM     48  C   UNL     1      -2.877  19.378  69.191  0.00  0.00    +0.025 C 
BRANCH  48  49
ATOM     49  C   UNL     1      -2.425  19.887  70.532  0.00  0.00    +0.126 C 
BRANCH  49  50
ATOM     50  S   UNL     1      -3.771  20.614  71.442  0.00  0.00    -0.107 S 
ATOM     51  O   UNL     1      -4.806  21.441  70.405  0.00  0.00    -0.291 OA
ATOM     52  O   UNL     1      -4.521  19.532  72.148  0.00  0.00    -0.371 OA
ATOM     53  O   UNL     1      -3.156  21.562  72.444  0.00  0.00    -0.371 OA
ENDBRANCH  49  50
ENDBRANCH  48  49
ENDBRANCH  47  48
ENDBRANCH  46  47
ENDBRANCH  45  46
ENDBRANCH  29  30
ENDBRANCH   2  28
TORSDOF 14
ENDMDL
MODEL 4
REMARK VINA RESULT:      -8.2      3.613     10.717
REMARK  Name = 
REMARK  14 active torsions:
REMARK  status: ('A' for Active; 'I' for Inactive)
REMARK    1  A    between atoms: N_14  and  C_15
REMARK    2  A    between atoms: C_15  and  C_16
REMARK    3  A    between atoms: C_16  and  C_17
REMARK    4  A    between atoms: C_17  and  C_18
REMARK    5  A    between atoms: C_18  and  S_19
REMARK    6  A    between atoms: C_23  and  C_24
REMARK    7  A    between atoms: C_25  and  C_26
REMARK    8  A    between atoms: C_27  and  C_28
REMARK    9  A    between atoms: C_29  and  C_30
REMARK   10  A    between atoms: N_32  and  C_33
REMARK   11  A    between atoms: C_33  and  C_34
REMARK   12  A    between atoms: C_34  and  C_35
REMARK   13  A    between atoms: C_35  and  C_36
REMARK   14  A    between atoms: C_36  and  S_37
REMARK                            x       y       z     vdW  Elec       q    Type
REMARK                         _______ _______ _______ _____ _____    ______ ____
ROOT
ATOM      1  C   UNL     1      -6.851  11.504  66.947  0.00  0.00    +0.000 C 
ATOM      2  C   UNL     1      -5.913  12.259  67.470  0.00  0.00    +0.000 C 
ENDROOT
BRANCH   1   4
ATOM      3  C   UNL     1      -8.808  10.159  67.409  0.00  0.00    +0.065 C 
ATOM      4  C   UNL     1      -7.738  10.794  67.846  0.00  0.00    +0.006 C 
BRANCH   3   7
ATOM      5  C   UNL     1     -10.420   7.641  68.810  0.00  0.00    +0.015 C 
ATOM      6  C   UNL     1     -10.050   8.990  69.380  0.00  0.00    +0.102 C 
ATOM      7  C   UNL     1      -9.933  10.037  68.345  0.00  0.00    +0.206 C 
ATOM      8  N   UNL     1     -10.778  10.995  68.549  0.00  0.00    -0.173 N 
ATOM      9  C   UNL     1     -11.281  10.840  69.880  0.00  0.00    +0.222 A 
ATOM     10  C   UNL     1     -12.119  11.641  70.642  0.00  0.00    +0.069 A 
ATOM     11  C   UNL     1     -12.911  11.030  71.605  0.00  0.00    +0.006 A 
ATOM     12  C   UNL     1     -13.001   9.647  71.697  0.00  0.00    +0.000 A 
ATOM     13  C   UNL     1     -11.949   8.899  71.185  0.00  0.00    +0.002 A 
ATOM     14  C   UNL     1     -12.096   7.517  71.217  0.00  0.00    -0.000 A 
ATOM     15  C   UNL     1     -13.336   6.914  71.386  0.00  0.00    -0.000 A 
ATOM     16  C   UNL     1     -14.436   7.700  71.710  0.00  0.00    -0.000 A 
ATOM     17  C   UNL     1     -14.176   9.013  72.080  0.00  0.00    -0.000 A 
ATOM     18  C   UNL     1     -11.101   9.525  70.287  0.00  0.00    +0.050 A 
ATOM     19  C   UNL     1      -8.800   8.815  70.195  0.00  0.00    +0.015 C 
BRANCH   8  20
ATOM     20  C   UNL     1     -11.212  11.942  67.527  0.00  0.00    +0.322 C 
BRANCH  20  21
ATOM     21  C   UNL     1     -10.634  13.314  67.819  0.00  0.00    +0.087 C 
BRANCH  21  22
ATOM     22  C   UNL     1     -11.553  14.427  67.392  0.00  0.00    +0.030 C 
BRANCH  22  23
ATOM     23  C   UNL     1     -12.378  14.085  66.184  0.00  0.00    +0.126 C 
BRANCH  23  24
ATOM     24  S   UNL     1     -11.582  14.533  64.666  0.00  0.00    -0.107 S 
ATOM     25  O   UNL     1     -10.397  13.385  64.330  0.00  0.00    -0.291 OA
ATOM     26  O   UNL     1     -10.976  15.900  64.735  0.00  0.00    -0.371 OA
ATOM     27  O   UNL     1     -12.623  14.545  63.576  0.00  0.00    -0.371 OA
ENDBRANCH  23  24
ENDBRANCH  22  23
ENDBRANCH  21  22
ENDBRANCH  20  21
ENDBRANCH   8  20
ENDBRANCH   3   7
ENDBRANCH   1   4
BRANCH   2  28
ATOM     28  C   UNL     1      -5.984  12.806  68.824  0.00  0.00    +0.000 C 
ATOM     29  C   UNL     1      -5.152  13.810  69.103  0.00  0.00    +0.001 C 
BRANCH  29  30
ATOM     30  C   UNL     1      -4.855  14.710  67.981  0.00  0.00    +0.011 C 
ATOM     31  C   UNL     1      -5.468  15.891  67.927  0.00  0.00    +0.032 C 
ATOM     32  C   UNL     1      -6.923  16.033  68.181  0.00  0.00    +0.052 C 
ATOM     33  C   UNL     1      -7.740  15.166  67.231  0.00  0.00    +0.010 C 
ATOM     34  C   UNL     1      -7.293  15.784  69.617  0.00  0.00    +0.010 C 
ATOM     35  C   UNL     1      -7.145  17.471  67.850  0.00  0.00    -0.004 A 
ATOM     36  C   UNL     1      -5.926  18.134  67.786  0.00  0.00    +0.048 A 
ATOM     37  C   UNL     1      -5.885  19.492  68.012  0.00  0.00    +0.015 A 
ATOM     38  C   UNL     1      -6.958  20.263  67.580  0.00  0.00    +0.001 A 
ATOM     39  C   UNL     1      -8.153  19.616  67.361  0.00  0.00    -0.000 A 
ATOM     40  C   UNL     1      -9.274  20.415  67.183  0.00  0.00    -0.000 A 
ATOM     41  C   UNL     1     -10.533  19.859  67.358  0.00  0.00    -0.000 A 
ATOM     42  C   UNL     1     -10.595  18.472  67.379  0.00  0.00    -0.000 A 
ATOM     43  C   UNL     1      -9.474  17.676  67.458  0.00  0.00    -0.000 A 
ATOM     44  C   UNL     1      -8.268  18.275  67.704  0.00  0.00    -0.002 A 
ATOM     45  N   UNL     1      -4.919  17.150  67.521  0.00  0.00    -0.290 N 
BRANCH  45  46
ATOM     46  C   UNL     1      -3.532  17.408  67.152  0.00  0.00    +0.095 C 
BRANCH  46  47
ATOM     47  C   UNL     1      -3.410  17.319  65.655  0.00  0.00    +0.024 C 
BRANCH  47  48
ATOM     48  C   UNL     1      -3.209  18.733  65.140  0.00  0.00    +0.025 C 
BRANCH  48  49
ATOM     49  C   UNL     1      -3.786  18.854  63.757  0.00  0.00    +0.126 C 
BRANCH  49  50
ATOM     50  S   UNL     1      -5.378  19.652  63.780  0.00  0.00    -0.107 S 
ATOM     51  O   UNL     1      -5.880  20.012  62.215  0.00  0.00    -0.291 OA
ATOM     52  O   UNL     1      -6.367  18.745  64.433  0.00  0.00    -0.371 OA
ATOM     53  O   UNL     1      -5.216  20.918  64.588  0.00  0.00    -0.371 OA
ENDBRANCH  49  50
ENDBRANCH  48  49
ENDBRANCH  47  48
ENDBRANCH  46  47
ENDBRANCH  45  46
ENDBRANCH  29  30
ENDBRANCH   2  28
TORSDOF 14
ENDMDL
MODEL 5
REMARK VINA RESULT:      -8.1      1.956      5.970
REMARK  Name = 
REMARK  14 active torsions:
REMARK  status: ('A' for Active; 'I' for Inactive)
REMARK    1  A    between atoms: N_14  and  C_15
REMARK    2  A    between atoms: C_15  and  C_16
REMARK    3  A    between atoms: C_16  and  C_17
REMARK    4  A    between atoms: C_17  and  C_18
REMARK    5  A    between atoms: C_18  and  S_19
REMARK    6  A    between atoms: C_23  and  C_24
REMARK    7  A    between atoms: C_25  and  C_26
REMARK    8  A    between atoms: C_27  and  C_28
REMARK    9  A    between atoms: C_29  and  C_30
REMARK   10  A    between atoms: N_32  and  C_33
REMARK   11  A    between atoms: C_33  and  C_34
REMARK   12  A    between atoms: C_34  and  C_35
REMARK   13  A    between atoms: C_35  and  C_36
REMARK   14  A    between atoms: C_36  and  S_37
REMARK                            x       y       z     vdW  Elec       q    Type
REMARK                         _______ _______ _______ _____ _____    ______ ____
ROOT
ATOM      1  C   UNL     1     -11.031  13.737  65.034  0.00  0.00    +0.000 C 
ATOM      2  C   UNL     1     -11.192  12.437  64.943  0.00  0.00    +0.000 C 
ENDROOT
BRANCH   1   4
ATOM      3  C   UNL     1      -9.853  14.560  66.981  0.00  0.00    +0.065 C 
ATOM      4  C   UNL     1      -9.846  14.233  65.703  0.00  0.00    +0.006 C 
BRANCH   3   7
ATOM      5  C   UNL     1      -9.414  17.759  66.293  0.00  0.00    +0.015 C 
ATOM      6  C   UNL     1      -9.243  17.017  67.597  0.00  0.00    +0.102 C 
ATOM      7  C   UNL     1      -8.901  15.593  67.406  0.00  0.00    +0.206 C 
ATOM      8  N   UNL     1      -7.756  15.311  67.936  0.00  0.00    -0.173 N 
ATOM      9  C   UNL     1      -7.401  16.404  68.789  0.00  0.00    +0.222 A 
ATOM     10  C   UNL     1      -6.343  16.573  69.670  0.00  0.00    +0.069 A 
ATOM     11  C   UNL     1      -5.891  17.864  69.909  0.00  0.00    +0.006 A 
ATOM     12  C   UNL     1      -6.355  18.942  69.169  0.00  0.00    +0.000 A 
ATOM     13  C   UNL     1      -7.597  18.817  68.561  0.00  0.00    +0.002 A 
ATOM     14  C   UNL     1      -8.007  19.877  67.761  0.00  0.00    -0.000 A 
ATOM     15  C   UNL     1      -7.112  20.824  67.280  0.00  0.00    -0.000 A 
ATOM     16  C   UNL     1      -5.804  20.823  67.750  0.00  0.00    -0.000 A 
ATOM     17  C   UNL     1      -5.539  20.021  68.853  0.00  0.00    -0.000 A 
ATOM     18  C   UNL     1      -8.099  17.537  68.394  0.00  0.00    +0.050 A 
ATOM     19  C   UNL     1     -10.488  17.228  68.410  0.00  0.00    +0.015 C 
BRANCH   8  20
ATOM     20  C   UNL     1      -6.948  14.148  67.579  0.00  0.00    +0.322 C 
BRANCH  20  21
ATOM     21  C   UNL     1      -7.065  13.089  68.660  0.00  0.00    +0.087 C 
BRANCH  21  22
ATOM     22  C   UNL     1      -6.501  11.763  68.228  0.00  0.00    +0.030 C 
BRANCH  22  23
ATOM     23  C   UNL     1      -6.266  11.671  66.746  0.00  0.00    +0.126 C 
BRANCH  23  24
ATOM     24  S   UNL     1      -4.554  11.476  66.339  0.00  0.00    -0.107 S 
ATOM     25  O   UNL     1      -3.732  12.865  66.820  0.00  0.00    -0.291 OA
ATOM     26  O   UNL     1      -4.351  11.233  64.876  0.00  0.00    -0.371 OA
ATOM     27  O   UNL     1      -4.028  10.274  67.082  0.00  0.00    -0.371 OA
ENDBRANCH  23  24
ENDBRANCH  22  23
ENDBRANCH  21  22
ENDBRANCH  20  21
ENDBRANCH   8  20
ENDBRANCH   3   7
ENDBRANCH   1   4
BRANCH   2  28
ATOM     28  C   UNL     1     -10.089  11.483  65.028  0.00  0.00    +0.000 C 
ATOM     29  C   UNL     1      -9.844  10.964  66.232  0.00  0.00    +0.001 C 
BRANCH  29  30
ATOM     30  C   UNL     1     -11.024  10.773  67.085  0.00  0.00    +0.011 C 
ATOM     31  C   UNL     1     -10.915  10.004  68.167  0.00  0.00    +0.032 C 
ATOM     32  C   UNL     1     -10.229   8.688  68.129  0.00  0.00    +0.052 C 
ATOM     33  C   UNL     1     -10.860   7.762  67.098  0.00  0.00    +0.010 C 
ATOM     34  C   UNL     1      -8.743   8.809  67.932  0.00  0.00    +0.010 C 
ATOM     35  C   UNL     1     -10.510   8.166  69.499  0.00  0.00    -0.004 A 
ATOM     36  C   UNL     1     -10.962   9.196  70.313  0.00  0.00    +0.048 A 
ATOM     37  C   UNL     1     -10.792   9.101  71.677  0.00  0.00    +0.015 A 
ATOM     38  C   UNL     1     -10.891   7.846  72.266  0.00  0.00    +0.001 A 
ATOM     39  C   UNL     1     -10.716   6.750  71.451  0.00  0.00    -0.000 A 
ATOM     40  C   UNL     1     -10.559   5.523  72.078  0.00  0.00    -0.000 A 
ATOM     41  C   UNL     1      -9.993   4.471  71.372  0.00  0.00    -0.000 A 
ATOM     42  C   UNL     1      -9.921   4.626  69.994  0.00  0.00    -0.000 A 
ATOM     43  C   UNL     1     -10.171   5.824  69.362  0.00  0.00    -0.000 A 
ATOM     44  C   UNL     1     -10.323   6.945  70.133  0.00  0.00    -0.002 A 
ATOM     45  N   UNL     1     -11.500  10.212  69.457  0.00  0.00    -0.290 N 
BRANCH  45  46
ATOM     46  C   UNL     1     -12.284  11.369  69.874  0.00  0.00    +0.095 C 
BRANCH  46  47
ATOM     47  C   UNL     1     -11.434  12.602  69.723  0.00  0.00    +0.024 C 
BRANCH  47  48
ATOM     48  C   UNL     1     -12.344  13.798  69.934  0.00  0.00    +0.025 C 
BRANCH  48  49
ATOM     49  C   UNL     1     -12.024  14.451  71.250  0.00  0.00    +0.126 C 
BRANCH  49  50
ATOM     50  S   UNL     1     -13.493  14.722  72.219  0.00  0.00    -0.107 S 
ATOM     51  O   UNL     1     -13.125  15.576  73.622  0.00  0.00    -0.291 OA
ATOM     52  O   UNL     1     -14.480  15.490  71.404  0.00  0.00    -0.371 OA
ATOM     53  O   UNL     1     -14.045  13.358  72.560  0.00  0.00    -0.371 OA
ENDBRANCH  49  50
ENDBRANCH  48  49
ENDBRANCH  47  48
ENDBRANCH  46  47
ENDBRANCH  45  46
ENDBRANCH  29  30
ENDBRANCH   2  28
TORSDOF 14
ENDMDL
MODEL 6
REMARK VINA RESULT:      -8.0      2.410      2.627
REMARK  Name = 
REMARK  14 active torsions:
REMARK  status: ('A' for Active; 'I' for Inactive)
REMARK    1  A    between atoms: N_14  and  C_15
REMARK    2  A    between atoms: C_15  and  C_16
REMARK    3  A    between atoms: C_16  and  C_17
REMARK    4  A    between atoms: C_17  and  C_18
REMARK    5  A    between atoms: C_18  and  S_19
REMARK    6  A    between atoms: C_23  and  C_24
REMARK    7  A    between atoms: C_25  and  C_26
REMARK    8  A    between atoms: C_27  and  C_28
REMARK    9  A    between atoms: C_29  and  C_30
REMARK   10  A    between atoms: N_32  and  C_33
REMARK   11  A    between atoms: C_33  and  C_34
REMARK   12  A    between atoms: C_34  and  C_35
REMARK   13  A    between atoms: C_35  and  C_36
REMARK   14  A    between atoms: C_36  and  S_37
REMARK                            x       y       z     vdW  Elec       q    Type
REMARK                         _______ _______ _______ _____ _____    ______ ____
ROOT
ATOM      1  C   UNL     1     -10.852  11.472  67.689  0.00  0.00    +0.000 C 
ATOM      2  C   UNL     1     -11.702  10.741  68.375  0.00  0.00    +0.000 C 
ENDROOT
BRANCH   1   4
ATOM      3  C   UNL     1     -11.251  13.837  67.377  0.00  0.00    +0.065 C 
ATOM      4  C   UNL     1     -10.689  12.861  68.064  0.00  0.00    +0.006 C 
BRANCH   3   7
ATOM      5  C   UNL     1      -8.142  14.854  66.928  0.00  0.00    +0.015 C 
ATOM      6  C   UNL     1      -9.441  15.504  66.516  0.00  0.00    +0.102 C 
ATOM      7  C   UNL     1     -10.570  15.138  67.395  0.00  0.00    +0.206 C 
ATOM      8  N   UNL     1     -11.074  16.182  67.969  0.00  0.00    -0.173 N 
ATOM      9  C   UNL     1     -10.563  17.330  67.286  0.00  0.00    +0.222 A 
ATOM     10  C   UNL     1     -10.857  18.680  67.416  0.00  0.00    +0.069 A 
ATOM     11  C   UNL     1      -9.862  19.599  67.107  0.00  0.00    +0.006 A 
ATOM     12  C   UNL     1      -8.561  19.195  66.844  0.00  0.00    +0.000 A 
ATOM     13  C   UNL     1      -8.368  17.893  66.401  0.00  0.00    +0.002 A 
ATOM     14  C   UNL     1      -7.052  17.487  66.219  0.00  0.00    -0.000 A 
ATOM     15  C   UNL     1      -5.986  18.171  66.789  0.00  0.00    -0.000 A 
ATOM     16  C   UNL     1      -6.216  19.394  67.408  0.00  0.00    -0.000 A 
ATOM     17  C   UNL     1      -7.465  19.968  67.209  0.00  0.00    -0.000 A 
ATOM     18  C   UNL     1      -9.390  16.986  66.627  0.00  0.00    +0.050 A 
ATOM     19  C   UNL     1      -9.680  15.170  65.070  0.00  0.00    +0.015 C 
BRANCH   8  20
ATOM     20  C   UNL     1     -11.890  16.142  69.179  0.00  0.00    +0.322 C 
BRANCH  20  21
ATOM     21  C   UNL     1     -11.005  16.300  70.401  0.00  0.00    +0.087 C 
BRANCH  21  22
ATOM     22  C   UNL     1     -11.201  15.191  71.400  0.00  0.00    +0.030 C 
BRANCH  22  23
ATOM     23  C   UNL     1     -12.425  14.361  71.133  0.00  0.00    +0.126 C 
BRANCH  23  24
ATOM     24  S   UNL     1     -13.694  14.612  72.343  0.00  0.00    -0.107 S 
ATOM     25  O   UNL     1     -12.972  15.147  73.767  0.00  0.00    -0.291 OA
ATOM     26  O   UNL     1     -14.479  13.363  72.597  0.00  0.00    -0.371 OA
ATOM     27  O   UNL     1     -14.646  15.655  71.816  0.00  0.00    -0.371 OA
ENDBRANCH  23  24
ENDBRANCH  22  23
ENDBRANCH  21  22
ENDBRANCH  20  21
ENDBRANCH   8  20
ENDBRANCH   3   7
ENDBRANCH   1   4
BRANCH   2  28
ATOM     28  C   UNL     1     -12.125  11.066  69.736  0.00  0.00    +0.000 C 
ATOM     29  C   UNL     1     -11.723  10.234  70.697  0.00  0.00    +0.001 C 
BRANCH  29  30
ATOM     30  C   UNL     1     -10.408   9.616  70.484  0.00  0.00    +0.011 C 
ATOM     31  C   UNL     1     -10.314   8.287  70.496  0.00  0.00    +0.032 C 
ATOM     32  C   UNL     1     -10.982   7.462  71.532  0.00  0.00    +0.052 C 
ATOM     33  C   UNL     1     -10.536   7.861  72.933  0.00  0.00    +0.010 C 
ATOM     34  C   UNL     1     -12.481   7.464  71.406  0.00  0.00    +0.010 C 
ATOM     35  C   UNL     1     -10.456   6.102  71.215  0.00  0.00    -0.004 A 
ATOM     36  C   UNL     1      -9.876   6.102  69.953  0.00  0.00    +0.048 A 
ATOM     37  C   UNL     1      -9.799   4.922  69.247  0.00  0.00    +0.015 A 
ATOM     38  C   UNL     1      -9.583   3.745  69.956  0.00  0.00    +0.001 A 
ATOM     39  C   UNL     1      -9.890   3.750  71.298  0.00  0.00    -0.000 A 
ATOM     40  C   UNL     1      -9.919   2.520  71.937  0.00  0.00    -0.000 A 
ATOM     41  C   UNL     1     -10.592   2.403  73.145  0.00  0.00    -0.000 A 
ATOM     42  C   UNL     1     -10.911   3.591  73.788  0.00  0.00    -0.000 A 
ATOM     43  C   UNL     1     -10.790   4.823  73.183  0.00  0.00    -0.000 A 
ATOM     44  C   UNL     1     -10.514   4.865  71.844  0.00  0.00    -0.002 A 
ATOM     45  N   UNL     1      -9.510   7.455  69.653  0.00  0.00    -0.290 N 
BRANCH  45  46
ATOM     46  C   UNL     1      -8.677   7.899  68.542  0.00  0.00    +0.095 C 
BRANCH  46  47
ATOM     47  C   UNL     1      -7.520   8.686  69.096  0.00  0.00    +0.024 C 
BRANCH  47  48
ATOM     48  C   UNL     1      -6.938   7.875  70.240  0.00  0.00    +0.025 C 
BRANCH  48  49
ATOM     49  C   UNL     1      -6.628   8.784  71.397  0.00  0.00    +0.126 C 
BRANCH  49  50
ATOM     50  S   UNL     1      -6.563   7.887  72.934  0.00  0.00    -0.107 S 
ATOM     51  O   UNL     1      -7.340   6.402  72.783  0.00  0.00    -0.291 OA
ATOM     52  O   UNL     1      -5.134   7.675  73.313  0.00  0.00    -0.371 OA
ATOM     53  O   UNL     1      -7.256   8.745  73.966  0.00  0.00    -0.371 OA
ENDBRANCH  49  50
ENDBRANCH  48  49
ENDBRANCH  47  48
ENDBRANCH  46  47
ENDBRANCH  45  46
ENDBRANCH  29  30
ENDBRANCH   2  28
TORSDOF 14
ENDMDL
MODEL 7
REMARK VINA RESULT:      -8.0      1.808      1.983
REMARK  Name = 
REMARK  14 active torsions:
REMARK  status: ('A' for Active; 'I' for Inactive)
REMARK    1  A    between atoms: N_14  and  C_15
REMARK    2  A    between atoms: C_15  and  C_16
REMARK    3  A    between atoms: C_16  and  C_17
REMARK    4  A    between atoms: C_17  and  C_18
REMARK    5  A    between atoms: C_18  and  S_19
REMARK    6  A    between atoms: C_23  and  C_24
REMARK    7  A    between atoms: C_25  and  C_26
REMARK    8  A    between atoms: C_27  and  C_28
REMARK    9  A    between atoms: C_29  and  C_30
REMARK   10  A    between atoms: N_32  and  C_33
REMARK   11  A    between atoms: C_33  and  C_34
REMARK   12  A    between atoms: C_34  and  C_35
REMARK   13  A    between atoms: C_35  and  C_36
REMARK   14  A    between atoms: C_36  and  S_37
REMARK                            x       y       z     vdW  Elec       q    Type
REMARK                         _______ _______ _______ _____ _____    ______ ____
ROOT
ATOM      1  C   UNL     1     -10.992  11.467  67.787  0.00  0.00    +0.000 C 
ATOM      2  C   UNL     1     -11.748  10.734  68.573  0.00  0.00    +0.000 C 
ENDROOT
BRANCH   1   4
ATOM      3  C   UNL     1     -11.297  13.836  67.405  0.00  0.00    +0.065 C 
ATOM      4  C   UNL     1     -10.795  12.859  68.134  0.00  0.00    +0.006 C 
BRANCH   3   7
ATOM      5  C   UNL     1      -8.154  14.744  66.962  0.00  0.00    +0.015 C 
ATOM      6  C   UNL     1      -9.429  15.434  66.540  0.00  0.00    +0.102 C 
ATOM      7  C   UNL     1     -10.572  15.113  67.417  0.00  0.00    +0.206 C 
ATOM      8  N   UNL     1     -11.044  16.177  67.982  0.00  0.00    -0.173 N 
ATOM      9  C   UNL     1     -10.491  17.303  67.294  0.00  0.00    +0.222 A 
ATOM     10  C   UNL     1     -10.740  18.662  67.413  0.00  0.00    +0.069 A 
ATOM     11  C   UNL     1      -9.714  19.545  67.103  0.00  0.00    +0.006 A 
ATOM     12  C   UNL     1      -8.425  19.096  66.847  0.00  0.00    +0.000 A 
ATOM     13  C   UNL     1      -8.276  17.785  66.415  0.00  0.00    +0.002 A 
ATOM     14  C   UNL     1      -6.973  17.334  66.240  0.00  0.00    -0.000 A 
ATOM     15  C   UNL     1      -5.887  17.986  66.811  0.00  0.00    -0.000 A 
ATOM     16  C   UNL     1      -6.078  19.219  67.421  0.00  0.00    -0.000 A 
ATOM     17  C   UNL     1      -7.306  19.834  67.212  0.00  0.00    -0.000 A 
ATOM     18  C   UNL     1      -9.328  16.915  66.642  0.00  0.00    +0.050 A 
ATOM     19  C   UNL     1      -9.673  15.100  65.096  0.00  0.00    +0.015 C 
BRANCH   8  20
ATOM     20  C   UNL     1     -11.865  16.173  69.189  0.00  0.00    +0.322 C 
BRANCH  20  21
ATOM     21  C   UNL     1     -10.975  16.135  70.417  0.00  0.00    +0.087 C 
BRANCH  21  22
ATOM     22  C   UNL     1     -11.412  15.093  71.411  0.00  0.00    +0.030 C 
BRANCH  22  23
ATOM     23  C   UNL     1     -12.671  14.378  71.008  0.00  0.00    +0.126 C 
BRANCH  23  24
ATOM     24  S   UNL     1     -14.015  14.687  72.119  0.00  0.00    -0.107 S 
ATOM     25  O   UNL     1     -13.447  15.640  73.386  0.00  0.00    -0.291 OA
ATOM     26  O   UNL     1     -14.607  13.419  72.648  0.00  0.00    -0.371 OA
ATOM     27  O   UNL     1     -15.093  15.418  71.360  0.00  0.00    -0.371 OA
ENDBRANCH  23  24
ENDBRANCH  22  23
ENDBRANCH  21  22
ENDBRANCH  20  21
ENDBRANCH   8  20
ENDBRANCH   3   7
ENDBRANCH   1   4
BRANCH   2  28
ATOM     28  C   UNL     1     -12.006  11.062  69.973  0.00  0.00    +0.000 C 
ATOM     29  C   UNL     1     -11.548  10.198  70.880  0.00  0.00    +0.001 C 
BRANCH  29  30
ATOM     30  C   UNL     1     -10.296   9.517  70.522  0.00  0.00    +0.011 C 
ATOM     31  C   UNL     1     -10.251   8.187  70.580  0.00  0.00    +0.032 C 
ATOM     32  C   UNL     1     -10.804   7.432  71.731  0.00  0.00    +0.052 C 
ATOM     33  C   UNL     1     -10.160   7.865  73.041  0.00  0.00    +0.010 C 
ATOM     34  C   UNL     1     -12.305   7.491  71.803  0.00  0.00    +0.010 C 
ATOM     35  C   UNL     1     -10.375   6.039  71.407  0.00  0.00    -0.004 A 
ATOM     36  C   UNL     1      -9.970   5.966  70.081  0.00  0.00    +0.048 A 
ATOM     37  C   UNL     1     -10.031   4.757  69.423  0.00  0.00    +0.015 A 
ATOM     38  C   UNL     1      -9.766   3.601  70.148  0.00  0.00    +0.001 A 
ATOM     39  C   UNL     1      -9.890   3.671  71.517  0.00  0.00    -0.000 A 
ATOM     40  C   UNL     1      -9.879   2.468  72.208  0.00  0.00    -0.000 A 
ATOM     41  C   UNL     1     -10.388   2.426  73.498  0.00  0.00    -0.000 A 
ATOM     42  C   UNL     1     -10.574   3.651  74.125  0.00  0.00    -0.000 A 
ATOM     43  C   UNL     1     -10.490   4.852  73.456  0.00  0.00    -0.000 A 
ATOM     44  C   UNL     1     -10.395   4.830  72.091  0.00  0.00    -0.002 A 
ATOM     45  N   UNL     1      -9.597   7.289  69.675  0.00  0.00    -0.290 N 
BRANCH  45  46
ATOM     46  C   UNL     1      -8.905   7.654  68.446  0.00  0.00    +0.095 C 
BRANCH  46  47
ATOM     47  C   UNL     1      -7.494   7.135  68.518  0.00  0.00    +0.024 C 
BRANCH  47  48
ATOM     48  C   UNL     1      -7.302   6.202  67.335  0.00  0.00    +0.025 C 
BRANCH  48  49
ATOM     49  C   UNL     1      -8.457   6.347  66.384  0.00  0.00    +0.126 C 
BRANCH  49  50
ATOM     50  S   UNL     1      -8.934   4.778  65.692  0.00  0.00    -0.107 S 
ATOM     51  O   UNL     1      -8.190   3.517  66.521  0.00  0.00    -0.291 OA
ATOM     52  O   UNL     1     -10.418   4.637  65.783  0.00  0.00    -0.371 OA
ATOM     53  O   UNL     1      -8.499   4.791  64.246  0.00  0.00    -0.371 OA
ENDBRANCH  49  50
ENDBRANCH  48  49
ENDBRANCH  47  48
ENDBRANCH  46  47
ENDBRANCH  45  46
ENDBRANCH  29  30
ENDBRANCH   2  28
TORSDOF 14
ENDMDL
MODEL 8
REMARK VINA RESULT:      -8.0      2.299      5.671
REMARK  Name = 
REMARK  14 active torsions:
REMARK  status: ('A' for Active; 'I' for Inactive)
REMARK    1  A    between atoms: N_14  and  C_15
REMARK    2  A    between atoms: C_15  and  C_16
REMARK    3  A    between atoms: C_16  and  C_17
REMARK    4  A    between atoms: C_17  and  C_18
REMARK    5  A    between atoms: C_18  and  S_19
REMARK    6  A    between atoms: C_23  and  C_24
REMARK    7  A    between atoms: C_25  and  C_26
REMARK    8  A    between atoms: C_27  and  C_28
REMARK    9  A    between atoms: C_29  and  C_30
REMARK   10  A    between atoms: N_32  and  C_33
REMARK   11  A    between atoms: C_33  and  C_34
REMARK   12  A    between atoms: C_34  and  C_35
REMARK   13  A    between atoms: C_35  and  C_36
REMARK   14  A    between atoms: C_36  and  S_37
REMARK                            x       y       z     vdW  Elec       q    Type
REMARK                         _______ _______ _______ _____ _____    ______ ____
ROOT
ATOM      1  C   UNL     1     -11.208  14.982  67.634  0.00  0.00    +0.000 C 
ATOM      2  C   UNL     1     -11.422  13.720  67.340  0.00  0.00    +0.000 C 
ENDROOT
BRANCH   1   4
ATOM      3  C   UNL     1      -9.492  16.193  68.834  0.00  0.00    +0.065 C 
ATOM      4  C   UNL     1      -9.840  15.417  67.826  0.00  0.00    +0.006 C 
BRANCH   3   7
ATOM      5  C   UNL     1      -8.679  18.500  66.615  0.00  0.00    +0.015 C 
ATOM      6  C   UNL     1      -8.414  18.450  68.101  0.00  0.00    +0.102 C 
ATOM      7  C   UNL     1      -8.334  17.072  68.624  0.00  0.00    +0.206 C 
ATOM      8  N   UNL     1      -7.175  16.835  69.147  0.00  0.00    -0.173 N 
ATOM      9  C   UNL     1      -6.520  18.096  69.316  0.00  0.00    +0.222 A 
ATOM     10  C   UNL     1      -5.319  18.431  69.924  0.00  0.00    +0.069 A 
ATOM     11  C   UNL     1      -4.639  19.549  69.458  0.00  0.00    +0.006 A 
ATOM     12  C   UNL     1      -5.046  20.216  68.310  0.00  0.00    +0.000 A 
ATOM     13  C   UNL     1      -6.375  20.088  67.929  0.00  0.00    +0.002 A 
ATOM     14  C   UNL     1      -6.740  20.701  66.736  0.00  0.00    -0.000 A 
ATOM     15  C   UNL     1      -5.799  21.087  65.790  0.00  0.00    -0.000 A 
ATOM     16  C   UNL     1      -4.449  21.028  66.111  0.00  0.00    -0.000 A 
ATOM     17  C   UNL     1      -4.134  20.810  67.446  0.00  0.00    -0.000 A 
ATOM     18  C   UNL     1      -7.089  19.026  68.456  0.00  0.00    +0.050 A 
ATOM     19  C   UNL     1      -9.462  19.285  68.781  0.00  0.00    +0.015 C 
BRANCH   8  20
ATOM     20  C   UNL     1      -6.627  15.500  69.365  0.00  0.00    +0.322 C 
BRANCH  20  21
ATOM     21  C   UNL     1      -6.110  14.936  68.055  0.00  0.00    +0.087 C 
BRANCH  21  22
ATOM     22  C   UNL     1      -5.736  13.482  68.163  0.00  0.00    +0.030 C 
BRANCH  22  23
ATOM     23  C   UNL     1      -6.599  12.717  69.127  0.00  0.00    +0.126 C 
BRANCH  23  24
ATOM     24  S   UNL     1      -5.663  11.959  70.425  0.00  0.00    -0.107 S 
ATOM     25  O   UNL     1      -4.098  11.690  69.864  0.00  0.00    -0.291 OA
ATOM     26  O   UNL     1      -6.278  10.673  70.881  0.00  0.00    -0.371 OA
ATOM     27  O   UNL     1      -5.642  12.902  71.601  0.00  0.00    -0.371 OA
ENDBRANCH  23  24
ENDBRANCH  22  23
ENDBRANCH  21  22
ENDBRANCH  20  21
ENDBRANCH   8  20
ENDBRANCH   3   7
ENDBRANCH   1   4
BRANCH   2  28
ATOM     28  C   UNL     1     -10.411  12.854  66.738  0.00  0.00    +0.000 C 
ATOM     29  C   UNL     1     -10.214  11.673  67.326  0.00  0.00    +0.001 C 
BRANCH  29  30
ATOM     30  C   UNL     1     -11.406  11.068  67.934  0.00  0.00    +0.011 C 
ATOM     31  C   UNL     1     -11.244  10.130  68.866  0.00  0.00    +0.032 C 
ATOM     32  C   UNL     1     -10.269   9.023  68.706  0.00  0.00    +0.052 C 
ATOM     33  C   UNL     1     -10.543   8.221  67.440  0.00  0.00    +0.010 C 
ATOM     34  C   UNL     1      -8.840   9.488  68.771  0.00  0.00    +0.010 C 
ATOM     35  C   UNL     1     -10.575   8.181  69.900  0.00  0.00    -0.004 A 
ATOM     36  C   UNL     1     -11.347   8.903  70.801  0.00  0.00    +0.048 A 
ATOM     37  C   UNL     1     -11.317   8.563  72.136  0.00  0.00    +0.015 A 
ATOM     38  C   UNL     1     -11.186   7.220  72.470  0.00  0.00    +0.001 A 
ATOM     39  C   UNL     1     -10.666   6.379  71.512  0.00  0.00    -0.000 A 
ATOM     40  C   UNL     1     -10.299   5.108  71.929  0.00  0.00    -0.000 A 
ATOM     41  C   UNL     1      -9.424   4.367  71.147  0.00  0.00    -0.000 A 
ATOM     42  C   UNL     1      -9.232   4.816  69.847  0.00  0.00    -0.000 A 
ATOM     43  C   UNL     1      -9.682   6.041  69.406  0.00  0.00    -0.000 A 
ATOM     44  C   UNL     1     -10.180   6.921  70.329  0.00  0.00    -0.002 A 
ATOM     45  N   UNL     1     -12.006   9.939  70.064  0.00  0.00    -0.290 N 
BRANCH  45  46
ATOM     46  C   UNL     1     -13.082  10.796  70.549  0.00  0.00    +0.095 C 
BRANCH  46  47
ATOM     47  C   UNL     1     -12.479  12.076  71.063  0.00  0.00    +0.024 C 
BRANCH  47  48
ATOM     48  C   UNL     1     -13.435  12.631  72.104  0.00  0.00    +0.025 C 
BRANCH  48  49
ATOM     49  C   UNL     1     -12.932  13.959  72.596  0.00  0.00    +0.126 C 
BRANCH  49  50
ATOM     50  S   UNL     1     -13.917  15.304  71.972  0.00  0.00    -0.107 S 
ATOM     51  O   UNL     1     -15.407  14.740  71.428  0.00  0.00    -0.291 OA
ATOM     52  O   UNL     1     -14.122  16.304  73.062  0.00  0.00    -0.371 OA
ATOM     53  O   UNL     1     -13.138  15.922  70.835  0.00  0.00    -0.371 OA
ENDBRANCH  49  50
ENDBRANCH  48  49
ENDBRANCH  47  48
ENDBRANCH  46  47
ENDBRANCH  45  46
ENDBRANCH  29  30
ENDBRANCH   2  28
TORSDOF 14
ENDMDL
MODEL 9
REMARK VINA RESULT:      -7.8      3.873      7.156
REMARK  Name = 
REMARK  14 active torsions:
REMARK  status: ('A' for Active; 'I' for Inactive)
REMARK    1  A    between atoms: N_14  and  C_15
REMARK    2  A    between atoms: C_15  and  C_16
REMARK    3  A    between atoms: C_16  and  C_17
REMARK    4  A    between atoms: C_17  and  C_18
REMARK    5  A    between atoms: C_18  and  S_19
REMARK    6  A    between atoms: C_23  and  C_24
REMARK    7  A    between atoms: C_25  and  C_26
REMARK    8  A    between atoms: C_27  and  C_28
REMARK    9  A    between atoms: C_29  and  C_30
REMARK   10  A    between atoms: N_32  and  C_33
REMARK   11  A    between atoms: C_33  and  C_34
REMARK   12  A    between atoms: C_34  and  C_35
REMARK   13  A    between atoms: C_35  and  C_36
REMARK   14  A    between atoms: C_36  and  S_37
REMARK                            x       y       z     vdW  Elec       q    Type
REMARK                         _______ _______ _______ _____ _____    ______ ____
ROOT
ATOM      1  C   UNL     1      -8.006  15.690  68.598  0.00  0.00    +0.000 C 
ATOM      2  C   UNL     1      -8.037  14.377  68.592  0.00  0.00    +0.000 C 
ENDROOT
BRANCH   1   4
ATOM      3  C   UNL     1      -6.438  17.525  68.432  0.00  0.00    +0.065 C 
ATOM      4  C   UNL     1      -6.858  16.349  68.008  0.00  0.00    +0.006 C 
BRANCH   3   7
ATOM      5  C   UNL     1      -7.099  18.559  65.367  0.00  0.00    +0.015 C 
ATOM      6  C   UNL     1      -6.436  19.287  66.512  0.00  0.00    +0.102 C 
ATOM      7  C   UNL     1      -5.752  18.376  67.451  0.00  0.00    +0.206 C 
ATOM      8  N   UNL     1      -4.486  18.632  67.514  0.00  0.00    -0.173 N 
ATOM      9  C   UNL     1      -4.279  19.907  66.900  0.00  0.00    +0.222 A 
ATOM     10  C   UNL     1      -3.146  20.700  66.792  0.00  0.00    +0.069 A 
ATOM     11  C   UNL     1      -3.041  21.547  65.696  0.00  0.00    +0.006 A 
ATOM     12  C   UNL     1      -3.948  21.488  64.647  0.00  0.00    +0.000 A 
ATOM     13  C   UNL     1      -5.205  20.961  64.913  0.00  0.00    +0.002 A 
ATOM     14  C   UNL     1      -6.069  20.840  63.831  0.00  0.00    -0.000 A 
ATOM     15  C   UNL     1      -5.613  20.873  62.519  0.00  0.00    -0.000 A 
ATOM     16  C   UNL     1      -4.290  21.214  62.268  0.00  0.00    -0.000 A 
ATOM     17  C   UNL     1      -3.567  21.734  63.334  0.00  0.00    -0.000 A 
ATOM     18  C   UNL     1      -5.342  20.184  66.051  0.00  0.00    +0.050 A 
ATOM     19  C   UNL     1      -7.477  20.149  67.168  0.00  0.00    +0.015 C 
BRANCH   8  20
ATOM     20  C   UNL     1      -3.479  17.691  67.997  0.00  0.00    +0.322 C 
BRANCH  20  21
ATOM     21  C   UNL     1      -2.431  18.430  68.807  0.00  0.00    +0.087 C 
BRANCH  21  22
ATOM     22  C   UNL     1      -2.894  18.732  70.207  0.00  0.00    +0.030 C 
BRANCH  22  23
ATOM     23  C   UNL     1      -3.014  20.204  70.489  0.00  0.00    +0.126 C 
BRANCH  23  24
ATOM     24  S   UNL     1      -4.543  20.624  71.277  0.00  0.00    -0.107 S 
ATOM     25  O   UNL     1      -4.287  21.978  72.244  0.00  0.00    -0.291 OA
ATOM     26  O   UNL     1      -5.078  19.493  72.098  0.00  0.00    -0.371 OA
ATOM     27  O   UNL     1      -5.555  20.932  70.203  0.00  0.00    -0.371 OA
ENDBRANCH  23  24
ENDBRANCH  22  23
ENDBRANCH  21  22
ENDBRANCH  20  21
ENDBRANCH   8  20
ENDBRANCH   3   7
ENDBRANCH   1   4
BRANCH   2  28
ATOM     28  C   UNL     1      -7.274  13.560  67.651  0.00  0.00    +0.000 C 
ATOM     29  C   UNL     1      -7.832  12.408  67.278  0.00  0.00    +0.001 C 
BRANCH  29  30
ATOM     30  C   UNL     1      -9.298  12.418  67.192  0.00  0.00    +0.011 C 
ATOM     31  C   UNL     1      -9.999  11.790  68.134  0.00  0.00    +0.032 C 
ATOM     32  C   UNL     1      -9.634  10.433  68.611  0.00  0.00    +0.052 C 
ATOM     33  C   UNL     1      -9.604   9.431  67.464  0.00  0.00    +0.010 C 
ATOM     34  C   UNL     1      -8.354  10.414  69.399  0.00  0.00    +0.010 C 
ATOM     35  C   UNL     1     -10.781  10.116  69.513  0.00  0.00    -0.004 A 
ATOM     36  C   UNL     1     -11.492  11.274  69.798  0.00  0.00    +0.048 A 
ATOM     37  C   UNL     1     -12.228  11.344  70.960  0.00  0.00    +0.015 A 
ATOM     38  C   UNL     1     -12.849  10.186  71.415  0.00  0.00    +0.001 A 
ATOM     39  C   UNL     1     -12.360   8.984  70.956  0.00  0.00    -0.000 A 
ATOM     40  C   UNL     1     -12.804   7.840  71.603  0.00  0.00    -0.000 A 
ATOM     41  C   UNL     1     -12.076   6.666  71.476  0.00  0.00    -0.000 A 
ATOM     42  C   UNL     1     -11.137   6.635  70.453  0.00  0.00    -0.000 A 
ATOM     43  C   UNL     1     -10.765   7.756  69.746  0.00  0.00    -0.000 A 
ATOM     44  C   UNL     1     -11.206   8.976  70.184  0.00  0.00    -0.002 A 
ATOM     45  N   UNL     1     -11.227  12.207  68.743  0.00  0.00    -0.290 N 
BRANCH  45  46
ATOM     46  C   UNL     1     -11.925  13.464  68.504  0.00  0.00    +0.095 C 
BRANCH  46  47
ATOM     47  C   UNL     1     -11.277  14.538  69.337  0.00  0.00    +0.024 C 
BRANCH  47  48
ATOM     48  C   UNL     1     -12.338  15.068  70.285  0.00  0.00    +0.025 C 
BRANCH  48  49
ATOM     49  C   UNL     1     -11.830  15.006  71.698  0.00  0.00    +0.126 C 
BRANCH  49  50
ATOM     50  S   UNL     1     -13.165  15.029  72.875  0.00  0.00    -0.107 S 
ATOM     51  O   UNL     1     -12.582  15.336  74.423  0.00  0.00    -0.291 OA
ATOM     52  O   UNL     1     -14.140  16.090  72.483  0.00  0.00    -0.371 OA
ATOM     53  O   UNL     1     -13.820  13.669  72.815  0.00  0.00    -0.371 OA
ENDBRANCH  49  50
ENDBRANCH  48  49
ENDBRANCH  47  48
ENDBRANCH  46  47
ENDBRANCH  45  46
ENDBRANCH  29  30
ENDBRANCH   2  28
TORSDOF 14
ENDMDL
