MODEL 1
REMARK VINA RESULT:      -8.3      0.000      0.000
REMARK  Name = 
REMARK  5 active torsions:
REMARK  status: ('A' for Active; 'I' for Inactive)
REMARK    1  A    between atoms: N_4  and  C_5
REMARK    2  A    between atoms: C_9  and  N_10
REMARK    3  A    between atoms: N_13  and  C_14
REMARK    4  A    between atoms: C_20  and  N_21
REMARK    5  A    between atoms: N_21  and  C_22
REMARK                            x       y       z     vdW  Elec       q    Type
REMARK                         _______ _______ _______ _____ _____    ______ ____
ROOT
ATOM      1  N   UNL     1     -10.892  11.387  67.583  0.00  0.00    -0.260 N 
ATOM      2  C   UNL     1     -11.295  12.508  68.212  0.00  0.00    +0.076 A 
ATOM      3  C   UNL     1     -11.397  13.731  67.592  0.00  0.00    +0.104 A 
ATOM      4  C   UNL     1     -11.641  14.911  68.283  0.00  0.00    +0.141 A 
ATOM      5  N   UNL     1     -11.799  14.780  69.622  0.00  0.00    -0.281 N 
ATOM      6  C   UNL     1     -12.082  13.569  70.153  0.00  0.00    +0.259 A 
ATOM      7  O   UNL     1     -12.742  13.462  71.229  0.00  0.00    -0.267 OA
ATOM      8  C   UNL     1     -12.001  15.927  70.493  0.00  0.00    +0.135 C 
ATOM      9  C   UNL     1     -10.982  13.813  66.276  0.00  0.00    +0.268 A 
ATOM     10  O   UNL     1     -10.784  14.904  65.682  0.00  0.00    -0.267 OA
ATOM     11  N   UNL     1     -10.922  12.639  65.604  0.00  0.00    -0.250 N 
ATOM     12  C   UNL     1     -11.798  12.400  69.489  0.00  0.00    +0.051 A 
ATOM     13  C   UNL     1     -11.733  11.085  70.161  0.00  0.00    +0.038 C 
ATOM     14  C   UNL     1     -10.706  11.465  66.244  0.00  0.00    +0.338 A 
ATOM     15  O   UNL     1     -10.005  10.564  65.693  0.00  0.00    -0.246 OA
ENDROOT
BRANCH   1  18
ATOM     16  C   UNL     1      -9.944   7.977  68.562  0.00  0.00    +0.075 A 
ATOM     17  C   UNL     1     -10.642   9.082  68.090  0.00  0.00    +0.034 A 
ATOM     18  C   UNL     1     -10.223  10.384  68.362  0.00  0.00    +0.069 A 
ATOM     19  C   UNL     1      -8.836  10.513  68.377  0.00  0.00    +0.018 A 
ATOM     20  C   UNL     1      -8.004   9.412  68.540  0.00  0.00    +0.003 A 
ATOM     21  C   UNL     1      -8.567   8.146  68.647  0.00  0.00    +0.017 A 
BRANCH  16  24
ATOM     22  C   UNL     1     -12.239   6.663  71.224  0.00  0.00    +0.097 C 
ATOM     23  C   UNL     1     -10.924   7.074  70.657  0.00  0.00    +0.246 C 
ATOM     24  N   UNL     1     -10.591   6.919  69.281  0.00  0.00    -0.179 NA
ATOM     25  O   UNL     1     -10.333   8.017  71.264  0.00  0.00    -0.273 OA
ENDBRANCH  16  24
ENDBRANCH   1  18
BRANCH  11  26
ATOM     26  C   UNL     1     -11.045  12.617  64.163  0.00  0.00    +0.093 C 
ATOM     27  C   UNL     1     -12.254  11.875  63.596  0.00  0.00    +0.025 C 
ATOM     28  C   UNL     1     -12.148  13.369  63.500  0.00  0.00    +0.025 C 
ENDBRANCH  11  26
BRANCH   4  29
ATOM     29  N   UNL     1     -11.026  16.098  67.829  0.00  0.00    -0.193 NA
BRANCH  29  30
ATOM     30  C   UNL     1      -9.915  16.723  68.431  0.00  0.00    +0.099 A 
ATOM     31  C   UNL     1      -9.720  18.099  68.442  0.00  0.00    +0.156 A 
ATOM     32  F   UNL     1     -10.762  18.847  67.976  0.00  0.00    -0.203 F 
ATOM     33  C   UNL     1      -8.456  18.622  68.197  0.00  0.00    +0.037 A 
ATOM     34  C   UNL     1      -7.376  17.921  68.658  0.00  0.00    +0.032 A 
ATOM     35  I   UNL     1      -5.430  18.728  68.561  0.00  0.00    -0.042 I 
ATOM     36  C   UNL     1      -7.550  16.558  68.861  0.00  0.00    +0.007 A 
ATOM     37  C   UNL     1      -8.761  15.959  68.543  0.00  0.00    +0.019 A 
ENDBRANCH  29  30
ENDBRANCH   4  29
TORSDOF 5
ENDMDL
MODEL 2
REMARK VINA RESULT:      -7.5      3.201      8.024
REMARK  Name = 
REMARK  5 active torsions:
REMARK  status: ('A' for Active; 'I' for Inactive)
REMARK    1  A    between atoms: N_4  and  C_5
REMARK    2  A    between atoms: C_9  and  N_10
REMARK    3  A    between atoms: N_13  and  C_14
REMARK    4  A    between atoms: C_20  and  N_21
REMARK    5  A    between atoms: N_21  and  C_22
REMARK                            x       y       z     vdW  Elec       q    Type
REMARK                         _______ _______ _______ _____ _____    ______ ____
ROOT
ATOM      1  N   UNL     1     -11.064  14.925  68.972  0.00  0.00    -0.260 N 
ATOM      2  C   UNL     1     -11.209  13.725  68.378  0.00  0.00    +0.076 A 
ATOM      3  C   UNL     1     -11.710  12.616  69.019  0.00  0.00    +0.104 A 
ATOM      4  C   UNL     1     -11.693  11.345  68.459  0.00  0.00    +0.141 A 
ATOM      5  N   UNL     1     -11.168  11.266  67.212  0.00  0.00    -0.281 N 
ATOM      6  C   UNL     1     -11.046  12.382  66.458  0.00  0.00    +0.259 A 
ATOM      7  O   UNL     1     -11.087  12.328  65.194  0.00  0.00    -0.267 OA
ATOM      8  C   UNL     1     -11.024   9.999  66.513  0.00  0.00    +0.135 C 
ATOM      9  C   UNL     1     -11.996  12.736  70.367  0.00  0.00    +0.268 A 
ATOM     10  O   UNL     1     -12.212  11.751  71.117  0.00  0.00    -0.267 OA
ATOM     11  N   UNL     1     -12.164  14.001  70.821  0.00  0.00    -0.250 N 
ATOM     12  C   UNL     1     -11.017  13.637  67.017  0.00  0.00    +0.051 A 
ATOM     13  C   UNL     1     -10.515  14.828  66.301  0.00  0.00    +0.038 C 
ATOM     14  C   UNL     1     -11.560  15.056  70.225  0.00  0.00    +0.338 A 
ATOM     15  O   UNL     1     -11.137  16.023  70.927  0.00  0.00    -0.246 OA
ENDROOT
BRANCH   1  18
ATOM     16  C   UNL     1      -9.249  18.090  68.558  0.00  0.00    +0.075 A 
ATOM     17  C   UNL     1     -10.249  17.139  68.721  0.00  0.00    +0.034 A 
ATOM     18  C   UNL     1     -10.013  15.783  68.503  0.00  0.00    +0.069 A 
ATOM     19  C   UNL     1      -8.739  15.385  68.901  0.00  0.00    +0.018 A 
ATOM     20  C   UNL     1      -7.711  16.303  69.073  0.00  0.00    +0.003 A 
ATOM     21  C   UNL     1      -7.969  17.655  68.885  0.00  0.00    +0.017 A 
BRANCH  16  24
ATOM     22  C   UNL     1     -10.561  19.889  65.538  0.00  0.00    +0.097 C 
ATOM     23  C   UNL     1      -9.538  19.152  66.333  0.00  0.00    +0.246 C 
ATOM     24  N   UNL     1      -9.433  19.259  67.749  0.00  0.00    -0.179 NA
ATOM     25  O   UNL     1      -9.131  18.062  65.831  0.00  0.00    -0.273 OA
ENDBRANCH  16  24
ENDBRANCH   1  18
BRANCH  11  26
ATOM     26  C   UNL     1     -12.970  14.252  71.996  0.00  0.00    +0.093 C 
ATOM     27  C   UNL     1     -14.293  14.981  71.770  0.00  0.00    +0.025 C 
ATOM     28  C   UNL     1     -14.266  13.536  72.175  0.00  0.00    +0.025 C 
ENDBRANCH  11  26
BRANCH   4  29
ATOM     29  N   UNL     1     -11.486  10.236  69.306  0.00  0.00    -0.193 NA
BRANCH  29  30
ATOM     30  C   UNL     1     -10.279   9.520  69.434  0.00  0.00    +0.099 A 
ATOM     31  C   UNL     1     -10.207   8.211  69.895  0.00  0.00    +0.156 A 
ATOM     32  F   UNL     1     -11.404   7.579  70.068  0.00  0.00    -0.203 F 
ATOM     33  C   UNL     1      -9.207   7.845  70.788  0.00  0.00    +0.037 A 
ATOM     34  C   UNL     1      -7.981   8.436  70.648  0.00  0.00    +0.032 A 
ATOM     35  I   UNL     1      -6.324   7.789  71.783  0.00  0.00    -0.042 I 
ATOM     36  C   UNL     1      -7.945   9.672  70.016  0.00  0.00    +0.007 A 
ATOM     37  C   UNL     1      -9.127  10.276  69.609  0.00  0.00    +0.019 A 
ENDBRANCH  29  30
ENDBRANCH   4  29
TORSDOF 5
ENDMDL
MODEL 3
REMARK VINA RESULT:      -7.4      3.689      7.879
REMARK  Name = 
REMARK  5 active torsions:
REMARK  status: ('A' for Active; 'I' for Inactive)
REMARK    1  A    between atoms: N_4  and  C_5
REMARK    2  A    between atoms: C_9  and  N_10
REMARK    3  A    between atoms: N_13  and  C_14
REMARK    4  A    between atoms: C_20  and  N_21
REMARK    5  A    between atoms: N_21  and  C_22
REMARK                            x       y       z     vdW  Elec       q    Type
REMARK                         _______ _______ _______ _____ _____    ______ ____
ROOT
ATOM      1  N   UNL     1     -10.395  12.903  67.754  0.00  0.00    -0.260 N 
ATOM      2  C   UNL     1     -11.018  12.461  68.863  0.00  0.00    +0.076 A 
ATOM      3  C   UNL     1     -10.901  11.176  69.337  0.00  0.00    +0.104 A 
ATOM      4  C   UNL     1     -11.679  10.678  70.375  0.00  0.00    +0.141 A 
ATOM      5  N   UNL     1     -12.557  11.556  70.917  0.00  0.00    -0.281 N 
ATOM      6  C   UNL     1     -12.394  12.884  70.719  0.00  0.00    +0.259 A 
ATOM      7  O   UNL     1     -12.799  13.729  71.570  0.00  0.00    -0.267 OA
ATOM      8  C   UNL     1     -13.483  11.172  71.970  0.00  0.00    +0.135 C 
ATOM      9  C   UNL     1     -10.168  10.282  68.578  0.00  0.00    +0.268 A 
ATOM     10  O   UNL     1     -10.194   9.038  68.760  0.00  0.00    -0.267 OA
ATOM     11  N   UNL     1      -9.302  10.834  67.695  0.00  0.00    -0.250 N 
ATOM     12  C   UNL     1     -11.662  13.377  69.665  0.00  0.00    +0.051 A 
ATOM     13  C   UNL     1     -11.768  14.772  69.192  0.00  0.00    +0.038 C 
ATOM     14  C   UNL     1      -9.515  12.061  67.164  0.00  0.00    +0.338 A 
ATOM     15  O   UNL     1      -9.193  12.294  65.960  0.00  0.00    -0.246 OA
ENDROOT
BRANCH   1  18
ATOM     16  C   UNL     1     -10.568  15.674  65.350  0.00  0.00    +0.075 A 
ATOM     17  C   UNL     1     -10.134  14.770  66.312  0.00  0.00    +0.034 A 
ATOM     18  C   UNL     1     -11.026  13.953  67.004  0.00  0.00    +0.069 A 
ATOM     19  C   UNL     1     -12.089  13.521  66.213  0.00  0.00    +0.018 A 
ATOM     20  C   UNL     1     -12.435  14.177  65.039  0.00  0.00    +0.003 A 
ATOM     21  C   UNL     1     -11.678  15.264  64.620  0.00  0.00    +0.017 A 
BRANCH  16  24
ATOM     22  C   UNL     1      -9.239  18.741  67.054  0.00  0.00    +0.097 C 
ATOM     23  C   UNL     1     -10.305  17.819  66.571  0.00  0.00    +0.246 C 
ATOM     24  N   UNL     1     -10.185  17.055  65.375  0.00  0.00    -0.179 NA
ATOM     25  O   UNL     1     -11.056  17.328  67.465  0.00  0.00    -0.273 OA
ENDBRANCH  16  24
ENDBRANCH   1  18
BRANCH  11  26
ATOM     26  C   UNL     1      -8.137  10.095  67.259  0.00  0.00    +0.093 C 
ATOM     27  C   UNL     1      -6.783  10.629  67.722  0.00  0.00    +0.025 C 
ATOM     28  C   UNL     1      -7.326   9.334  68.252  0.00  0.00    +0.025 C 
ENDBRANCH  11  26
BRANCH   4  29
ATOM     29  N   UNL     1     -12.079   9.325  70.330  0.00  0.00    -0.193 NA
BRANCH  29  30
ATOM     30  C   UNL     1     -11.909   8.389  71.371  0.00  0.00    +0.099 A 
ATOM     31  C   UNL     1     -10.729   8.246  72.090  0.00  0.00    +0.156 A 
ATOM     32  F   UNL     1      -9.772   9.188  71.849  0.00  0.00    -0.203 F 
ATOM     33  C   UNL     1     -10.250   6.977  72.392  0.00  0.00    +0.037 A 
ATOM     34  C   UNL     1     -11.168   5.998  72.661  0.00  0.00    +0.032 A 
ATOM     35  I   UNL     1     -10.565   4.103  73.364  0.00  0.00    -0.042 I 
ATOM     36  C   UNL     1     -12.442   6.166  72.133  0.00  0.00    +0.007 A 
ATOM     37  C   UNL     1     -12.718   7.260  71.326  0.00  0.00    +0.019 A 
ENDBRANCH  29  30
ENDBRANCH   4  29
TORSDOF 5
ENDMDL
MODEL 4
REMARK VINA RESULT:      -7.4      1.746      2.079
REMARK  Name = 
REMARK  5 active torsions:
REMARK  status: ('A' for Active; 'I' for Inactive)
REMARK    1  A    between atoms: N_4  and  C_5
REMARK    2  A    between atoms: C_9  and  N_10
REMARK    3  A    between atoms: N_13  and  C_14
REMARK    4  A    between atoms: C_20  and  N_21
REMARK    5  A    between atoms: N_21  and  C_22
REMARK                            x       y       z     vdW  Elec       q    Type
REMARK                         _______ _______ _______ _____ _____    ______ ____
ROOT
ATOM      1  N   UNL     1     -10.989  12.612  67.626  0.00  0.00    -0.260 N 
ATOM      2  C   UNL     1     -10.985  13.947  67.804  0.00  0.00    +0.076 A 
ATOM      3  C   UNL     1     -10.806  14.847  66.781  0.00  0.00    +0.104 A 
ATOM      4  C   UNL     1     -10.627  16.209  66.993  0.00  0.00    +0.141 A 
ATOM      5  N   UNL     1     -10.665  16.606  68.288  0.00  0.00    -0.281 N 
ATOM      6  C   UNL     1     -11.218  15.802  69.225  0.00  0.00    +0.259 A 
ATOM      7  O   UNL     1     -11.756  16.281  70.266  0.00  0.00    -0.267 OA
ATOM      8  C   UNL     1     -10.436  17.987  68.681  0.00  0.00    +0.135 C 
ATOM      9  C   UNL     1     -10.535  14.337  65.524  0.00  0.00    +0.268 A 
ATOM     10  O   UNL     1     -10.105  15.038  64.573  0.00  0.00    -0.267 OA
ATOM     11  N   UNL     1     -10.885  13.044  65.327  0.00  0.00    -0.250 N 
ATOM     12  C   UNL     1     -11.352  14.447  69.033  0.00  0.00    +0.051 A 
ATOM     13  C   UNL     1     -11.586  13.495  70.138  0.00  0.00    +0.038 C 
ATOM     14  C   UNL     1     -10.940  12.159  66.351  0.00  0.00    +0.338 A 
ATOM     15  O   UNL     1     -10.589  10.955  66.166  0.00  0.00    -0.246 OA
ENDROOT
BRANCH   1  18
ATOM     16  C   UNL     1     -10.918   9.626  69.763  0.00  0.00    +0.075 A 
ATOM     17  C   UNL     1     -11.330  10.653  68.922  0.00  0.00    +0.034 A 
ATOM     18  C   UNL     1     -10.547  11.788  68.717  0.00  0.00    +0.069 A 
ATOM     19  C   UNL     1      -9.183  11.509  68.696  0.00  0.00    +0.018 A 
ATOM     20  C   UNL     1      -8.671  10.341  69.247  0.00  0.00    +0.003 A 
ATOM     21  C   UNL     1      -9.545   9.408  69.793  0.00  0.00    +0.017 A 
BRANCH  16  24
ATOM     22  C   UNL     1     -11.828   7.092  72.376  0.00  0.00    +0.097 C 
ATOM     23  C   UNL     1     -11.872   7.710  71.021  0.00  0.00    +0.246 C 
ATOM     24  N   UNL     1     -11.757   9.113  70.806  0.00  0.00    -0.179 NA
ATOM     25  O   UNL     1     -11.485   6.973  70.066  0.00  0.00    -0.273 OA
ENDBRANCH  16  24
ENDBRANCH   1  18
BRANCH  11  26
ATOM     26  C   UNL     1     -11.170  12.562  63.994  0.00  0.00    +0.093 C 
ATOM     27  C   UNL     1     -12.528  11.894  63.789  0.00  0.00    +0.025 C 
ATOM     28  C   UNL     1     -12.221  13.227  63.172  0.00  0.00    +0.025 C 
ENDBRANCH  11  26
BRANCH   4  29
ATOM     29  N   UNL     1      -9.758  16.918  66.137  0.00  0.00    -0.193 NA
BRANCH  29  30
ATOM     30  C   UNL     1      -8.482  17.403  66.490  0.00  0.00    +0.099 A 
ATOM     31  C   UNL     1      -8.071  18.713  66.274  0.00  0.00    +0.156 A 
ATOM     32  F   UNL     1      -9.041  19.572  65.845  0.00  0.00    -0.203 F 
ATOM     33  C   UNL     1      -6.794  18.969  65.791  0.00  0.00    +0.037 A 
ATOM     34  C   UNL     1      -5.781  18.147  66.204  0.00  0.00    +0.032 A 
ATOM     35  I   UNL     1      -3.769  18.577  65.734  0.00  0.00    -0.042 I 
ATOM     36  C   UNL     1      -6.135  16.871  66.625  0.00  0.00    +0.007 A 
ATOM     37  C   UNL     1      -7.460  16.464  66.559  0.00  0.00    +0.019 A 
ENDBRANCH  29  30
ENDBRANCH   4  29
TORSDOF 5
ENDMDL
MODEL 5
REMARK VINA RESULT:      -7.4      3.854      7.917
REMARK  Name = 
REMARK  5 active torsions:
REMARK  status: ('A' for Active; 'I' for Inactive)
REMARK    1  A    between atoms: N_4  and  C_5
REMARK    2  A    between atoms: C_9  and  N_10
REMARK    3  A    between atoms: N_13  and  C_14
REMARK    4  A    between atoms: C_20  and  N_21
REMARK    5  A    between atoms: N_21  and  C_22
REMARK                            x       y       z     vdW  Elec       q    Type
REMARK                         _______ _______ _______ _____ _____    ______ ____
ROOT
ATOM      1  N   UNL     1     -10.272  12.627  67.635  0.00  0.00    -0.260 N 
ATOM      2  C   UNL     1     -10.837  12.106  68.741  0.00  0.00    +0.076 A 
ATOM      3  C   UNL     1     -10.552  10.848  69.218  0.00  0.00    +0.104 A 
ATOM      4  C   UNL     1     -11.264  10.251  70.252  0.00  0.00    +0.141 A 
ATOM      5  N   UNL     1     -12.254  11.005  70.788  0.00  0.00    -0.281 N 
ATOM      6  C   UNL     1     -12.268  12.343  70.588  0.00  0.00    +0.259 A 
ATOM      7  O   UNL     1     -12.787  13.127  71.436  0.00  0.00    -0.267 OA
ATOM      8  C   UNL     1     -13.128  10.503  71.835  0.00  0.00    +0.135 C 
ATOM      9  C   UNL     1      -9.702  10.059  68.465  0.00  0.00    +0.268 A 
ATOM     10  O   UNL     1      -9.565   8.823  68.648  0.00  0.00    -0.267 OA
ATOM     11  N   UNL     1      -8.913  10.721  67.585  0.00  0.00    -0.250 N 
ATOM     12  C   UNL     1     -11.602  12.928  69.538  0.00  0.00    +0.051 A 
ATOM     13  C   UNL     1     -11.890  14.297  69.062  0.00  0.00    +0.038 C 
ATOM     14  C   UNL     1      -9.284  11.908  67.051  0.00  0.00    +0.338 A 
ATOM     15  O   UNL     1      -8.988  12.181  65.849  0.00  0.00    -0.246 OA
ENDROOT
BRANCH   1  18
ATOM     16  C   UNL     1     -10.817  15.258  65.132  0.00  0.00    +0.075 A 
ATOM     17  C   UNL     1     -10.254  14.440  66.105  0.00  0.00    +0.034 A 
ATOM     18  C   UNL     1     -11.032  13.582  66.880  0.00  0.00    +0.069 A 
ATOM     19  C   UNL     1     -12.093  13.024  66.170  0.00  0.00    +0.018 A 
ATOM     20  C   UNL     1     -12.558  13.594  64.991  0.00  0.00    +0.003 A 
ATOM     21  C   UNL     1     -11.924  14.721  64.484  0.00  0.00    +0.017 A 
BRANCH  16  24
ATOM     22  C   UNL     1      -9.289  18.425  66.443  0.00  0.00    +0.097 C 
ATOM     23  C   UNL     1     -10.374  17.417  66.276  0.00  0.00    +0.246 C 
ATOM     24  N   UNL     1     -10.557  16.667  65.079  0.00  0.00    -0.179 NA
ATOM     25  O   UNL     1     -10.779  16.863  67.341  0.00  0.00    -0.273 OA
ENDBRANCH  16  24
ENDBRANCH   1  18
BRANCH  11  26
ATOM     26  C   UNL     1      -7.657  10.144  67.158  0.00  0.00    +0.093 C 
ATOM     27  C   UNL     1      -6.394  10.926  67.514  0.00  0.00    +0.025 C 
ATOM     28  C   UNL     1      -6.701   9.612  68.170  0.00  0.00    +0.025 C 
ENDBRANCH  11  26
BRANCH   4  29
ATOM     29  N   UNL     1     -11.480   8.858  70.207  0.00  0.00    -0.193 NA
BRANCH  29  30
ATOM     30  C   UNL     1     -10.782   7.898  70.968  0.00  0.00    +0.099 A 
ATOM     31  C   UNL     1     -11.087   6.542  70.962  0.00  0.00    +0.156 A 
ATOM     32  F   UNL     1     -12.011   6.149  70.038  0.00  0.00    -0.203 F 
ATOM     33  C   UNL     1     -11.099   5.830  72.155  0.00  0.00    +0.037 A 
ATOM     34  C   UNL     1     -10.181   6.172  73.110  0.00  0.00    +0.032 A 
ATOM     35  I   UNL     1      -9.942   5.013  74.856  0.00  0.00    -0.042 I 
ATOM     36  C   UNL     1      -9.676   7.465  73.065  0.00  0.00    +0.007 A 
ATOM     37  C   UNL     1     -10.148   8.360  72.115  0.00  0.00    +0.019 A 
ENDBRANCH  29  30
ENDBRANCH   4  29
TORSDOF 5
ENDMDL
MODEL 6
REMARK VINA RESULT:      -7.2      3.778      8.082
REMARK  Name = 
REMARK  5 active torsions:
REMARK  status: ('A' for Active; 'I' for Inactive)
REMARK    1  A    between atoms: N_4  and  C_5
REMARK    2  A    between atoms: C_9  and  N_10
REMARK    3  A    between atoms: N_13  and  C_14
REMARK    4  A    between atoms: C_20  and  N_21
REMARK    5  A    between atoms: N_21  and  C_22
REMARK                            x       y       z     vdW  Elec       q    Type
REMARK                         _______ _______ _______ _____ _____    ______ ____
ROOT
ATOM      1  N   UNL     1      -9.512  14.531  66.641  0.00  0.00    -0.260 N 
ATOM      2  C   UNL     1      -9.064  13.407  67.232  0.00  0.00    +0.076 A 
ATOM      3  C   UNL     1      -9.809  12.256  67.334  0.00  0.00    +0.104 A 
ATOM      4  C   UNL     1      -9.413  11.163  68.095  0.00  0.00    +0.141 A 
ATOM      5  N   UNL     1      -8.218  11.292  68.722  0.00  0.00    -0.281 N 
ATOM      6  C   UNL     1      -7.339  12.236  68.312  0.00  0.00    +0.259 A 
ATOM      7  O   UNL     1      -6.091  12.076  68.454  0.00  0.00    -0.267 OA
ATOM      8  C   UNL     1      -7.691  10.263  69.603  0.00  0.00    +0.135 C 
ATOM      9  C   UNL     1     -11.112  12.297  66.873  0.00  0.00    +0.268 A 
ATOM     10  O   UNL     1     -11.965  11.412  67.135  0.00  0.00    -0.267 OA
ATOM     11  N   UNL     1     -11.395  13.295  66.002  0.00  0.00    -0.250 N 
ATOM     12  C   UNL     1      -7.739  13.340  67.599  0.00  0.00    +0.051 A 
ATOM     13  C   UNL     1      -6.910  14.556  67.463  0.00  0.00    +0.038 C 
ATOM     14  C   UNL     1     -10.708  14.462  66.010  0.00  0.00    +0.338 A 
ATOM     15  O   UNL     1     -11.308  15.551  65.764  0.00  0.00    -0.246 OA
ENDROOT
BRANCH   1  18
ATOM     16  C   UNL     1      -8.595  18.080  66.417  0.00  0.00    +0.075 A 
ATOM     17  C   UNL     1      -8.841  16.746  66.115  0.00  0.00    +0.034 A 
ATOM     18  C   UNL     1      -9.001  15.787  67.114  0.00  0.00    +0.069 A 
ATOM     19  C   UNL     1      -9.665  16.280  68.236  0.00  0.00    +0.018 A 
ATOM     20  C   UNL     1      -9.751  17.643  68.490  0.00  0.00    +0.003 A 
ATOM     21  C   UNL     1      -9.200  18.539  67.582  0.00  0.00    +0.017 A 
BRANCH  16  24
ATOM     22  C   UNL     1      -5.022  18.432  65.328  0.00  0.00    +0.097 C 
ATOM     23  C   UNL     1      -6.167  18.580  66.269  0.00  0.00    +0.246 C 
ATOM     24  N   UNL     1      -7.504  18.804  65.832  0.00  0.00    -0.179 NA
ATOM     25  O   UNL     1      -6.043  17.992  67.384  0.00  0.00    -0.273 OA
ENDBRANCH  16  24
ENDBRANCH   1  18
BRANCH  11  26
ATOM     26  C   UNL     1     -12.480  13.150  65.057  0.00  0.00    +0.093 C 
ATOM     27  C   UNL     1     -12.123  13.310  63.581  0.00  0.00    +0.025 C 
ATOM     28  C   UNL     1     -12.517  11.974  64.141  0.00  0.00    +0.025 C 
ENDBRANCH  11  26
BRANCH   4  29
ATOM     29  N   UNL     1     -10.402  10.411  68.764  0.00  0.00    -0.193 NA
BRANCH  29  30
ATOM     30  C   UNL     1     -10.619   9.027  68.608  0.00  0.00    +0.099 A 
ATOM     31  C   UNL     1     -10.627   8.126  69.667  0.00  0.00    +0.156 A 
ATOM     32  F   UNL     1     -10.577   8.680  70.913  0.00  0.00    -0.203 F 
ATOM     33  C   UNL     1      -9.992   6.897  69.536  0.00  0.00    +0.037 A 
ATOM     34  C   UNL     1     -10.028   6.290  68.311  0.00  0.00    +0.032 A 
ATOM     35  I   UNL     1      -9.313   4.322  68.049  0.00  0.00    -0.042 I 
ATOM     36  C   UNL     1     -10.214   7.110  67.205  0.00  0.00    +0.007 A 
ATOM     37  C   UNL     1     -10.298   8.485  67.370  0.00  0.00    +0.019 A 
ENDBRANCH  29  30
ENDBRANCH   4  29
TORSDOF 5
ENDMDL
MODEL 7
REMARK VINA RESULT:      -6.8      3.687      7.818
REMARK  Name = 
REMARK  5 active torsions:
REMARK  status: ('A' for Active; 'I' for Inactive)
REMARK    1  A    between atoms: N_4  and  C_5
REMARK    2  A    between atoms: C_9  and  N_10
REMARK    3  A    between atoms: N_13  and  C_14
REMARK    4  A    between atoms: C_20  and  N_21
REMARK    5  A    between atoms: N_21  and  C_22
REMARK                            x       y       z     vdW  Elec       q    Type
REMARK                         _______ _______ _______ _____ _____    ______ ____
ROOT
ATOM      1  N   UNL     1      -9.186  14.412  66.339  0.00  0.00    -0.260 N 
ATOM      2  C   UNL     1      -8.538  13.440  67.011  0.00  0.00    +0.076 A 
ATOM      3  C   UNL     1      -8.848  12.105  66.899  0.00  0.00    +0.104 A 
ATOM      4  C   UNL     1      -8.298  11.130  67.722  0.00  0.00    +0.141 A 
ATOM      5  N   UNL     1      -7.406  11.576  68.639  0.00  0.00    -0.281 N 
ATOM      6  C   UNL     1      -6.830  12.790  68.485  0.00  0.00    +0.259 A 
ATOM      7  O   UNL     1      -5.675  13.031  68.944  0.00  0.00    -0.267 OA
ATOM      8  C   UNL     1      -6.788  10.690  69.612  0.00  0.00    +0.135 C 
ATOM      9  C   UNL     1      -9.937  11.768  66.117  0.00  0.00    +0.268 A 
ATOM     10  O   UNL     1     -10.474  10.631  66.135  0.00  0.00    -0.267 OA
ATOM     11  N   UNL     1     -10.324  12.702  65.215  0.00  0.00    -0.250 N 
ATOM     12  C   UNL     1      -7.398  13.771  67.708  0.00  0.00    +0.051 A 
ATOM     13  C   UNL     1      -7.026  15.197  67.809  0.00  0.00    +0.038 C 
ATOM     14  C   UNL     1     -10.099  14.021  65.418  0.00  0.00    +0.338 A 
ATOM     15  O   UNL     1     -10.956  14.875  65.040  0.00  0.00    -0.246 OA
ENDROOT
BRANCH   1  18
ATOM     16  C   UNL     1      -9.589  18.061  66.418  0.00  0.00    +0.075 A 
ATOM     17  C   UNL     1      -9.276  16.763  66.032  0.00  0.00    +0.034 A 
ATOM     18  C   UNL     1      -9.262  15.711  66.946  0.00  0.00    +0.069 A 
ATOM     19  C   UNL     1     -10.256  15.823  67.916  0.00  0.00    +0.018 A 
ATOM     20  C   UNL     1     -10.875  17.038  68.186  0.00  0.00    +0.003 A 
ATOM     21  C   UNL     1     -10.525  18.158  67.441  0.00  0.00    +0.017 A 
BRANCH  16  24
ATOM     22  C   UNL     1      -6.254  19.762  66.170  0.00  0.00    +0.097 C 
ATOM     23  C   UNL     1      -7.543  19.407  66.827  0.00  0.00    +0.246 C 
ATOM     24  N   UNL     1      -8.745  19.175  66.099  0.00  0.00    -0.179 NA
ATOM     25  O   UNL     1      -7.448  18.808  67.939  0.00  0.00    -0.273 OA
ENDBRANCH  16  24
ENDBRANCH   1  18
BRANCH  11  26
ATOM     26  C   UNL     1     -11.036  12.308  64.020  0.00  0.00    +0.093 C 
ATOM     27  C   UNL     1     -12.532  12.046  64.174  0.00  0.00    +0.025 C 
ATOM     28  C   UNL     1     -12.031  13.234  63.408  0.00  0.00    +0.025 C 
ENDBRANCH  11  26
BRANCH   4  29
ATOM     29  N   UNL     1      -9.103  10.034  68.100  0.00  0.00    -0.193 NA
BRANCH  29  30
ATOM     30  C   UNL     1      -9.821   9.927  69.309  0.00  0.00    +0.099 A 
ATOM     31  C   UNL     1      -9.868   8.769  70.075  0.00  0.00    +0.156 A 
ATOM     32  F   UNL     1      -9.032   7.765  69.680  0.00  0.00    -0.203 F 
ATOM     33  C   UNL     1     -11.071   8.356  70.634  0.00  0.00    +0.037 A 
ATOM     34  C   UNL     1     -11.939   9.322  71.064  0.00  0.00    +0.032 A 
ATOM     35  I   UNL     1     -13.681   8.821  72.143  0.00  0.00    -0.042 I 
ATOM     36  C   UNL     1     -11.826  10.577  70.478  0.00  0.00    +0.007 A 
ATOM     37  C   UNL     1     -10.902  10.787  69.464  0.00  0.00    +0.019 A 
ENDBRANCH  29  30
ENDBRANCH   4  29
TORSDOF 5
ENDMDL
MODEL 8
REMARK VINA RESULT:      -6.8      3.827      7.926
REMARK  Name = 
REMARK  5 active torsions:
REMARK  status: ('A' for Active; 'I' for Inactive)
REMARK    1  A    between atoms: N_4  and  C_5
REMARK    2  A    between atoms: C_9  and  N_10
REMARK    3  A    between atoms: N_13  and  C_14
REMARK    4  A    between atoms: C_20  and  N_21
REMARK    5  A    between atoms: N_21  and  C_22
REMARK                            x       y       z     vdW  Elec       q    Type
REMARK                         _______ _______ _______ _____ _____    ______ ____
ROOT
ATOM      1  N   UNL     1      -9.236  13.169  67.258  0.00  0.00    -0.260 N 
ATOM      2  C   UNL     1      -8.492  12.245  67.895  0.00  0.00    +0.076 A 
ATOM      3  C   UNL     1      -8.591  10.895  67.656  0.00  0.00    +0.104 A 
ATOM      4  C   UNL     1      -7.952   9.939  68.436  0.00  0.00    +0.141 A 
ATOM      5  N   UNL     1      -7.193  10.426  69.448  0.00  0.00    -0.281 N 
ATOM      6  C   UNL     1      -6.797  11.719  69.433  0.00  0.00    +0.259 A 
ATOM      7  O   UNL     1      -5.720  12.082  69.992  0.00  0.00    -0.267 OA
ATOM      8  C   UNL     1      -6.509   9.555  70.390  0.00  0.00    +0.135 C 
ATOM      9  C   UNL     1      -9.568  10.475  66.773  0.00  0.00    +0.268 A 
ATOM     10  O   UNL     1      -9.930   9.276  66.662  0.00  0.00    -0.267 OA
ATOM     11  N   UNL     1     -10.037  11.420  65.923  0.00  0.00    -0.250 N 
ATOM     12  C   UNL     1      -7.457  12.673  68.697  0.00  0.00    +0.051 A 
ATOM     13  C   UNL     1      -7.310  14.123  68.937  0.00  0.00    +0.038 C 
ATOM     14  C   UNL     1     -10.024  12.734  66.245  0.00  0.00    +0.338 A 
ATOM     15  O   UNL     1     -10.975  13.486  65.874  0.00  0.00    -0.246 OA
ENDROOT
BRANCH   1  18
ATOM     16  C   UNL     1     -10.067  16.730  67.596  0.00  0.00    +0.075 A 
ATOM     17  C   UNL     1      -9.557  15.517  67.147  0.00  0.00    +0.034 A 
ATOM     18  C   UNL     1      -9.542  14.384  67.959  0.00  0.00    +0.069 A 
ATOM     19  C   UNL     1     -10.661  14.294  68.783  0.00  0.00    +0.018 A 
ATOM     20  C   UNL     1     -11.447  15.404  69.067  0.00  0.00    +0.003 A 
ATOM     21  C   UNL     1     -11.135  16.625  68.481  0.00  0.00    +0.017 A 
BRANCH  16  24
ATOM     22  C   UNL     1      -9.769  20.417  66.969  0.00  0.00    +0.097 C 
ATOM     23  C   UNL     1      -9.727  18.975  66.594  0.00  0.00    +0.246 C 
ATOM     24  N   UNL     1      -9.324  17.952  67.498  0.00  0.00    -0.179 NA
ATOM     25  O   UNL     1     -10.531  18.620  65.682  0.00  0.00    -0.273 OA
ENDBRANCH  16  24
ENDBRANCH   1  18
BRANCH  11  26
ATOM     26  C   UNL     1     -10.609  11.035  64.651  0.00  0.00    +0.093 C 
ATOM     27  C   UNL     1     -10.041  11.727  63.414  0.00  0.00    +0.025 C 
ATOM     28  C   UNL     1      -9.790  10.270  63.668  0.00  0.00    +0.025 C 
ENDBRANCH  11  26
BRANCH   4  29
ATOM     29  N   UNL     1      -8.605   8.709  68.668  0.00  0.00    -0.193 NA
BRANCH  29  30
ATOM     30  C   UNL     1      -9.507   8.450  69.719  0.00  0.00    +0.099 A 
ATOM     31  C   UNL     1     -10.073   7.202  69.955  0.00  0.00    +0.156 A 
ATOM     32  F   UNL     1      -9.576   6.177  69.205  0.00  0.00    -0.203 F 
ATOM     33  C   UNL     1     -11.421   7.103  70.280  0.00  0.00    +0.037 A 
ATOM     34  C   UNL     1     -11.966   8.097  71.046  0.00  0.00    +0.032 A 
ATOM     35  I   UNL     1     -13.929   7.936  71.802  0.00  0.00    -0.042 I 
ATOM     36  C   UNL     1     -11.337   9.334  71.015  0.00  0.00    +0.007 A 
ATOM     37  C   UNL     1     -10.240   9.533  70.187  0.00  0.00    +0.019 A 
ENDBRANCH  29  30
ENDBRANCH   4  29
TORSDOF 5
ENDMDL
MODEL 9
REMARK VINA RESULT:      -6.8      3.649      7.771
REMARK  Name = 
REMARK  5 active torsions:
REMARK  status: ('A' for Active; 'I' for Inactive)
REMARK    1  A    between atoms: N_4  and  C_5
REMARK    2  A    between atoms: C_9  and  N_10
REMARK    3  A    between atoms: N_13  and  C_14
REMARK    4  A    between atoms: C_20  and  N_21
REMARK    5  A    between atoms: N_21  and  C_22
REMARK                            x       y       z     vdW  Elec       q    Type
REMARK                         _______ _______ _______ _____ _____    ______ ____
ROOT
ATOM      1  N   UNL     1      -9.758  14.145  66.895  0.00  0.00    -0.260 N 
ATOM      2  C   UNL     1      -8.781  13.217  66.914  0.00  0.00    +0.076 A 
ATOM      3  C   UNL     1      -8.959  11.919  66.498  0.00  0.00    +0.104 A 
ATOM      4  C   UNL     1      -8.005  10.927  66.683  0.00  0.00    +0.141 A 
ATOM      5  N   UNL     1      -6.859  11.326  67.287  0.00  0.00    -0.281 N 
ATOM      6  C   UNL     1      -6.544  12.641  67.333  0.00  0.00    +0.259 A 
ATOM      7  O   UNL     1      -5.337  13.025  67.374  0.00  0.00    -0.267 OA
ATOM      8  C   UNL     1      -5.789  10.396  67.606  0.00  0.00    +0.135 C 
ATOM      9  C   UNL     1     -10.235  11.542  66.120  0.00  0.00    +0.268 A 
ATOM     10  O   UNL     1     -10.583  10.344  65.967  0.00  0.00    -0.267 OA
ATOM     11  N   UNL     1     -11.074  12.553  65.791  0.00  0.00    -0.250 N 
ATOM     12  C   UNL     1      -7.495  13.622  67.196  0.00  0.00    +0.051 A 
ATOM     13  C   UNL     1      -7.275  15.023  67.610  0.00  0.00    +0.038 C 
ATOM     14  C   UNL     1     -10.929  13.794  66.314  0.00  0.00    +0.338 A 
ATOM     15  O   UNL     1     -11.954  14.488  66.589  0.00  0.00    -0.246 OA
ENDROOT
BRANCH   1  18
ATOM     16  C   UNL     1     -10.508  17.444  68.323  0.00  0.00    +0.075 A 
ATOM     17  C   UNL     1     -10.250  16.401  67.441  0.00  0.00    +0.034 A 
ATOM     18  C   UNL     1      -9.707  15.193  67.875  0.00  0.00    +0.069 A 
ATOM     19  C   UNL     1     -10.169  14.813  69.133  0.00  0.00    +0.018 A 
ATOM     20  C   UNL     1     -10.740  15.730  70.006  0.00  0.00    +0.003 A 
ATOM     21  C   UNL     1     -10.893  17.050  69.599  0.00  0.00    +0.017 A 
BRANCH  16  24
ATOM     22  C   UNL     1      -7.941  19.914  67.145  0.00  0.00    +0.097 C 
ATOM     23  C   UNL     1      -8.641  19.072  68.155  0.00  0.00    +0.246 C 
ATOM     24  N   UNL     1     -10.032  18.775  68.086  0.00  0.00    -0.179 NA
ATOM     25  O   UNL     1      -7.923  18.213  68.748  0.00  0.00    -0.273 OA
ENDBRANCH  16  24
ENDBRANCH   1  18
BRANCH  11  26
ATOM     26  C   UNL     1     -12.184  12.316  64.895  0.00  0.00    +0.093 C 
ATOM     27  C   UNL     1     -12.183  13.106  63.588  0.00  0.00    +0.025 C 
ATOM     28  C   UNL     1     -11.955  11.623  63.595  0.00  0.00    +0.025 C 
ENDBRANCH  11  26
BRANCH   4  29
ATOM     29  N   UNL     1      -8.441   9.613  66.955  0.00  0.00    -0.193 NA
BRANCH  29  30
ATOM     30  C   UNL     1      -8.621   9.063  68.241  0.00  0.00    +0.099 A 
ATOM     31  C   UNL     1      -8.840   7.710  68.474  0.00  0.00    +0.156 A 
ATOM     32  F   UNL     1      -8.705   6.894  67.389  0.00  0.00    -0.203 F 
ATOM     33  C   UNL     1      -9.794   7.312  69.402  0.00  0.00    +0.037 A 
ATOM     34  C   UNL     1      -9.958   8.085  70.519  0.00  0.00    +0.032 A 
ATOM     35  I   UNL     1     -11.198   7.458  72.106  0.00  0.00    -0.042 I 
ATOM     36  C   UNL     1      -9.577   9.418  70.425  0.00  0.00    +0.007 A 
ATOM     37  C   UNL     1      -9.110   9.921  69.218  0.00  0.00    +0.019 A 
ENDBRANCH  29  30
ENDBRANCH   4  29
TORSDOF 5
ENDMDL
