MODEL 1
REMARK VINA RESULT:      -7.3      0.000      0.000
REMARK  Name = 
REMARK  3 active torsions:
REMARK  status: ('A' for Active; 'I' for Inactive)
REMARK    1  A    between atoms: C_7  and  C_8
REMARK    2  A    between atoms: N_13  and  C_14
REMARK    3  A    between atoms: C_14  and  C_15
REMARK                            x       y       z     vdW  Elec       q    Type
REMARK                         _______ _______ _______ _____ _____    ______ ____
ROOT
ATOM      1  C   UNL     1     -11.683  14.487  69.372  0.00  0.00    +0.080 C 
ATOM      2  C   UNL     1     -11.304  15.359  68.263  0.00  0.00    +0.032 A 
ATOM      3  C   UNL     1     -11.089  14.925  66.964  0.00  0.00    +0.053 A 
ATOM      4  C   UNL     1     -10.696  15.892  66.056  0.00  0.00    +0.016 A 
ATOM      5  C   UNL     1     -10.174  17.099  66.506  0.00  0.00    +0.013 A 
ATOM      6  C   UNL     1     -10.181  17.443  67.852  0.00  0.00    +0.058 A 
ATOM      7 CL   UNL     1      -8.844  18.428  68.435  0.00  0.00    -0.082 Cl
ATOM      8  N   UNL     1     -11.051  13.596  66.449  0.00  0.00    -0.276 N 
ATOM      9  C   UNL     1     -10.956  12.417  67.260  0.00  0.00    +0.090 C 
ATOM     10  S   UNL     1     -10.720  11.025  66.424  0.00  0.00    -0.037 S 
ATOM     11  C   UNL     1     -10.753  12.276  68.716  0.00  0.00    +0.174 C 
ATOM     12  C   UNL     1     -10.914  16.619  68.698  0.00  0.00    +0.014 A 
ATOM     13  N   UNL     1     -11.549  13.217  69.490  0.00  0.00    -0.264 NA
ENDROOT
BRANCH   1  16
ATOM     14  F   UNL     1     -10.290  15.279  71.681  0.00  0.00    -0.204 F 
ATOM     15  C   UNL     1     -11.646  15.417  71.630  0.00  0.00    +0.142 A 
ATOM     16  C   UNL     1     -12.353  15.228  70.449  0.00  0.00    +0.045 A 
ATOM     17  C   UNL     1     -13.736  15.209  70.594  0.00  0.00    +0.004 A 
ATOM     18  C   UNL     1     -14.334  14.959  71.822  0.00  0.00    +0.000 A 
ATOM     19  C   UNL     1     -13.581  14.971  72.977  0.00  0.00    +0.002 A 
ATOM     20  C   UNL     1     -12.295  15.482  72.857  0.00  0.00    +0.030 A 
ENDBRANCH   1  16
BRANCH   8  21
ATOM     21  C   UNL     1     -10.808  13.485  65.035  0.00  0.00    +0.200 C 
BRANCH  21  22
ATOM     22  C   UNL     1     -12.059  13.342  64.218  0.00  0.00    +0.416 C 
ATOM     23  F   UNL     1     -13.116  12.813  64.936  0.00  0.00    -0.168 F 
ATOM     24  F   UNL     1     -11.840  12.633  63.061  0.00  0.00    -0.168 F 
ATOM     25  F   UNL     1     -12.454  14.625  63.848  0.00  0.00    -0.168 F 
ENDBRANCH  21  22
ENDBRANCH   8  21
TORSDOF 3
ENDMDL
MODEL 2
REMARK VINA RESULT:      -7.1      2.810      5.118
REMARK  Name = 
REMARK  3 active torsions:
REMARK  status: ('A' for Active; 'I' for Inactive)
REMARK    1  A    between atoms: C_7  and  C_8
REMARK    2  A    between atoms: N_13  and  C_14
REMARK    3  A    between atoms: C_14  and  C_15
REMARK                            x       y       z     vdW  Elec       q    Type
REMARK                         _______ _______ _______ _____ _____    ______ ____
ROOT
ATOM      1  C   UNL     1     -10.190  16.270  66.391  0.00  0.00    +0.080 C 
ATOM      2  C   UNL     1     -10.475  15.292  67.437  0.00  0.00    +0.032 A 
ATOM      3  C   UNL     1     -10.865  13.982  67.200  0.00  0.00    +0.053 A 
ATOM      4  C   UNL     1     -11.130  13.213  68.319  0.00  0.00    +0.016 A 
ATOM      5  C   UNL     1     -11.374  13.825  69.543  0.00  0.00    +0.013 A 
ATOM      6  C   UNL     1     -11.201  15.192  69.725  0.00  0.00    +0.058 A 
ATOM      7 CL   UNL     1     -12.276  15.990  70.867  0.00  0.00    -0.082 Cl
ATOM      8  N   UNL     1     -11.197  13.347  65.967  0.00  0.00    -0.276 N 
ATOM      9  C   UNL     1     -11.458  14.045  64.742  0.00  0.00    +0.090 C 
ATOM     10  S   UNL     1     -12.019  13.104  63.521  0.00  0.00    -0.037 S 
ATOM     11  C   UNL     1     -11.576  15.493  64.478  0.00  0.00    +0.174 C 
ATOM     12  C   UNL     1     -10.581  15.882  68.690  0.00  0.00    +0.014 A 
ATOM     13  N   UNL     1     -10.558  16.277  65.162  0.00  0.00    -0.264 NA
ENDROOT
BRANCH   1  16
ATOM     14  F   UNL     1     -11.210  18.814  67.017  0.00  0.00    -0.204 F 
ATOM     15  C   UNL     1      -9.860  18.618  66.976  0.00  0.00    +0.142 A 
ATOM     16  C   UNL     1      -9.312  17.346  66.869  0.00  0.00    +0.045 A 
ATOM     17  C   UNL     1      -7.940  17.320  66.643  0.00  0.00    +0.004 A 
ATOM     18  C   UNL     1      -7.266  18.424  66.138  0.00  0.00    +0.000 A 
ATOM     19  C   UNL     1      -7.889  19.653  66.082  0.00  0.00    +0.002 A 
ATOM     20  C   UNL     1      -9.089  19.756  66.773  0.00  0.00    +0.030 A 
ENDBRANCH   1  16
BRANCH   8  21
ATOM     21  C   UNL     1     -11.560  11.958  66.063  0.00  0.00    +0.200 C 
BRANCH  21  22
ATOM     22  C   UNL     1     -10.410  11.018  65.850  0.00  0.00    +0.416 C 
ATOM     23  F   UNL     1      -9.180  11.650  65.889  0.00  0.00    -0.168 F 
ATOM     24  F   UNL     1     -10.554  10.282  64.698  0.00  0.00    -0.168 F 
ATOM     25  F   UNL     1     -10.412  10.123  66.916  0.00  0.00    -0.168 F 
ENDBRANCH  21  22
ENDBRANCH   8  21
TORSDOF 3
ENDMDL
MODEL 3
REMARK VINA RESULT:      -7.0      3.363      6.850
REMARK  Name = 
REMARK  3 active torsions:
REMARK  status: ('A' for Active; 'I' for Inactive)
REMARK    1  A    between atoms: C_7  and  C_8
REMARK    2  A    between atoms: N_13  and  C_14
REMARK    3  A    between atoms: C_14  and  C_15
REMARK                            x       y       z     vdW  Elec       q    Type
REMARK                         _______ _______ _______ _____ _____    ______ ____
ROOT
ATOM      1  C   UNL     1     -11.255  12.892  67.602  0.00  0.00    +0.080 C 
ATOM      2  C   UNL     1     -11.693  12.085  68.737  0.00  0.00    +0.032 A 
ATOM      3  C   UNL     1     -12.089  12.604  69.961  0.00  0.00    +0.053 A 
ATOM      4  C   UNL     1     -12.433  11.681  70.931  0.00  0.00    +0.016 A 
ATOM      5  C   UNL     1     -12.025  10.357  70.810  0.00  0.00    +0.013 A 
ATOM      6  C   UNL     1     -11.414   9.883  69.656  0.00  0.00    +0.058 A 
ATOM      7 CL   UNL     1     -10.212   8.612  69.851  0.00  0.00    -0.082 Cl
ATOM      8  N   UNL     1     -12.040  13.950  70.431  0.00  0.00    -0.276 N 
ATOM      9  C   UNL     1     -11.293  14.999  69.800  0.00  0.00    +0.090 C 
ATOM     10  S   UNL     1     -11.231  16.402  70.648  0.00  0.00    -0.037 S 
ATOM     11  C   UNL     1     -10.348  14.948  68.667  0.00  0.00    +0.174 C 
ATOM     12  C   UNL     1     -11.413  10.736  68.559  0.00  0.00    +0.014 A 
ATOM     13  N   UNL     1     -10.813  14.096  67.583  0.00  0.00    -0.264 NA
ENDROOT
BRANCH   1  16
ATOM     14  F   UNL     1      -9.136  11.434  66.466  0.00  0.00    -0.204 F 
ATOM     15  C   UNL     1     -10.275  11.644  65.745  0.00  0.00    +0.142 A 
ATOM     16  C   UNL     1     -11.417  12.181  66.326  0.00  0.00    +0.045 A 
ATOM     17  C   UNL     1     -12.425  12.517  65.430  0.00  0.00    +0.004 A 
ATOM     18  C   UNL     1     -12.161  12.712  64.080  0.00  0.00    +0.000 A 
ATOM     19  C   UNL     1     -10.945  12.336  63.548  0.00  0.00    +0.002 A 
ATOM     20  C   UNL     1     -10.143  11.551  64.365  0.00  0.00    +0.030 A 
ENDBRANCH   1  16
BRANCH   8  21
ATOM     21  C   UNL     1     -12.539  14.159  71.764  0.00  0.00    +0.200 C 
BRANCH  21  22
ATOM     22  C   UNL     1     -13.972  14.604  71.807  0.00  0.00    +0.416 C 
ATOM     23  F   UNL     1     -14.827  13.625  72.281  0.00  0.00    -0.168 F 
ATOM     24  F   UNL     1     -14.397  15.090  70.593  0.00  0.00    -0.168 F 
ATOM     25  F   UNL     1     -14.047  15.651  72.721  0.00  0.00    -0.168 F 
ENDBRANCH  21  22
ENDBRANCH   8  21
TORSDOF 3
ENDMDL
MODEL 4
REMARK VINA RESULT:      -6.8      3.396      6.174
REMARK  Name = 
REMARK  3 active torsions:
REMARK  status: ('A' for Active; 'I' for Inactive)
REMARK    1  A    between atoms: C_7  and  C_8
REMARK    2  A    between atoms: N_13  and  C_14
REMARK    3  A    between atoms: C_14  and  C_15
REMARK                            x       y       z     vdW  Elec       q    Type
REMARK                         _______ _______ _______ _____ _____    ______ ____
ROOT
ATOM      1  C   UNL     1     -10.285  14.332  66.571  0.00  0.00    +0.080 C 
ATOM      2  C   UNL     1     -10.973  14.952  67.700  0.00  0.00    +0.032 A 
ATOM      3  C   UNL     1     -10.642  16.188  68.236  0.00  0.00    +0.053 A 
ATOM      4  C   UNL     1     -11.382  16.594  69.332  0.00  0.00    +0.016 A 
ATOM      5  C   UNL     1     -12.109  15.664  70.066  0.00  0.00    +0.013 A 
ATOM      6  C   UNL     1     -12.254  14.349  69.641  0.00  0.00    +0.058 A 
ATOM      7 CL   UNL     1     -12.369  13.112  70.888  0.00  0.00    -0.082 Cl
ATOM      8  N   UNL     1      -9.539  17.039  67.932  0.00  0.00    -0.276 N 
ATOM      9  C   UNL     1      -8.385  16.632  67.185  0.00  0.00    +0.090 C 
ATOM     10  S   UNL     1      -7.167  17.730  67.149  0.00  0.00    -0.037 S 
ATOM     11  C   UNL     1      -7.996  15.298  66.685  0.00  0.00    +0.174 C 
ATOM     12  C   UNL     1     -11.812  14.060  68.355  0.00  0.00    +0.014 A 
ATOM     13  N   UNL     1      -9.112  14.565  66.106  0.00  0.00    -0.264 NA
ENDROOT
BRANCH   1  16
ATOM     14  F   UNL     1      -9.672  11.589  66.635  0.00  0.00    -0.204 F 
ATOM     15  C   UNL     1     -10.659  12.042  65.809  0.00  0.00    +0.142 A 
ATOM     16  C   UNL     1     -11.132  13.346  65.886  0.00  0.00    +0.045 A 
ATOM     17  C   UNL     1     -11.992  13.716  64.858  0.00  0.00    +0.004 A 
ATOM     18  C   UNL     1     -12.028  13.022  63.656  0.00  0.00    +0.000 A 
ATOM     19  C   UNL     1     -11.396  11.801  63.539  0.00  0.00    +0.002 A 
ATOM     20  C   UNL     1     -10.965  11.226  64.727  0.00  0.00    +0.030 A 
ENDBRANCH   1  16
BRANCH   8  21
ATOM     21  C   UNL     1      -9.486  18.272  68.672  0.00  0.00    +0.200 C 
BRANCH  21  22
ATOM     22  C   UNL     1     -10.069  19.442  67.936  0.00  0.00    +0.416 C 
ATOM     23  F   UNL     1     -11.158  19.101  67.154  0.00  0.00    -0.168 F 
ATOM     24  F   UNL     1      -9.120  20.113  67.201  0.00  0.00    -0.168 F 
ATOM     25  F   UNL     1     -10.551  20.328  68.895  0.00  0.00    -0.168 F 
ENDBRANCH  21  22
ENDBRANCH   8  21
TORSDOF 3
ENDMDL
MODEL 5
REMARK VINA RESULT:      -6.7      3.158      4.176
REMARK  Name = 
REMARK  3 active torsions:
REMARK  status: ('A' for Active; 'I' for Inactive)
REMARK    1  A    between atoms: C_7  and  C_8
REMARK    2  A    between atoms: N_13  and  C_14
REMARK    3  A    between atoms: C_14  and  C_15
REMARK                            x       y       z     vdW  Elec       q    Type
REMARK                         _______ _______ _______ _____ _____    ______ ____
ROOT
ATOM      1  C   UNL     1     -11.387  10.887  69.775  0.00  0.00    +0.080 C 
ATOM      2  C   UNL     1     -11.820  12.271  69.599  0.00  0.00    +0.032 A 
ATOM      3  C   UNL     1     -11.701  12.984  68.416  0.00  0.00    +0.053 A 
ATOM      4  C   UNL     1     -12.131  14.298  68.451  0.00  0.00    +0.016 A 
ATOM      5  C   UNL     1     -12.284  14.949  69.670  0.00  0.00    +0.013 A 
ATOM      6  C   UNL     1     -12.177  14.272  70.879  0.00  0.00    +0.058 A 
ATOM      7 CL   UNL     1     -11.525  15.170  72.245  0.00  0.00    -0.082 Cl
ATOM      8  N   UNL     1     -11.047  12.620  67.202  0.00  0.00    -0.276 N 
ATOM      9  C   UNL     1     -10.131  11.525  67.075  0.00  0.00    +0.090 C 
ATOM     10  S   UNL     1      -9.356  11.441  65.631  0.00  0.00    -0.037 S 
ATOM     11  C   UNL     1      -9.560  10.635  68.106  0.00  0.00    +0.174 C 
ATOM     12  C   UNL     1     -12.111  12.885  70.810  0.00  0.00    +0.014 A 
ATOM     13  N   UNL     1     -10.545  10.205  69.088  0.00  0.00    -0.264 NA
ENDROOT
BRANCH   1  16
ATOM     14  F   UNL     1      -9.999   9.343  71.671  0.00  0.00    -0.204 F 
ATOM     15  C   UNL     1     -11.363   9.337  71.662  0.00  0.00    +0.142 A 
ATOM     16  C   UNL     1     -12.091  10.227  70.883  0.00  0.00    +0.045 A 
ATOM     17  C   UNL     1     -13.456   9.972  70.827  0.00  0.00    +0.004 A 
ATOM     18  C   UNL     1     -13.975   8.723  71.143  0.00  0.00    +0.000 A 
ATOM     19  C   UNL     1     -13.183   7.777  71.758  0.00  0.00    +0.002 A 
ATOM     20  C   UNL     1     -11.967   8.231  72.249  0.00  0.00    +0.030 A 
ENDBRANCH   1  16
BRANCH   8  21
ATOM     21  C   UNL     1     -11.111  13.595  66.146  0.00  0.00    +0.200 C 
BRANCH  21  22
ATOM     22  C   UNL     1     -12.230  13.357  65.174  0.00  0.00    +0.416 C 
ATOM     23  F   UNL     1     -12.728  12.068  65.228  0.00  0.00    -0.168 F 
ATOM     24  F   UNL     1     -11.877  13.701  63.890  0.00  0.00    -0.168 F 
ATOM     25  F   UNL     1     -13.281  14.188  65.550  0.00  0.00    -0.168 F 
ENDBRANCH  21  22
ENDBRANCH   8  21
TORSDOF 3
ENDMDL
MODEL 6
REMARK VINA RESULT:      -6.4      3.899      6.568
REMARK  Name = 
REMARK  3 active torsions:
REMARK  status: ('A' for Active; 'I' for Inactive)
REMARK    1  A    between atoms: C_7  and  C_8
REMARK    2  A    between atoms: N_13  and  C_14
REMARK    3  A    between atoms: C_14  and  C_15
REMARK                            x       y       z     vdW  Elec       q    Type
REMARK                         _______ _______ _______ _____ _____    ______ ____
ROOT
ATOM      1  C   UNL     1     -11.340  12.789  68.072  0.00  0.00    +0.080 C 
ATOM      2  C   UNL     1     -10.754  11.529  68.522  0.00  0.00    +0.032 A 
ATOM      3  C   UNL     1     -11.160  10.837  69.654  0.00  0.00    +0.053 A 
ATOM      4  C   UNL     1     -10.459   9.680  69.943  0.00  0.00    +0.016 A 
ATOM      5  C   UNL     1      -9.207   9.464  69.379  0.00  0.00    +0.013 A 
ATOM      6  C   UNL     1      -8.695  10.299  68.394  0.00  0.00    +0.058 A 
ATOM      7 CL   UNL     1      -6.950  10.529  68.367  0.00  0.00    -0.082 Cl
ATOM      8  N   UNL     1     -12.089  11.222  70.665  0.00  0.00    -0.276 N 
ATOM      9  C   UNL     1     -12.583  12.556  70.843  0.00  0.00    +0.090 C 
ATOM     10  S   UNL     1     -13.476  12.782  72.200  0.00  0.00    -0.037 S 
ATOM     11  C   UNL     1     -12.196  13.813  70.171  0.00  0.00    +0.174 C 
ATOM     12  C   UNL     1      -9.570  11.236  67.858  0.00  0.00    +0.014 A 
ATOM     13  N   UNL     1     -12.018  13.653  68.735  0.00  0.00    -0.264 NA
ENDROOT
BRANCH   1  16
ATOM     14  F   UNL     1      -9.608  14.803  67.151  0.00  0.00    -0.204 F 
ATOM     15  C   UNL     1     -10.406  14.140  66.265  0.00  0.00    +0.142 A 
ATOM     16  C   UNL     1     -11.127  13.012  66.636  0.00  0.00    +0.045 A 
ATOM     17  C   UNL     1     -12.040  12.566  65.688  0.00  0.00    +0.004 A 
ATOM     18  C   UNL     1     -12.503  13.398  64.677  0.00  0.00    +0.000 A 
ATOM     19  C   UNL     1     -11.886  14.607  64.435  0.00  0.00    +0.002 A 
ATOM     20  C   UNL     1     -10.668  14.804  65.072  0.00  0.00    +0.030 A 
ENDBRANCH   1  16
BRANCH   8  21
ATOM     21  C   UNL     1     -12.294  10.261  71.716  0.00  0.00    +0.200 C 
BRANCH  21  22
ATOM     22  C   UNL     1     -13.403   9.290  71.436  0.00  0.00    +0.416 C 
ATOM     23  F   UNL     1     -12.954   7.995  71.250  0.00  0.00    -0.168 F 
ATOM     24  F   UNL     1     -14.192   9.698  70.386  0.00  0.00    -0.168 F 
ATOM     25  F   UNL     1     -14.210   9.254  72.570  0.00  0.00    -0.168 F 
ENDBRANCH  21  22
ENDBRANCH   8  21
TORSDOF 3
ENDMDL
MODEL 7
REMARK VINA RESULT:      -6.2      3.623      6.207
REMARK  Name = 
REMARK  3 active torsions:
REMARK  status: ('A' for Active; 'I' for Inactive)
REMARK    1  A    between atoms: C_7  and  C_8
REMARK    2  A    between atoms: N_13  and  C_14
REMARK    3  A    between atoms: C_14  and  C_15
REMARK                            x       y       z     vdW  Elec       q    Type
REMARK                         _______ _______ _______ _____ _____    ______ ____
ROOT
ATOM      1  C   UNL     1     -11.161  10.951  69.014  0.00  0.00    +0.080 C 
ATOM      2  C   UNL     1     -11.323  12.150  68.196  0.00  0.00    +0.032 A 
ATOM      3  C   UNL     1     -11.745  13.378  68.683  0.00  0.00    +0.053 A 
ATOM      4  C   UNL     1     -11.878  14.390  67.749  0.00  0.00    +0.016 A 
ATOM      5  C   UNL     1     -11.970  14.082  66.396  0.00  0.00    +0.013 A 
ATOM      6  C   UNL     1     -11.770  12.791  65.925  0.00  0.00    +0.058 A 
ATOM      7 CL   UNL     1     -12.696  12.301  64.510  0.00  0.00    -0.082 Cl
ATOM      8  N   UNL     1     -12.225  13.721  69.981  0.00  0.00    -0.276 N 
ATOM      9  C   UNL     1     -12.628  12.765  70.971  0.00  0.00    +0.090 C 
ATOM     10  S   UNL     1     -13.336  13.413  72.303  0.00  0.00    -0.037 S 
ATOM     11  C   UNL     1     -12.770  11.298  70.878  0.00  0.00    +0.174 C 
ATOM     12  C   UNL     1     -11.276  11.867  66.838  0.00  0.00    +0.014 A 
ATOM     13  N   UNL     1     -11.674  10.670  70.156  0.00  0.00    -0.264 NA
ENDROOT
BRANCH   1  16
ATOM     14  F   UNL     1      -8.399  11.467  68.924  0.00  0.00    -0.204 F 
ATOM     15  C   UNL     1      -8.911  10.406  68.236  0.00  0.00    +0.142 A 
ATOM     16  C   UNL     1     -10.226   9.993  68.407  0.00  0.00    +0.045 A 
ATOM     17  C   UNL     1     -10.658   9.031  67.501  0.00  0.00    +0.004 A 
ATOM     18  C   UNL     1     -10.006   8.827  66.292  0.00  0.00    +0.000 A 
ATOM     19  C   UNL     1      -8.770   9.396  66.065  0.00  0.00    +0.002 A 
ATOM     20  C   UNL     1      -8.142   9.944  67.175  0.00  0.00    +0.030 A 
ENDBRANCH   1  16
BRANCH   8  21
ATOM     21  C   UNL     1     -12.581  15.102  70.166  0.00  0.00    +0.200 C 
BRANCH  21  22
ATOM     22  C   UNL     1     -11.473  15.939  70.734  0.00  0.00    +0.416 C 
ATOM     23  F   UNL     1     -10.309  15.222  70.948  0.00  0.00    -0.168 F 
ATOM     24  F   UNL     1     -11.862  16.605  71.872  0.00  0.00    -0.168 F 
ATOM     25  F   UNL     1     -11.157  16.901  69.779  0.00  0.00    -0.168 F 
ENDBRANCH  21  22
ENDBRANCH   8  21
TORSDOF 3
ENDMDL
MODEL 8
REMARK VINA RESULT:      -6.1      3.484      6.402
REMARK  Name = 
REMARK  3 active torsions:
REMARK  status: ('A' for Active; 'I' for Inactive)
REMARK    1  A    between atoms: C_7  and  C_8
REMARK    2  A    between atoms: N_13  and  C_14
REMARK    3  A    between atoms: C_14  and  C_15
REMARK                            x       y       z     vdW  Elec       q    Type
REMARK                         _______ _______ _______ _____ _____    ______ ____
ROOT
ATOM      1  C   UNL     1     -10.468  10.978  67.715  0.00  0.00    +0.080 C 
ATOM      2  C   UNL     1     -10.865  12.112  66.884  0.00  0.00    +0.032 A 
ATOM      3  C   UNL     1     -11.380  13.302  67.377  0.00  0.00    +0.053 A 
ATOM      4  C   UNL     1     -11.737  14.248  66.433  0.00  0.00    +0.016 A 
ATOM      5  C   UNL     1     -11.938  13.871  65.110  0.00  0.00    +0.013 A 
ATOM      6  C   UNL     1     -11.632  12.593  64.659  0.00  0.00    +0.058 A 
ATOM      7 CL   UNL     1     -12.640  11.934  63.375  0.00  0.00    -0.082 Cl
ATOM      8  N   UNL     1     -11.754  13.642  68.710  0.00  0.00    -0.276 N 
ATOM      9  C   UNL     1     -11.926  12.690  69.769  0.00  0.00    +0.090 C 
ATOM     10  S   UNL     1     -12.559  13.307  71.151  0.00  0.00    -0.037 S 
ATOM     11  C   UNL     1     -11.895  11.214  69.738  0.00  0.00    +0.174 C 
ATOM     12  C   UNL     1     -10.931  11.776  65.538  0.00  0.00    +0.014 A 
ATOM     13  N   UNL     1     -10.814  10.690  68.916  0.00  0.00    -0.264 NA
ENDROOT
BRANCH   1  16
ATOM     14  F   UNL     1     -11.140   8.364  66.928  0.00  0.00    -0.204 F 
ATOM     15  C   UNL     1      -9.844   8.782  66.850  0.00  0.00    +0.142 A 
ATOM     16  C   UNL     1      -9.494  10.113  67.035  0.00  0.00    +0.045 A 
ATOM     17  C   UNL     1      -8.127  10.351  67.120  0.00  0.00    +0.004 A 
ATOM     18  C   UNL     1      -7.231   9.336  67.431  0.00  0.00    +0.000 A 
ATOM     19  C   UNL     1      -7.641   8.019  67.418  0.00  0.00    +0.002 A 
ATOM     20  C   UNL     1      -8.884   7.777  66.848  0.00  0.00    +0.030 A 
ENDBRANCH   1  16
BRANCH   8  21
ATOM     21  C   UNL     1     -12.256  14.978  68.891  0.00  0.00    +0.200 C 
BRANCH  21  22
ATOM     22  C   UNL     1     -11.218  15.952  69.367  0.00  0.00    +0.416 C 
ATOM     23  F   UNL     1      -9.946  15.408  69.411  0.00  0.00    -0.168 F 
ATOM     24  F   UNL     1     -11.557  16.518  70.573  0.00  0.00    -0.168 F 
ATOM     25  F   UNL     1     -11.161  16.978  68.429  0.00  0.00    -0.168 F 
ENDBRANCH  21  22
ENDBRANCH   8  21
TORSDOF 3
ENDMDL
MODEL 9
REMARK VINA RESULT:      -6.0      3.010      5.004
REMARK  Name = 
REMARK  3 active torsions:
REMARK  status: ('A' for Active; 'I' for Inactive)
REMARK    1  A    between atoms: C_7  and  C_8
REMARK    2  A    between atoms: N_13  and  C_14
REMARK    3  A    between atoms: C_14  and  C_15
REMARK                            x       y       z     vdW  Elec       q    Type
REMARK                         _______ _______ _______ _____ _____    ______ ____
ROOT
ATOM      1  C   UNL     1      -9.727  16.608  68.176  0.00  0.00    +0.080 C 
ATOM      2  C   UNL     1      -8.951  15.417  67.843  0.00  0.00    +0.032 A 
ATOM      3  C   UNL     1      -9.355  14.118  68.114  0.00  0.00    +0.053 A 
ATOM      4  C   UNL     1      -8.467  13.118  67.760  0.00  0.00    +0.016 A 
ATOM      5  C   UNL     1      -7.130  13.422  67.531  0.00  0.00    +0.013 A 
ATOM      6  C   UNL     1      -6.676  14.734  67.485  0.00  0.00    +0.058 A 
ATOM      7 CL   UNL     1      -5.039  15.036  68.057  0.00  0.00    -0.082 Cl
ATOM      8  N   UNL     1     -10.483  13.658  68.856  0.00  0.00    -0.276 N 
ATOM      9  C   UNL     1     -11.278  14.486  69.714  0.00  0.00    +0.090 C 
ATOM     10  S   UNL     1     -12.387  13.678  70.614  0.00  0.00    -0.037 S 
ATOM     11  C   UNL     1     -11.083  15.889  70.133  0.00  0.00    +0.174 C 
ATOM     12  C   UNL     1      -7.648  15.727  67.476  0.00  0.00    +0.014 A 
ATOM     13  N   UNL     1     -10.668  16.752  69.037  0.00  0.00    -0.264 NA
ENDROOT
BRANCH   1  16
ATOM     14  F   UNL     1      -7.947  18.581  69.093  0.00  0.00    -0.204 F 
ATOM     15  C   UNL     1      -8.629  18.775  67.927  0.00  0.00    +0.142 A 
ATOM     16  C   UNL     1      -9.362  17.756  67.334  0.00  0.00    +0.045 A 
ATOM     17  C   UNL     1     -10.157  18.155  66.265  0.00  0.00    +0.004 A 
ATOM     18  C   UNL     1     -10.522  19.483  66.088  0.00  0.00    +0.000 A 
ATOM     19  C   UNL     1      -9.907  20.477  66.819  0.00  0.00    +0.002 A 
ATOM     20  C   UNL     1      -8.771  20.097  67.522  0.00  0.00    +0.030 A 
ENDBRANCH   1  16
BRANCH   8  21
ATOM     21  C   UNL     1     -10.622  12.229  68.947  0.00  0.00    +0.200 C 
BRANCH  21  22
ATOM     22  C   UNL     1     -11.500  11.640  67.882  0.00  0.00    +0.416 C 
ATOM     23  F   UNL     1     -10.821  10.782  67.036  0.00  0.00    -0.168 F 
ATOM     24  F   UNL     1     -12.171  12.609  67.174  0.00  0.00    -0.168 F 
ATOM     25  F   UNL     1     -12.457  10.861  68.527  0.00  0.00    -0.168 F 
ENDBRANCH  21  22
ENDBRANCH   8  21
TORSDOF 3
ENDMDL
