MODEL 1
REMARK VINA RESULT:      -7.9      0.000      0.000
REMARK  Name = 
REMARK  4 active torsions:
REMARK  status: ('A' for Active; 'I' for Inactive)
REMARK    1  A    between atoms: C_2  and  C_3
REMARK    2  A    between atoms: C_2  and  C_8
REMARK    3  A    between atoms: C_3  and  C_4
REMARK    4  A    between atoms: C_4  and  C_5
REMARK                            x       y       z     vdW  Elec       q    Type
REMARK                         _______ _______ _______ _____ _____    ______ ____
ROOT
ATOM      1  C   UNL     1     -11.233  15.217  67.788  0.00  0.00    +0.002 C 
ATOM      2  C   UNL     1      -9.742  15.777  67.619  0.00  0.00    +0.028 C 
ATOM      3  C   UNL     1     -10.104  17.321  67.853  0.00  0.00    +0.005 C 
ATOM      4  C   UNL     1      -8.496  17.669  68.122  0.00  0.00    +0.031 C 
ATOM      5  C   UNL     1      -8.382  18.017  66.489  0.00  0.00    +0.005 C 
ATOM      6  C   UNL     1      -7.972  16.482  66.174  0.00  0.00    +0.033 C 
ATOM      7  C   UNL     1      -6.872  18.559  66.512  0.00  0.00    +0.000 C 
ATOM      8  C   UNL     1      -6.475  18.593  68.098  0.00  0.00    +0.005 C 
ATOM      9  C   UNL     1      -5.046  19.224  67.784  0.00  0.00    +0.033 C 
ATOM     10  C   UNL     1      -4.936  20.815  67.537  0.00  0.00    +0.152 C 
ATOM     11  C   UNL     1      -6.290  21.050  66.622  0.00  0.00    +0.033 C 
ATOM     12  O   UNL     1      -5.581  21.186  68.872  0.00  0.00    -0.223 OA
ATOM     13  C   UNL     1      -7.433  19.886  68.372  0.00  0.00    +0.033 C 
ATOM     14  C   UNL     1      -5.923  17.710  65.806  0.00  0.00    +0.000 C 
ATOM     15  C   UNL     1      -6.741  19.897  65.967  0.00  0.00    +0.003 C 
ATOM     16  C   UNL     1      -8.870  19.197  68.727  0.00  0.00    +0.152 C 
ATOM     17  O   UNL     1      -9.542  19.725  67.474  0.00  0.00    -0.223 OA
ATOM     18  C   UNL     1     -10.427  16.906  69.392  0.00  0.00    +0.000 C 
ATOM     19  C   UNL     1      -8.764  15.252  68.440  0.00  0.00    +0.003 C 
ATOM     20  C   UNL     1      -9.391  15.660  66.029  0.00  0.00    +0.152 C 
ATOM     21  O   UNL     1     -10.218  16.850  65.564  0.00  0.00    -0.223 OA
ATOM     22  C   UNL     1     -11.691  16.288  68.923  0.00  0.00    +0.000 C 
ENDROOT
BRANCH   1  24
ATOM     23  C   UNL     1     -11.002  12.876  67.967  0.00  0.00    +0.000 C 
ATOM     24  C   UNL     1     -10.856  14.092  69.012  0.00  0.00    +0.001 C 
BRANCH  24  25
ATOM     25  C   UNL     1     -12.399  13.987  69.492  0.00  0.00    +0.012 C 
BRANCH  25  26
ATOM     26  C   UNL     1     -12.432  13.593  70.933  0.00  0.00    +0.114 C 
BRANCH  26  27
ATOM     27  C   UNL     1     -13.406  14.226  71.785  0.00  0.00    +0.365 C 
ATOM     28  O   UNL     1     -13.975  15.438  71.376  0.00  0.00    -0.246 OA
ATOM     29  O   UNL     1     -14.323  13.670  72.471  0.00  0.00    -0.246 OA
ENDBRANCH  26  27
ENDBRANCH  25  26
ENDBRANCH  24  25
ENDBRANCH   1  24
TORSDOF 4
ENDMDL
MODEL 2
REMARK VINA RESULT:      -7.5      1.665      2.268
REMARK  Name = 
REMARK  4 active torsions:
REMARK  status: ('A' for Active; 'I' for Inactive)
REMARK    1  A    between atoms: C_2  and  C_3
REMARK    2  A    between atoms: C_2  and  C_8
REMARK    3  A    between atoms: C_3  and  C_4
REMARK    4  A    between atoms: C_4  and  C_5
REMARK                            x       y       z     vdW  Elec       q    Type
REMARK                         _______ _______ _______ _____ _____    ______ ____
ROOT
ATOM      1  C   UNL     1     -11.405  13.225  67.657  0.00  0.00    +0.002 C 
ATOM      2  C   UNL     1     -10.123  14.175  67.513  0.00  0.00    +0.028 C 
ATOM      3  C   UNL     1     -10.837  15.516  68.025  0.00  0.00    +0.005 C 
ATOM      4  C   UNL     1      -9.351  16.228  68.271  0.00  0.00    +0.031 C 
ATOM      5  C   UNL     1      -9.476  16.838  66.718  0.00  0.00    +0.005 C 
ATOM      6  C   UNL     1      -8.726  15.531  66.125  0.00  0.00    +0.033 C 
ATOM      7  C   UNL     1      -8.154  17.747  66.759  0.00  0.00    +0.000 C 
ATOM      8  C   UNL     1      -7.635  17.641  68.307  0.00  0.00    +0.005 C 
ATOM      9  C   UNL     1      -6.445  18.665  68.035  0.00  0.00    +0.033 C 
ATOM     10  C   UNL     1      -6.760  20.247  68.059  0.00  0.00    +0.152 C 
ATOM     11  C   UNL     1      -8.206  20.257  67.265  0.00  0.00    +0.033 C 
ATOM     12  O   UNL     1      -7.352  20.229  69.467  0.00  0.00    -0.223 OA
ATOM     13  C   UNL     1      -8.858  18.581  68.843  0.00  0.00    +0.033 C 
ATOM     14  C   UNL     1      -7.092  17.293  65.873  0.00  0.00    +0.000 C 
ATOM     15  C   UNL     1      -8.413  19.139  66.445  0.00  0.00    +0.003 C 
ATOM     16  C   UNL     1     -10.037  17.494  69.145  0.00  0.00    +0.152 C 
ATOM     17  O   UNL     1     -10.932  18.012  68.035  0.00  0.00    -0.223 OA
ATOM     18  C   UNL     1     -10.904  14.802  69.484  0.00  0.00    +0.000 C 
ATOM     19  C   UNL     1      -8.974  13.806  68.184  0.00  0.00    +0.003 C 
ATOM     20  C   UNL     1      -9.901  14.398  65.912  0.00  0.00    +0.152 C 
ATOM     21  O   UNL     1     -11.038  15.386  65.697  0.00  0.00    -0.223 OA
ATOM     22  C   UNL     1     -12.011  13.954  68.979  0.00  0.00    +0.000 C 
ENDROOT
BRANCH   1  24
ATOM     23  C   UNL     1     -10.443  11.088  67.388  0.00  0.00    +0.000 C 
ATOM     24  C   UNL     1     -10.649  12.065  68.651  0.00  0.00    +0.001 C 
BRANCH  24  25
ATOM     25  C   UNL     1     -12.062  11.389  69.062  0.00  0.00    +0.012 C 
BRANCH  25  26
ATOM     26  C   UNL     1     -11.894  10.669  70.361  0.00  0.00    +0.114 C 
BRANCH  26  27
ATOM     27  C   UNL     1     -12.951  10.775  71.334  0.00  0.00    +0.365 C 
ATOM     28  O   UNL     1     -13.206   9.686  72.176  0.00  0.00    -0.246 OA
ATOM     29  O   UNL     1     -13.267  11.790  72.036  0.00  0.00    -0.246 OA
ENDBRANCH  26  27
ENDBRANCH  25  26
ENDBRANCH  24  25
ENDBRANCH   1  24
TORSDOF 4
ENDMDL
MODEL 3
REMARK VINA RESULT:      -7.3      2.390      7.353
REMARK  Name = 
REMARK  4 active torsions:
REMARK  status: ('A' for Active; 'I' for Inactive)
REMARK    1  A    between atoms: C_2  and  C_3
REMARK    2  A    between atoms: C_2  and  C_8
REMARK    3  A    between atoms: C_3  and  C_4
REMARK    4  A    between atoms: C_4  and  C_5
REMARK                            x       y       z     vdW  Elec       q    Type
REMARK                         _______ _______ _______ _____ _____    ______ ____
ROOT
ATOM      1  C   UNL     1      -4.997  18.863  67.780  0.00  0.00    +0.002 C 
ATOM      2  C   UNL     1      -6.513  18.360  67.661  0.00  0.00    +0.028 C 
ATOM      3  C   UNL     1      -6.190  16.793  67.775  0.00  0.00    +0.005 C 
ATOM      4  C   UNL     1      -7.791  16.476  68.113  0.00  0.00    +0.031 C 
ATOM      5  C   UNL     1      -8.006  16.239  66.470  0.00  0.00    +0.005 C 
ATOM      6  C   UNL     1      -8.382  17.802  66.277  0.00  0.00    +0.033 C 
ATOM      7  C   UNL     1      -9.530  15.741  66.545  0.00  0.00    +0.000 C 
ATOM      8  C   UNL     1      -9.840  15.615  68.146  0.00  0.00    +0.005 C 
ATOM      9  C   UNL     1     -11.304  15.048  67.874  0.00  0.00    +0.033 C 
ATOM     10  C   UNL     1     -11.480  13.481  67.532  0.00  0.00    +0.152 C 
ATOM     11  C   UNL     1     -10.187  13.267  66.529  0.00  0.00    +0.033 C 
ATOM     12  O   UNL     1     -10.776  13.005  68.802  0.00  0.00    -0.223 OA
ATOM     13  C   UNL     1      -8.911  14.280  68.281  0.00  0.00    +0.033 C 
ATOM     14  C   UNL     1     -10.487  16.663  65.950  0.00  0.00    +0.000 C 
ATOM     15  C   UNL     1      -9.735  14.446  65.924  0.00  0.00    +0.003 C 
ATOM     16  C   UNL     1      -7.436  14.902  68.597  0.00  0.00    +0.152 C 
ATOM     17  O   UNL     1      -6.851  14.437  67.277  0.00  0.00    -0.223 OA
ATOM     18  C   UNL     1      -5.770  17.097  69.317  0.00  0.00    +0.000 C 
ATOM     19  C   UNL     1      -7.427  18.858  68.569  0.00  0.00    +0.003 C 
ATOM     20  C   UNL     1      -6.947  18.590  66.105  0.00  0.00    +0.152 C 
ATOM     21  O   UNL     1      -6.187  17.410  65.518  0.00  0.00    -0.223 OA
ATOM     22  C   UNL     1      -4.513  17.706  68.817  0.00  0.00    +0.000 C 
ENDROOT
BRANCH   1  24
ATOM     23  C   UNL     1      -5.386  21.170  68.089  0.00  0.00    +0.000 C 
ATOM     24  C   UNL     1      -5.269  19.916  69.093  0.00  0.00    +0.001 C 
BRANCH  24  25
ATOM     25  C   UNL     1      -3.683  20.140  69.336  0.00  0.00    +0.012 C 
BRANCH  25  26
ATOM     26  C   UNL     1      -3.496  21.257  70.311  0.00  0.00    +0.114 C 
BRANCH  26  27
ATOM     27  C   UNL     1      -4.158  21.159  71.587  0.00  0.00    +0.365 C 
ATOM     28  O   UNL     1      -3.754  20.163  72.484  0.00  0.00    -0.246 OA
ATOM     29  O   UNL     1      -4.552  22.110  72.337  0.00  0.00    -0.246 OA
ENDBRANCH  26  27
ENDBRANCH  25  26
ENDBRANCH  24  25
ENDBRANCH   1  24
TORSDOF 4
ENDMDL
MODEL 4
REMARK VINA RESULT:      -7.2      2.480      4.265
REMARK  Name = 
REMARK  4 active torsions:
REMARK  status: ('A' for Active; 'I' for Inactive)
REMARK    1  A    between atoms: C_2  and  C_3
REMARK    2  A    between atoms: C_2  and  C_8
REMARK    3  A    between atoms: C_3  and  C_4
REMARK    4  A    between atoms: C_4  and  C_5
REMARK                            x       y       z     vdW  Elec       q    Type
REMARK                         _______ _______ _______ _____ _____    ______ ____
ROOT
ATOM      1  C   UNL     1     -10.640  14.048  67.643  0.00  0.00    +0.002 C 
ATOM      2  C   UNL     1     -10.179  15.545  67.307  0.00  0.00    +0.028 C 
ATOM      3  C   UNL     1      -8.784  15.482  68.094  0.00  0.00    +0.005 C 
ATOM      4  C   UNL     1      -8.251  16.837  67.283  0.00  0.00    +0.031 C 
ATOM      5  C   UNL     1      -8.850  17.737  68.561  0.00  0.00    +0.005 C 
ATOM      6  C   UNL     1     -10.279  17.880  67.812  0.00  0.00    +0.033 C 
ATOM      7  C   UNL     1      -8.297  19.162  68.070  0.00  0.00    +0.000 C 
ATOM      8  C   UNL     1      -7.376  18.813  66.765  0.00  0.00    +0.005 C 
ATOM      9  C   UNL     1      -6.938  20.336  66.598  0.00  0.00    +0.033 C 
ATOM     10  C   UNL     1      -5.741  20.906  67.517  0.00  0.00    +0.152 C 
ATOM     11  C   UNL     1      -6.125  20.190  68.954  0.00  0.00    +0.033 C 
ATOM     12  O   UNL     1      -4.736  19.843  67.074  0.00  0.00    -0.223 OA
ATOM     13  C   UNL     1      -6.204  18.158  67.693  0.00  0.00    +0.033 C 
ATOM     14  C   UNL     1      -9.337  20.101  67.676  0.00  0.00    +0.000 C 
ATOM     15  C   UNL     1      -7.473  19.823  69.064  0.00  0.00    +0.003 C 
ATOM     16  C   UNL     1      -6.668  16.598  67.805  0.00  0.00    +0.152 C 
ATOM     17  O   UNL     1      -6.953  16.689  69.292  0.00  0.00    -0.223 OA
ATOM     18  C   UNL     1      -8.304  14.427  66.953  0.00  0.00    +0.000 C 
ATOM     19  C   UNL     1     -10.109  15.910  65.977  0.00  0.00    +0.003 C 
ATOM     20  C   UNL     1     -11.127  16.525  68.204  0.00  0.00    +0.152 C 
ATOM     21  O   UNL     1     -10.439  16.286  69.540  0.00  0.00    -0.223 OA
ATOM     22  C   UNL     1      -9.151  13.396  67.601  0.00  0.00    +0.000 C 
ENDROOT
BRANCH   1  24
ATOM     23  C   UNL     1     -12.466  13.845  66.163  0.00  0.00    +0.000 C 
ATOM     24  C   UNL     1     -10.885  13.576  66.023  0.00  0.00    +0.001 C 
BRANCH  24  25
ATOM     25  C   UNL     1     -11.021  12.013  66.423  0.00  0.00    +0.012 C 
BRANCH  25  26
ATOM     26  C   UNL     1     -10.571  11.177  65.269  0.00  0.00    +0.114 C 
BRANCH  26  27
ATOM     27  C   UNL     1     -10.845  11.658  63.939  0.00  0.00    +0.365 C 
ATOM     28  O   UNL     1      -9.875  11.482  62.944  0.00  0.00    -0.246 OA
ATOM     29  O   UNL     1     -11.949  11.618  63.306  0.00  0.00    -0.246 OA
ENDBRANCH  26  27
ENDBRANCH  25  26
ENDBRANCH  24  25
ENDBRANCH   1  24
TORSDOF 4
ENDMDL
MODEL 5
REMARK VINA RESULT:      -7.2      2.263      7.514
REMARK  Name = 
REMARK  4 active torsions:
REMARK  status: ('A' for Active; 'I' for Inactive)
REMARK    1  A    between atoms: C_2  and  C_3
REMARK    2  A    between atoms: C_2  and  C_8
REMARK    3  A    between atoms: C_3  and  C_4
REMARK    4  A    between atoms: C_4  and  C_5
REMARK                            x       y       z     vdW  Elec       q    Type
REMARK                         _______ _______ _______ _____ _____    ______ ____
ROOT
ATOM      1  C   UNL     1      -8.130  19.564  67.615  0.00  0.00    +0.002 C 
ATOM      2  C   UNL     1      -8.606  18.093  68.037  0.00  0.00    +0.028 C 
ATOM      3  C   UNL     1      -9.121  17.649  66.585  0.00  0.00    +0.005 C 
ATOM      4  C   UNL     1      -9.115  16.052  67.059  0.00  0.00    +0.031 C 
ATOM      5  C   UNL     1     -10.720  16.257  67.487  0.00  0.00    +0.005 C 
ATOM      6  C   UNL     1     -10.283  16.679  68.988  0.00  0.00    +0.033 C 
ATOM      7  C   UNL     1     -11.019  14.725  67.858  0.00  0.00    +0.000 C 
ATOM      8  C   UNL     1      -9.658  13.928  67.426  0.00  0.00    +0.005 C 
ATOM      9  C   UNL     1     -10.292  12.520  67.817  0.00  0.00    +0.033 C 
ATOM     10  C   UNL     1     -11.271  11.788  66.764  0.00  0.00    +0.152 C 
ATOM     11  C   UNL     1     -12.132  13.091  66.230  0.00  0.00    +0.033 C 
ATOM     12  O   UNL     1     -10.249  11.798  65.627  0.00  0.00    -0.223 OA
ATOM     13  C   UNL     1      -9.995  14.092  65.837  0.00  0.00    +0.033 C 
ATOM     14  C   UNL     1     -11.273  14.493  69.272  0.00  0.00    +0.000 C 
ATOM     15  C   UNL     1     -12.140  14.171  67.122  0.00  0.00    +0.003 C 
ATOM     16  C   UNL     1      -9.296  15.521  65.470  0.00  0.00    +0.152 C 
ATOM     17  O   UNL     1     -10.621  16.209  65.202  0.00  0.00    -0.223 OA
ATOM     18  C   UNL     1      -7.558  17.677  66.135  0.00  0.00    +0.000 C 
ATOM     19  C   UNL     1      -7.674  17.264  68.630  0.00  0.00    +0.003 C 
ATOM     20  C   UNL     1      -9.961  18.292  68.925  0.00  0.00    +0.152 C 
ATOM     21  O   UNL     1     -10.903  18.597  67.769  0.00  0.00    -0.223 OA
ATOM     22  C   UNL     1      -7.625  19.159  66.123  0.00  0.00    +0.000 C 
ENDROOT
BRANCH   1  24
ATOM     23  C   UNL     1      -6.945  20.097  69.584  0.00  0.00    +0.000 C 
ATOM     24  C   UNL     1      -6.534  19.400  68.192  0.00  0.00    +0.001 C 
BRANCH  24  25
ATOM     25  C   UNL     1      -6.071  20.799  67.522  0.00  0.00    +0.012 C 
BRANCH  25  26
ATOM     26  C   UNL     1      -4.578  20.833  67.454  0.00  0.00    +0.114 C 
BRANCH  26  27
ATOM     27  C   UNL     1      -3.886  19.599  67.182  0.00  0.00    +0.365 C 
ATOM     28  O   UNL     1      -3.918  19.079  65.883  0.00  0.00    -0.246 OA
ATOM     29  O   UNL     1      -2.760  19.218  67.641  0.00  0.00    -0.246 OA
ENDBRANCH  26  27
ENDBRANCH  25  26
ENDBRANCH  24  25
ENDBRANCH   1  24
TORSDOF 4
ENDMDL
MODEL 6
REMARK VINA RESULT:      -7.2      2.960      3.964
REMARK  Name = 
REMARK  4 active torsions:
REMARK  status: ('A' for Active; 'I' for Inactive)
REMARK    1  A    between atoms: C_2  and  C_3
REMARK    2  A    between atoms: C_2  and  C_8
REMARK    3  A    between atoms: C_3  and  C_4
REMARK    4  A    between atoms: C_4  and  C_5
REMARK                            x       y       z     vdW  Elec       q    Type
REMARK                         _______ _______ _______ _____ _____    ______ ____
ROOT
ATOM      1  C   UNL     1      -8.557  16.232  66.457  0.00  0.00    +0.002 C 
ATOM      2  C   UNL     1      -7.558  16.635  67.643  0.00  0.00    +0.028 C 
ATOM      3  C   UNL     1      -7.331  18.152  67.177  0.00  0.00    +0.005 C 
ATOM      4  C   UNL     1      -6.719  18.535  68.679  0.00  0.00    +0.031 C 
ATOM      5  C   UNL     1      -5.203  18.193  68.058  0.00  0.00    +0.005 C 
ATOM      6  C   UNL     1      -5.338  16.651  68.533  0.00  0.00    +0.033 C 
ATOM      7  C   UNL     1      -4.360  18.657  69.342  0.00  0.00    +0.000 C 
ATOM      8  C   UNL     1      -5.472  19.316  70.345  0.00  0.00    +0.005 C 
ATOM      9  C   UNL     1      -4.355  19.728  71.403  0.00  0.00    +0.033 C 
ATOM     10  C   UNL     1      -3.511  21.080  71.157  0.00  0.00    +0.152 C 
ATOM     11  C   UNL     1      -3.266  20.965  69.529  0.00  0.00    +0.033 C 
ATOM     12  O   UNL     1      -4.747  21.975  71.068  0.00  0.00    -0.223 OA
ATOM     13  C   UNL     1      -5.632  20.635  69.397  0.00  0.00    +0.033 C 
ATOM     14  C   UNL     1      -3.684  17.570  70.036  0.00  0.00    +0.000 C 
ATOM     15  C   UNL     1      -3.357  19.659  69.031  0.00  0.00    +0.003 C 
ATOM     16  C   UNL     1      -6.807  20.186  68.357  0.00  0.00    +0.152 C 
ATOM     17  O   UNL     1      -5.879  20.185  67.158  0.00  0.00    -0.223 OA
ATOM     18  C   UNL     1      -8.887  18.401  67.582  0.00  0.00    +0.000 C 
ATOM     19  C   UNL     1      -7.998  16.458  68.940  0.00  0.00    +0.003 C 
ATOM     20  C   UNL     1      -6.146  15.880  67.324  0.00  0.00    +0.152 C 
ATOM     21  O   UNL     1      -5.683  16.804  66.208  0.00  0.00    -0.223 OA
ATOM     22  C   UNL     1      -9.286  17.682  66.347  0.00  0.00    +0.000 C 
ENDROOT
BRANCH   1  24
ATOM     23  C   UNL     1      -9.320  14.162  67.294  0.00  0.00    +0.000 C 
ATOM     24  C   UNL     1      -9.814  15.684  67.471  0.00  0.00    +0.001 C 
BRANCH  24  25
ATOM     25  C   UNL     1     -10.861  15.586  66.241  0.00  0.00    +0.012 C 
BRANCH  25  26
ATOM     26  C   UNL     1     -11.655  14.328  66.381  0.00  0.00    +0.114 C 
BRANCH  26  27
ATOM     27  C   UNL     1     -12.616  14.017  65.354  0.00  0.00    +0.365 C 
ATOM     28  O   UNL     1     -12.561  14.716  64.142  0.00  0.00    -0.246 OA
ATOM     29  O   UNL     1     -13.070  12.871  65.030  0.00  0.00    -0.246 OA
ENDBRANCH  26  27
ENDBRANCH  25  26
ENDBRANCH  24  25
ENDBRANCH   1  24
TORSDOF 4
ENDMDL
MODEL 7
REMARK VINA RESULT:      -7.1      2.831      3.987
REMARK  Name = 
REMARK  4 active torsions:
REMARK  status: ('A' for Active; 'I' for Inactive)
REMARK    1  A    between atoms: C_2  and  C_3
REMARK    2  A    between atoms: C_2  and  C_8
REMARK    3  A    between atoms: C_3  and  C_4
REMARK    4  A    between atoms: C_4  and  C_5
REMARK                            x       y       z     vdW  Elec       q    Type
REMARK                         _______ _______ _______ _____ _____    ______ ____
ROOT
ATOM      1  C   UNL     1      -9.593  16.271  67.396  0.00  0.00    +0.002 C 
ATOM      2  C   UNL     1      -8.451  17.365  67.136  0.00  0.00    +0.028 C 
ATOM      3  C   UNL     1      -7.657  17.123  68.508  0.00  0.00    +0.005 C 
ATOM      4  C   UNL     1      -6.328  17.918  67.893  0.00  0.00    +0.031 C 
ATOM      5  C   UNL     1      -6.947  19.313  68.580  0.00  0.00    +0.005 C 
ATOM      6  C   UNL     1      -7.750  19.649  67.214  0.00  0.00    +0.033 C 
ATOM      7  C   UNL     1      -5.699  20.265  68.241  0.00  0.00    +0.000 C 
ATOM      8  C   UNL     1      -4.575  19.256  67.616  0.00  0.00    +0.005 C 
ATOM      9  C   UNL     1      -3.509  20.433  67.488  0.00  0.00    +0.033 C 
ATOM     10  C   UNL     1      -2.662  20.861  68.792  0.00  0.00    +0.152 C 
ATOM     11  C   UNL     1      -3.852  20.791  69.934  0.00  0.00    +0.033 C 
ATOM     12  O   UNL     1      -2.117  19.457  69.044  0.00  0.00    -0.223 OA
ATOM     13  C   UNL     1      -4.269  18.596  69.078  0.00  0.00    +0.033 C 
ATOM     14  C   UNL     1      -5.992  21.307  67.267  0.00  0.00    +0.000 C 
ATOM     15  C   UNL     1      -5.147  20.914  69.415  0.00  0.00    +0.003 C 
ATOM     16  C   UNL     1      -5.349  17.375  69.152  0.00  0.00    +0.152 C 
ATOM     17  O   UNL     1      -6.138  18.013  70.279  0.00  0.00    -0.223 OA
ATOM     18  C   UNL     1      -7.256  15.669  67.900  0.00  0.00    +0.000 C 
ATOM     19  C   UNL     1      -7.709  17.253  65.978  0.00  0.00    +0.003 C 
ATOM     20  C   UNL     1      -9.168  18.820  67.313  0.00  0.00    +0.152 C 
ATOM     21  O   UNL     1      -9.243  18.813  68.833  0.00  0.00    -0.223 OA
ATOM     22  C   UNL     1      -8.639  15.211  68.178  0.00  0.00    +0.000 C 
ENDROOT
BRANCH   1  24
ATOM     23  C   UNL     1     -10.610  16.147  65.271  0.00  0.00    +0.000 C 
ATOM     24  C   UNL     1      -9.344  15.414  65.943  0.00  0.00    +0.001 C 
BRANCH  24  25
ATOM     25  C   UNL     1     -10.224  14.154  66.451  0.00  0.00    +0.012 C 
BRANCH  25  26
ATOM     26  C   UNL     1     -10.708  13.391  65.260  0.00  0.00    +0.114 C 
BRANCH  26  27
ATOM     27  C   UNL     1     -11.850  12.529  65.428  0.00  0.00    +0.365 C 
ATOM     28  O   UNL     1     -12.041  11.894  66.661  0.00  0.00    -0.246 OA
ATOM     29  O   UNL     1     -13.030  12.700  64.982  0.00  0.00    -0.246 OA
ENDBRANCH  26  27
ENDBRANCH  25  26
ENDBRANCH  24  25
ENDBRANCH   1  24
TORSDOF 4
ENDMDL
MODEL 8
REMARK VINA RESULT:      -7.0      2.520      7.253
REMARK  Name = 
REMARK  4 active torsions:
REMARK  status: ('A' for Active; 'I' for Inactive)
REMARK    1  A    between atoms: C_2  and  C_3
REMARK    2  A    between atoms: C_2  and  C_8
REMARK    3  A    between atoms: C_3  and  C_4
REMARK    4  A    between atoms: C_4  and  C_5
REMARK                            x       y       z     vdW  Elec       q    Type
REMARK                         _______ _______ _______ _____ _____    ______ ____
ROOT
ATOM      1  C   UNL     1      -6.813  17.517  69.131  0.00  0.00    +0.002 C 
ATOM      2  C   UNL     1      -7.309  16.367  68.132  0.00  0.00    +0.028 C 
ATOM      3  C   UNL     1      -8.856  16.788  68.130  0.00  0.00    +0.005 C 
ATOM      4  C   UNL     1      -9.115  15.876  66.760  0.00  0.00    +0.031 C 
ATOM      5  C   UNL     1      -9.534  14.615  67.778  0.00  0.00    +0.005 C 
ATOM      6  C   UNL     1      -7.998  14.102  67.801  0.00  0.00    +0.033 C 
ATOM      7  C   UNL     1     -10.002  13.591  66.635  0.00  0.00    +0.000 C 
ATOM      8  C   UNL     1      -9.943  14.466  65.255  0.00  0.00    +0.005 C 
ATOM      9  C   UNL     1     -10.520  13.254  64.396  0.00  0.00    +0.033 C 
ATOM     10  C   UNL     1     -12.113  13.001  64.381  0.00  0.00    +0.152 C 
ATOM     11  C   UNL     1     -12.455  13.272  65.973  0.00  0.00    +0.033 C 
ATOM     12  O   UNL     1     -12.452  14.413  63.904  0.00  0.00    -0.223 OA
ATOM     13  C   UNL     1     -11.265  15.326  65.673  0.00  0.00    +0.033 C 
ATOM     14  C   UNL     1      -9.143  12.424  66.491  0.00  0.00    +0.000 C 
ATOM     15  C   UNL     1     -11.357  13.108  66.827  0.00  0.00    +0.003 C 
ATOM     16  C   UNL     1     -10.629  16.573  66.513  0.00  0.00    +0.152 C 
ATOM     17  O   UNL     1     -11.247  16.130  67.825  0.00  0.00    -0.223 OA
ATOM     18  C   UNL     1      -8.386  18.125  67.332  0.00  0.00    +0.000 C 
ATOM     19  C   UNL     1      -6.701  16.287  66.896  0.00  0.00    +0.003 C 
ATOM     20  C   UNL     1      -7.251  14.974  68.980  0.00  0.00    +0.152 C 
ATOM     21  O   UNL     1      -8.499  15.209  69.819  0.00  0.00    -0.223 OA
ATOM     22  C   UNL     1      -7.851  18.656  68.610  0.00  0.00    +0.000 C 
ENDROOT
BRANCH   1  24
ATOM     23  C   UNL     1      -4.471  17.351  68.901  0.00  0.00    +0.000 C 
ATOM     24  C   UNL     1      -5.615  18.143  68.091  0.00  0.00    +0.001 C 
BRANCH  24  25
ATOM     25  C   UNL     1      -5.444  19.486  68.978  0.00  0.00    +0.012 C 
BRANCH  25  26
ATOM     26  C   UNL     1      -4.745  20.522  68.157  0.00  0.00    +0.114 C 
BRANCH  26  27
ATOM     27  C   UNL     1      -5.502  21.198  67.135  0.00  0.00    +0.365 C 
ATOM     28  O   UNL     1      -5.323  20.818  65.799  0.00  0.00    -0.246 OA
ATOM     29  O   UNL     1      -6.715  21.583  67.187  0.00  0.00    -0.246 OA
ENDBRANCH  26  27
ENDBRANCH  25  26
ENDBRANCH  24  25
ENDBRANCH   1  24
TORSDOF 4
ENDMDL
MODEL 9
REMARK VINA RESULT:      -7.0      2.977      3.931
REMARK  Name = 
REMARK  4 active torsions:
REMARK  status: ('A' for Active; 'I' for Inactive)
REMARK    1  A    between atoms: C_2  and  C_3
REMARK    2  A    between atoms: C_2  and  C_8
REMARK    3  A    between atoms: C_3  and  C_4
REMARK    4  A    between atoms: C_4  and  C_5
REMARK                            x       y       z     vdW  Elec       q    Type
REMARK                         _______ _______ _______ _____ _____    ______ ____
ROOT
ATOM      1  C   UNL     1      -9.106  13.678  66.897  0.00  0.00    +0.002 C 
ATOM      2  C   UNL     1      -8.536  14.867  67.807  0.00  0.00    +0.028 C 
ATOM      3  C   UNL     1      -7.942  15.744  66.603  0.00  0.00    +0.005 C 
ATOM      4  C   UNL     1      -7.844  17.073  67.604  0.00  0.00    +0.031 C 
ATOM      5  C   UNL     1      -6.273  16.602  67.939  0.00  0.00    +0.005 C 
ATOM      6  C   UNL     1      -6.788  15.722  69.198  0.00  0.00    +0.033 C 
ATOM      7  C   UNL     1      -5.873  17.880  68.822  0.00  0.00    +0.000 C 
ATOM      8  C   UNL     1      -7.156  18.886  68.691  0.00  0.00    +0.005 C 
ATOM      9  C   UNL     1      -6.430  20.014  69.550  0.00  0.00    +0.033 C 
ATOM     10  C   UNL     1      -5.367  20.983  68.822  0.00  0.00    +0.152 C 
ATOM     11  C   UNL     1      -4.589  19.881  67.871  0.00  0.00    +0.033 C 
ATOM     12  O   UNL     1      -6.349  21.452  67.750  0.00  0.00    -0.223 OA
ATOM     13  C   UNL     1      -6.782  19.256  67.145  0.00  0.00    +0.033 C 
ATOM     14  C   UNL     1      -5.647  17.585  70.230  0.00  0.00    +0.000 C 
ATOM     15  C   UNL     1      -4.690  18.562  68.330  0.00  0.00    +0.003 C 
ATOM     16  C   UNL     1      -7.573  18.106  66.301  0.00  0.00    +0.152 C 
ATOM     17  O   UNL     1      -6.295  17.448  65.814  0.00  0.00    -0.223 OA
ATOM     18  C   UNL     1      -9.488  16.001  66.165  0.00  0.00    +0.000 C 
ATOM     19  C   UNL     1      -9.421  15.511  68.648  0.00  0.00    +0.003 C 
ATOM     20  C   UNL     1      -7.228  14.263  68.575  0.00  0.00    +0.152 C 
ATOM     21  O   UNL     1      -6.275  14.303  67.389  0.00  0.00    -0.223 OA
ATOM     22  C   UNL     1      -9.531  14.616  65.637  0.00  0.00    +0.000 C 
ENDROOT
BRANCH   1  24
ATOM     23  C   UNL     1     -10.367  12.648  68.604  0.00  0.00    +0.000 C 
ATOM     24  C   UNL     1     -10.703  13.760  67.489  0.00  0.00    +0.001 C 
BRANCH  24  25
ATOM     25  C   UNL     1     -11.232  12.664  66.421  0.00  0.00    +0.012 C 
BRANCH  25  26
ATOM     26  C   UNL     1     -12.451  13.199  65.742  0.00  0.00    +0.114 C 
BRANCH  26  27
ATOM     27  C   UNL     1     -12.492  13.169  64.303  0.00  0.00    +0.365 C 
ATOM     28  O   UNL     1     -13.174  12.124  63.668  0.00  0.00    -0.246 OA
ATOM     29  O   UNL     1     -12.621  14.153  63.504  0.00  0.00    -0.246 OA
ENDBRANCH  26  27
ENDBRANCH  25  26
ENDBRANCH  24  25
ENDBRANCH   1  24
TORSDOF 4
ENDMDL
