MODEL 1
REMARK VINA RESULT:      -4.6      0.000      0.000
REMARK  Name = 
REMARK  1 active torsions:
REMARK  status: ('A' for Active; 'I' for Inactive)
REMARK    1  A    between atoms: C_7  and  C_8
REMARK                            x       y       z     vdW  Elec       q    Type
REMARK                         _______ _______ _______ _____ _____    ______ ____
ROOT
ATOM      1  C   UNL     1     -11.759  15.935  70.140  0.00  0.00    +0.408 C 
ATOM      2  N   UNL     1     -12.263  14.767  70.828  0.00  0.00    -0.157 N 
ATOM      3  C   UNL     1     -12.711  14.941  72.095  0.00  0.00    +0.249 A 
ATOM      4  C   UNL     1     -13.594  13.977  72.567  0.00  0.00    +0.071 A 
ATOM      5  C   UNL     1     -13.508  12.703  72.011  0.00  0.00    +0.012 A 
ATOM      6  C   UNL     1     -12.508  12.414  71.087  0.00  0.00    +0.076 A 
ATOM      7  C   UNL     1     -12.102  13.513  70.338  0.00  0.00    +0.290 A 
ENDROOT
BRANCH   3   8
ATOM      8  C   UNL     1     -12.131  15.962  72.977  0.00  0.00    +0.214 C 
ATOM      9  N   UNL     1     -12.838  16.221  74.033  0.00  0.00    -0.021 NA
ATOM     10  O   UNL     1     -12.356  16.766  75.177  0.00  0.00    -0.143 OA
ENDBRANCH   3   8
TORSDOF 1
ENDMDL
MODEL 2
REMARK VINA RESULT:      -4.4      6.395      7.747
REMARK  Name = 
REMARK  1 active torsions:
REMARK  status: ('A' for Active; 'I' for Inactive)
REMARK    1  A    between atoms: C_7  and  C_8
REMARK                            x       y       z     vdW  Elec       q    Type
REMARK                         _______ _______ _______ _____ _____    ______ ____
ROOT
ATOM      1  C   UNL     1     -12.148  14.138  67.096  0.00  0.00    +0.408 C 
ATOM      2  N   UNL     1     -11.819  13.544  65.819  0.00  0.00    -0.157 N 
ATOM      3  C   UNL     1     -10.743  14.043  65.164  0.00  0.00    +0.249 A 
ATOM      4  C   UNL     1     -10.162  13.206  64.218  0.00  0.00    +0.071 A 
ATOM      5  C   UNL     1     -10.982  12.253  63.619  0.00  0.00    +0.012 A 
ATOM      6  C   UNL     1     -12.343  12.225  63.909  0.00  0.00    +0.076 A 
ATOM      7  C   UNL     1     -12.653  12.685  65.184  0.00  0.00    +0.290 A 
ENDROOT
BRANCH   3   8
ATOM      8  C   UNL     1     -10.354  15.454  65.295  0.00  0.00    +0.214 C 
ATOM      9  N   UNL     1     -10.965  16.256  64.480  0.00  0.00    -0.021 NA
ATOM     10  O   UNL     1     -11.121  17.589  64.671  0.00  0.00    -0.143 OA
ENDBRANCH   3   8
TORSDOF 1
ENDMDL
MODEL 3
REMARK VINA RESULT:      -4.4      7.339      8.279
REMARK  Name = 
REMARK  1 active torsions:
REMARK  status: ('A' for Active; 'I' for Inactive)
REMARK    1  A    between atoms: C_7  and  C_8
REMARK                            x       y       z     vdW  Elec       q    Type
REMARK                         _______ _______ _______ _____ _____    ______ ____
ROOT
ATOM      1  C   UNL     1      -7.499  17.286  66.073  0.00  0.00    +0.408 C 
ATOM      2  N   UNL     1      -8.473  18.224  66.588  0.00  0.00    -0.157 N 
ATOM      3  C   UNL     1      -9.741  17.774  66.746  0.00  0.00    +0.249 A 
ATOM      4  C   UNL     1     -10.532  18.482  67.643  0.00  0.00    +0.071 A 
ATOM      5  C   UNL     1     -10.221  19.824  67.849  0.00  0.00    +0.012 A 
ATOM      6  C   UNL     1      -9.212  20.426  67.103  0.00  0.00    +0.076 A 
ATOM      7  C   UNL     1      -8.210  19.548  66.705  0.00  0.00    +0.290 A 
ENDROOT
BRANCH   3   8
ATOM      8  C   UNL     1     -10.301  16.741  65.864  0.00  0.00    +0.214 C 
ATOM      9  N   UNL     1     -11.127  17.189  64.970  0.00  0.00    -0.021 NA
ATOM     10  O   UNL     1     -11.433  16.560  63.809  0.00  0.00    -0.143 OA
ENDBRANCH   3   8
TORSDOF 1
ENDMDL
MODEL 4
REMARK VINA RESULT:      -4.2      4.256      6.278
REMARK  Name = 
REMARK  1 active torsions:
REMARK  status: ('A' for Active; 'I' for Inactive)
REMARK    1  A    between atoms: C_7  and  C_8
REMARK                            x       y       z     vdW  Elec       q    Type
REMARK                         _______ _______ _______ _____ _____    ______ ____
ROOT
ATOM      1  C   UNL     1     -10.345  16.329  65.805  0.00  0.00    +0.408 C 
ATOM      2  N   UNL     1     -10.313  17.531  66.609  0.00  0.00    -0.157 N 
ATOM      3  C   UNL     1     -10.452  17.384  67.948  0.00  0.00    +0.249 A 
ATOM      4  C   UNL     1      -9.966  18.425  68.730  0.00  0.00    +0.071 A 
ATOM      5  C   UNL     1      -9.925  19.692  68.154  0.00  0.00    +0.012 A 
ATOM      6  C   UNL     1     -10.441  19.892  66.877  0.00  0.00    +0.076 A 
ATOM      7  C   UNL     1     -10.365  18.769  66.060  0.00  0.00    +0.290 A 
ENDROOT
BRANCH   3   8
ATOM      8  C   UNL     1     -11.257  16.295  68.518  0.00  0.00    +0.214 C 
ATOM      9  N   UNL     1     -11.579  16.462  69.763  0.00  0.00    -0.021 NA
ATOM     10  O   UNL     1     -12.628  15.866  70.381  0.00  0.00    -0.143 OA
ENDBRANCH   3   8
TORSDOF 1
ENDMDL
MODEL 5
REMARK VINA RESULT:      -4.2      3.221      4.191
REMARK  Name = 
REMARK  1 active torsions:
REMARK  status: ('A' for Active; 'I' for Inactive)
REMARK    1  A    between atoms: C_7  and  C_8
REMARK                            x       y       z     vdW  Elec       q    Type
REMARK                         _______ _______ _______ _____ _____    ______ ____
ROOT
ATOM      1  C   UNL     1     -11.361  15.920  70.063  0.00  0.00    +0.408 C 
ATOM      2  N   UNL     1     -12.288  15.045  70.746  0.00  0.00    -0.157 N 
ATOM      3  C   UNL     1     -12.214  13.722  70.461  0.00  0.00    +0.249 A 
ATOM      4  C   UNL     1     -12.744  12.862  71.415  0.00  0.00    +0.071 A 
ATOM      5  C   UNL     1     -13.756  13.359  72.233  0.00  0.00    +0.012 A 
ATOM      6  C   UNL     1     -14.258  14.639  72.017  0.00  0.00    +0.076 A 
ATOM      7  C   UNL     1     -13.332  15.519  71.469  0.00  0.00    +0.290 A 
ENDROOT
BRANCH   3   8
ATOM      8  C   UNL     1     -11.797  13.248  69.134  0.00  0.00    +0.214 C 
ATOM      9  N   UNL     1     -11.945  11.973  68.950  0.00  0.00    -0.021 NA
ATOM     10  O   UNL     1     -12.053  11.369  67.741  0.00  0.00    -0.143 OA
ENDBRANCH   3   8
TORSDOF 1
ENDMDL
MODEL 6
REMARK VINA RESULT:      -4.2      2.843      3.401
REMARK  Name = 
REMARK  1 active torsions:
REMARK  status: ('A' for Active; 'I' for Inactive)
REMARK    1  A    between atoms: C_7  and  C_8
REMARK                            x       y       z     vdW  Elec       q    Type
REMARK                         _______ _______ _______ _____ _____    ______ ____
ROOT
ATOM      1  C   UNL     1     -11.676  12.790  69.326  0.00  0.00    +0.408 C 
ATOM      2  N   UNL     1     -12.419  13.451  70.376  0.00  0.00    -0.157 N 
ATOM      3  C   UNL     1     -12.426  14.806  70.370  0.00  0.00    +0.249 A 
ATOM      4  C   UNL     1     -13.474  15.413  71.051  0.00  0.00    +0.071 A 
ATOM      5  C   UNL     1     -14.052  14.702  72.101  0.00  0.00    +0.012 A 
ATOM      6  C   UNL     1     -13.519  13.476  72.486  0.00  0.00    +0.076 A 
ATOM      7  C   UNL     1     -12.906  12.781  71.449  0.00  0.00    +0.290 A 
ENDROOT
BRANCH   3   8
ATOM      8  C   UNL     1     -11.283  15.574  69.859  0.00  0.00    +0.214 C 
ATOM      9  N   UNL     1     -11.578  16.404  68.908  0.00  0.00    -0.021 NA
ATOM     10  O   UNL     1     -10.847  17.496  68.574  0.00  0.00    -0.143 OA
ENDBRANCH   3   8
TORSDOF 1
ENDMDL
MODEL 7
REMARK VINA RESULT:      -4.1      5.215      6.471
REMARK  Name = 
REMARK  1 active torsions:
REMARK  status: ('A' for Active; 'I' for Inactive)
REMARK    1  A    between atoms: C_7  and  C_8
REMARK                            x       y       z     vdW  Elec       q    Type
REMARK                         _______ _______ _______ _____ _____    ______ ____
ROOT
ATOM      1  C   UNL     1     -10.250  15.916  65.737  0.00  0.00    +0.408 C 
ATOM      2  N   UNL     1     -10.913  15.466  66.941  0.00  0.00    -0.157 N 
ATOM      3  C   UNL     1     -11.717  14.381  66.836  0.00  0.00    +0.249 A 
ATOM      4  C   UNL     1     -11.965  13.688  68.015  0.00  0.00    +0.071 A 
ATOM      5  C   UNL     1     -11.890  14.406  69.206  0.00  0.00    +0.012 A 
ATOM      6  C   UNL     1     -11.665  15.778  69.177  0.00  0.00    +0.076 A 
ATOM      7  C   UNL     1     -10.923  16.202  68.080  0.00  0.00    +0.290 A 
ENDROOT
BRANCH   3   8
ATOM      8  C   UNL     1     -12.448  14.089  65.595  0.00  0.00    +0.214 C 
ATOM      9  N   UNL     1     -12.403  12.847  65.226  0.00  0.00    -0.021 NA
ATOM     10  O   UNL     1     -13.303  12.244  64.411  0.00  0.00    -0.143 OA
ENDBRANCH   3   8
TORSDOF 1
ENDMDL
MODEL 8
REMARK VINA RESULT:      -4.1      5.294      6.566
REMARK  Name = 
REMARK  1 active torsions:
REMARK  status: ('A' for Active; 'I' for Inactive)
REMARK    1  A    between atoms: C_7  and  C_8
REMARK                            x       y       z     vdW  Elec       q    Type
REMARK                         _______ _______ _______ _____ _____    ______ ____
ROOT
ATOM      1  C   UNL     1     -11.301  16.037  68.407  0.00  0.00    +0.408 C 
ATOM      2  N   UNL     1     -11.095  14.749  67.782  0.00  0.00    -0.157 N 
ATOM      3  C   UNL     1     -10.326  14.718  66.667  0.00  0.00    +0.249 A 
ATOM      4  C   UNL     1      -9.757  13.490  66.353  0.00  0.00    +0.071 A 
ATOM      5  C   UNL     1     -10.419  12.346  66.792  0.00  0.00    +0.012 A 
ATOM      6  C   UNL     1     -11.646  12.459  67.439  0.00  0.00    +0.076 A 
ATOM      7  C   UNL     1     -11.802  13.649  68.141  0.00  0.00    +0.290 A 
ENDROOT
BRANCH   3   8
ATOM      8  C   UNL     1     -10.277  15.857  65.740  0.00  0.00    +0.214 C 
ATOM      9  N   UNL     1     -11.054  15.741  64.709  0.00  0.00    -0.021 NA
ATOM     10  O   UNL     1     -11.517  16.775  63.964  0.00  0.00    -0.143 OA
ENDBRANCH   3   8
TORSDOF 1
ENDMDL
MODEL 9
REMARK VINA RESULT:      -4.1      6.067      7.036
REMARK  Name = 
REMARK  1 active torsions:
REMARK  status: ('A' for Active; 'I' for Inactive)
REMARK    1  A    between atoms: C_7  and  C_8
REMARK                            x       y       z     vdW  Elec       q    Type
REMARK                         _______ _______ _______ _____ _____    ______ ____
ROOT
ATOM      1  C   UNL     1     -11.183  11.922  64.250  0.00  0.00    +0.408 C 
ATOM      2  N   UNL     1     -11.292  12.321  65.636  0.00  0.00    -0.157 N 
ATOM      3  C   UNL     1     -11.463  13.641  65.888  0.00  0.00    +0.249 A 
ATOM      4  C   UNL     1     -12.021  13.959  67.121  0.00  0.00    +0.071 A 
ATOM      5  C   UNL     1     -11.830  13.053  68.162  0.00  0.00    +0.012 A 
ATOM      6  C   UNL     1     -11.031  11.930  67.968  0.00  0.00    +0.076 A 
ATOM      7  C   UNL     1     -11.018  11.471  66.656  0.00  0.00    +0.290 A 
ENDROOT
BRANCH   3   8
ATOM      8  C   UNL     1     -10.896  14.668  65.004  0.00  0.00    +0.214 C 
ATOM      9  N   UNL     1     -11.776  15.433  64.438  0.00  0.00    -0.021 NA
ATOM     10  O   UNL     1     -11.530  16.674  63.950  0.00  0.00    -0.143 OA
ENDBRANCH   3   8
TORSDOF 1
ENDMDL
