MODEL 1
REMARK VINA RESULT:      -4.5      0.000      0.000
REMARK  Name = 
REMARK  5 active torsions:
REMARK  status: ('A' for Active; 'I' for Inactive)
REMARK    1  A    between atoms: C_2  and  C_4
REMARK    2  A    between atoms: C_4  and  C_5
REMARK    3  A    between atoms: C_5  and  C_6
REMARK    4  A    between atoms: C_5  and  C_8
REMARK    5  A    between atoms: C_8  and  C_9
REMARK                            x       y       z     vdW  Elec       q    Type
REMARK                         _______ _______ _______ _____ _____    ______ ____
ROOT
ATOM      1  C   UNL     1     -12.160  14.071  66.054  0.00  0.00    +0.030 C 
ENDROOT
BRANCH   1   2
ATOM      2  C   UNL     1     -12.100  12.536  65.432  0.00  0.00    +0.110 C 
ATOM      3  N   UNL     1     -13.156  12.456  64.470  0.00  0.00    -0.131 NA
ENDBRANCH   1   2
BRANCH   1   4
ATOM      4  C   UNL     1     -11.188  13.656  67.334  0.00  0.00    +0.002 C 
BRANCH   4   6
ATOM      5  C   UNL     1     -11.626  15.671  68.662  0.00  0.00    +0.000 C 
ATOM      6  C   UNL     1     -11.962  14.284  68.460  0.00  0.00    +0.000 C 
ATOM      7  C   UNL     1     -11.885  13.548  69.757  0.00  0.00    +0.000 C 
ENDBRANCH   4   6
ENDBRANCH   1   4
BRANCH   1   8
ATOM      8  C   UNL     1     -10.945  14.596  65.065  0.00  0.00    +0.116 C 
BRANCH   8   9
ATOM      9  C   UNL     1     -10.992  16.012  64.895  0.00  0.00    +0.365 C 
ATOM     10  O   UNL     1      -9.939  16.757  65.440  0.00  0.00    -0.246 OA
ATOM     11  O   UNL     1     -11.567  16.619  63.941  0.00  0.00    -0.246 OA
ENDBRANCH   8   9
ENDBRANCH   1   8
TORSDOF 5
ENDMDL
MODEL 2
REMARK VINA RESULT:      -4.3      1.632      3.573
REMARK  Name = 
REMARK  5 active torsions:
REMARK  status: ('A' for Active; 'I' for Inactive)
REMARK    1  A    between atoms: C_2  and  C_4
REMARK    2  A    between atoms: C_4  and  C_5
REMARK    3  A    between atoms: C_5  and  C_6
REMARK    4  A    between atoms: C_5  and  C_8
REMARK    5  A    between atoms: C_8  and  C_9
REMARK                            x       y       z     vdW  Elec       q    Type
REMARK                         _______ _______ _______ _____ _____    ______ ____
ROOT
ATOM      1  C   UNL     1     -10.955  13.661  65.979  0.00  0.00    +0.030 C 
ENDROOT
BRANCH   1   2
ATOM      2  C   UNL     1     -11.636  13.203  67.420  0.00  0.00    +0.110 C 
ATOM      3  N   UNL     1     -11.911  11.804  67.301  0.00  0.00    -0.131 NA
ENDBRANCH   1   2
BRANCH   1   4
ATOM      4  C   UNL     1     -12.377  13.413  65.159  0.00  0.00    +0.002 C 
BRANCH   4   6
ATOM      5  C   UNL     1     -12.643  11.819  63.314  0.00  0.00    +0.000 C 
ATOM      6  C   UNL     1     -11.836  12.882  63.860  0.00  0.00    +0.000 C 
ATOM      7  C   UNL     1     -10.404  12.461  63.906  0.00  0.00    +0.000 C 
ENDBRANCH   4   6
ENDBRANCH   1   4
BRANCH   1   8
ATOM      8  C   UNL     1     -11.201  15.264  66.292  0.00  0.00    +0.116 C 
BRANCH   8   9
ATOM      9  C   UNL     1     -10.500  16.086  65.360  0.00  0.00    +0.365 C 
ATOM     10  O   UNL     1     -11.255  16.695  64.349  0.00  0.00    -0.246 OA
ATOM     11  O   UNL     1      -9.420  16.709  65.595  0.00  0.00    -0.246 OA
ENDBRANCH   8   9
ENDBRANCH   1   8
TORSDOF 5
ENDMDL
MODEL 3
REMARK VINA RESULT:      -4.3      0.872      1.047
REMARK  Name = 
REMARK  5 active torsions:
REMARK  status: ('A' for Active; 'I' for Inactive)
REMARK    1  A    between atoms: C_2  and  C_4
REMARK    2  A    between atoms: C_4  and  C_5
REMARK    3  A    between atoms: C_5  and  C_6
REMARK    4  A    between atoms: C_5  and  C_8
REMARK    5  A    between atoms: C_8  and  C_9
REMARK                            x       y       z     vdW  Elec       q    Type
REMARK                         _______ _______ _______ _____ _____    ______ ____
ROOT
ATOM      1  C   UNL     1     -11.993  13.938  66.039  0.00  0.00    +0.030 C 
ENDROOT
BRANCH   1   2
ATOM      2  C   UNL     1     -12.139  12.528  65.180  0.00  0.00    +0.110 C 
ATOM      3  N   UNL     1     -12.761  12.881  63.941  0.00  0.00    -0.131 NA
ENDBRANCH   1   2
BRANCH   1   4
ATOM      4  C   UNL     1     -10.898  13.259  67.086  0.00  0.00    +0.002 C 
BRANCH   4   6
ATOM      5  C   UNL     1     -11.845  13.849  69.270  0.00  0.00    +0.000 C 
ATOM      6  C   UNL     1     -11.820  12.873  68.209  0.00  0.00    +0.000 C 
ATOM      7  C   UNL     1     -11.578  11.513  68.776  0.00  0.00    +0.000 C 
ENDBRANCH   4   6
ENDBRANCH   1   4
BRANCH   1   8
ATOM      8  C   UNL     1     -10.881  14.550  64.982  0.00  0.00    +0.116 C 
BRANCH   8   9
ATOM      9  C   UNL     1     -10.997  15.967  64.871  0.00  0.00    +0.365 C 
ATOM     10  O   UNL     1      -9.990  16.741  65.462  0.00  0.00    -0.246 OA
ATOM     11  O   UNL     1     -11.592  16.585  63.936  0.00  0.00    -0.246 OA
ENDBRANCH   8   9
ENDBRANCH   1   8
TORSDOF 5
ENDMDL
MODEL 4
REMARK VINA RESULT:      -4.2      2.952      4.528
REMARK  Name = 
REMARK  5 active torsions:
REMARK  status: ('A' for Active; 'I' for Inactive)
REMARK    1  A    between atoms: C_2  and  C_4
REMARK    2  A    between atoms: C_4  and  C_5
REMARK    3  A    between atoms: C_5  and  C_6
REMARK    4  A    between atoms: C_5  and  C_8
REMARK    5  A    between atoms: C_8  and  C_9
REMARK                            x       y       z     vdW  Elec       q    Type
REMARK                         _______ _______ _______ _____ _____    ______ ____
ROOT
ATOM      1  C   UNL     1     -11.527  14.195  65.210  0.00  0.00    +0.030 C 
ENDROOT
BRANCH   1   2
ATOM      2  C   UNL     1     -10.845  15.692  65.005  0.00  0.00    +0.110 C 
ATOM      3  N   UNL     1     -11.623  16.348  64.000  0.00  0.00    -0.131 NA
ENDBRANCH   1   2
BRANCH   1   4
ATOM      4  C   UNL     1     -10.219  13.438  64.522  0.00  0.00    +0.002 C 
BRANCH   4   6
ATOM      5  C   UNL     1     -12.358  12.587  63.675  0.00  0.00    +0.000 C 
ATOM      6  C   UNL     1     -10.927  12.405  63.690  0.00  0.00    +0.000 C 
ATOM      7  C   UNL     1     -10.598  10.991  64.038  0.00  0.00    +0.000 C 
ENDBRANCH   4   6
ENDBRANCH   1   4
BRANCH   1   8
ATOM      8  C   UNL     1     -10.999  14.090  66.771  0.00  0.00    +0.116 C 
BRANCH   8   9
ATOM      9  C   UNL     1     -11.867  13.275  67.557  0.00  0.00    +0.365 C 
ATOM     10  O   UNL     1     -12.009  11.935  67.175  0.00  0.00    -0.246 OA
ATOM     11  O   UNL     1     -12.133  13.456  68.785  0.00  0.00    -0.246 OA
ENDBRANCH   8   9
ENDBRANCH   1   8
TORSDOF 5
ENDMDL
MODEL 5
REMARK VINA RESULT:      -4.2      2.742      3.373
REMARK  Name = 
REMARK  5 active torsions:
REMARK  status: ('A' for Active; 'I' for Inactive)
REMARK    1  A    between atoms: C_2  and  C_4
REMARK    2  A    between atoms: C_4  and  C_5
REMARK    3  A    between atoms: C_5  and  C_6
REMARK    4  A    between atoms: C_5  and  C_8
REMARK    5  A    between atoms: C_8  and  C_9
REMARK                            x       y       z     vdW  Elec       q    Type
REMARK                         _______ _______ _______ _____ _____    ______ ____
ROOT
ATOM      1  C   UNL     1     -10.578  14.566  65.364  0.00  0.00    +0.030 C 
ENDROOT
BRANCH   1   2
ATOM      2  C   UNL     1     -10.620  16.220  65.449  0.00  0.00    +0.110 C 
ATOM      3  N   UNL     1     -11.299  16.661  64.270  0.00  0.00    -0.131 NA
ENDBRANCH   1   2
BRANCH   1   4
ATOM      4  C   UNL     1     -11.314  14.410  66.844  0.00  0.00    +0.002 C 
BRANCH   4   6
ATOM      5  C   UNL     1      -9.398  12.893  66.638  0.00  0.00    +0.000 C 
ATOM      6  C   UNL     1     -10.622  13.174  67.348  0.00  0.00    +0.000 C 
ATOM      7  C   UNL     1     -11.478  11.951  67.388  0.00  0.00    +0.000 C 
ENDBRANCH   4   6
ENDBRANCH   1   4
BRANCH   1   8
ATOM      8  C   UNL     1     -11.963  14.506  64.465  0.00  0.00    +0.116 C 
BRANCH   8   9
ATOM      9  C   UNL     1     -12.171  13.205  63.919  0.00  0.00    +0.365 C 
ATOM     10  O   UNL     1     -11.039  12.507  63.478  0.00  0.00    -0.246 OA
ATOM     11  O   UNL     1     -13.129  12.428  64.216  0.00  0.00    -0.246 OA
ENDBRANCH   8   9
ENDBRANCH   1   8
TORSDOF 5
ENDMDL
MODEL 6
REMARK VINA RESULT:      -4.1      4.067      5.229
REMARK  Name = 
REMARK  5 active torsions:
REMARK  status: ('A' for Active; 'I' for Inactive)
REMARK    1  A    between atoms: C_2  and  C_4
REMARK    2  A    between atoms: C_4  and  C_5
REMARK    3  A    between atoms: C_5  and  C_6
REMARK    4  A    between atoms: C_5  and  C_8
REMARK    5  A    between atoms: C_8  and  C_9
REMARK                            x       y       z     vdW  Elec       q    Type
REMARK                         _______ _______ _______ _____ _____    ______ ____
ROOT
ATOM      1  C   UNL     1     -11.822  14.423  70.719  0.00  0.00    +0.030 C 
ENDROOT
BRANCH   1   2
ATOM      2  C   UNL     1     -10.932  15.736  70.240  0.00  0.00    +0.110 C 
ATOM      3  N   UNL     1     -11.663  16.343  69.170  0.00  0.00    -0.131 NA
ENDBRANCH   1   2
BRANCH   1   4
ATOM      4  C   UNL     1     -13.185  15.348  70.930  0.00  0.00    +0.002 C 
BRANCH   4   6
ATOM      5  C   UNL     1     -12.845  15.328  73.359  0.00  0.00    +0.000 C 
ATOM      6  C   UNL     1     -13.643  14.830  72.266  0.00  0.00    +0.000 C 
ATOM      7  C   UNL     1     -13.755  13.343  72.354  0.00  0.00    +0.000 C 
ENDBRANCH   4   6
ENDBRANCH   1   4
BRANCH   1   8
ATOM      8  C   UNL     1     -12.141  13.982  69.159  0.00  0.00    +0.116 C 
BRANCH   8   9
ATOM      9  C   UNL     1     -11.796  12.618  68.926  0.00  0.00    +0.365 C 
ATOM     10  O   UNL     1     -11.714  11.778  70.044  0.00  0.00    -0.246 OA
ATOM     11  O   UNL     1     -12.023  11.974  67.856  0.00  0.00    -0.246 OA
ENDBRANCH   8   9
ENDBRANCH   1   8
TORSDOF 5
ENDMDL
MODEL 7
REMARK VINA RESULT:      -4.0      3.342      4.528
REMARK  Name = 
REMARK  5 active torsions:
REMARK  status: ('A' for Active; 'I' for Inactive)
REMARK    1  A    between atoms: C_2  and  C_4
REMARK    2  A    between atoms: C_4  and  C_5
REMARK    3  A    between atoms: C_5  and  C_6
REMARK    4  A    between atoms: C_5  and  C_8
REMARK    5  A    between atoms: C_8  and  C_9
REMARK                            x       y       z     vdW  Elec       q    Type
REMARK                         _______ _______ _______ _____ _____    ______ ____
ROOT
ATOM      1  C   UNL     1     -10.537  17.285  67.020  0.00  0.00    +0.030 C 
ENDROOT
BRANCH   1   2
ATOM      2  C   UNL     1     -10.383  16.393  68.409  0.00  0.00    +0.110 C 
ATOM      3  N   UNL     1     -11.692  16.318  68.980  0.00  0.00    -0.131 NA
ENDBRANCH   1   2
BRANCH   1   4
ATOM      4  C   UNL     1      -9.071  18.026  67.261  0.00  0.00    +0.002 C 
BRANCH   4   6
ATOM      5  C   UNL     1     -10.007  20.040  68.301  0.00  0.00    +0.000 C 
ATOM      6  C   UNL     1      -9.477  19.463  67.090  0.00  0.00    +0.000 C 
ATOM      7  C   UNL     1     -10.414  19.717  65.955  0.00  0.00    +0.000 C 
ENDBRANCH   4   6
ENDBRANCH   1   4
BRANCH   1   8
ATOM      8  C   UNL     1      -9.968  16.052  66.080  0.00  0.00    +0.116 C 
BRANCH   8   9
ATOM      9  C   UNL     1     -10.900  15.708  65.057  0.00  0.00    +0.365 C 
ATOM     10  O   UNL     1     -11.308  16.731  64.191  0.00  0.00    -0.246 OA
ATOM     11  O   UNL     1     -11.030  14.558  64.538  0.00  0.00    -0.246 OA
ENDBRANCH   8   9
ENDBRANCH   1   8
TORSDOF 5
ENDMDL
MODEL 8
REMARK VINA RESULT:      -4.0      5.277      6.803
REMARK  Name = 
REMARK  5 active torsions:
REMARK  status: ('A' for Active; 'I' for Inactive)
REMARK    1  A    between atoms: C_2  and  C_4
REMARK    2  A    between atoms: C_4  and  C_5
REMARK    3  A    between atoms: C_5  and  C_6
REMARK    4  A    between atoms: C_5  and  C_8
REMARK    5  A    between atoms: C_8  and  C_9
REMARK                            x       y       z     vdW  Elec       q    Type
REMARK                         _______ _______ _______ _____ _____    ______ ____
ROOT
ATOM      1  C   UNL     1     -12.490  14.855  71.589  0.00  0.00    +0.030 C 
ENDROOT
BRANCH   1   2
ATOM      2  C   UNL     1     -14.120  15.153  71.595  0.00  0.00    +0.110 C 
ATOM      3  N   UNL     1     -14.733  13.992  72.164  0.00  0.00    -0.131 NA
ENDBRANCH   1   2
BRANCH   1   4
ATOM      4  C   UNL     1     -12.299  15.593  70.114  0.00  0.00    +0.002 C 
BRANCH   4   6
ATOM      5  C   UNL     1     -11.705  14.613  67.945  0.00  0.00    +0.000 C 
ATOM      6  C   UNL     1     -11.563  14.509  69.376  0.00  0.00    +0.000 C 
ATOM      7  C   UNL     1     -11.888  13.120  69.820  0.00  0.00    +0.000 C 
ENDBRANCH   4   6
ENDBRANCH   1   4
BRANCH   1   8
ATOM      8  C   UNL     1     -12.170  16.192  72.505  0.00  0.00    +0.116 C 
BRANCH   8   9
ATOM      9  C   UNL     1     -12.145  15.873  73.895  0.00  0.00    +0.365 C 
ATOM     10  O   UNL     1     -12.539  16.876  74.790  0.00  0.00    -0.246 OA
ATOM     11  O   UNL     1     -12.281  14.710  74.385  0.00  0.00    -0.246 OA
ENDBRANCH   8   9
ENDBRANCH   1   8
TORSDOF 5
ENDMDL
MODEL 9
REMARK VINA RESULT:      -3.9      2.605      4.164
REMARK  Name = 
REMARK  5 active torsions:
REMARK  status: ('A' for Active; 'I' for Inactive)
REMARK    1  A    between atoms: C_2  and  C_4
REMARK    2  A    between atoms: C_4  and  C_5
REMARK    3  A    between atoms: C_5  and  C_6
REMARK    4  A    between atoms: C_5  and  C_8
REMARK    5  A    between atoms: C_8  and  C_9
REMARK                            x       y       z     vdW  Elec       q    Type
REMARK                         _______ _______ _______ _____ _____    ______ ____
ROOT
ATOM      1  C   UNL     1     -11.366  14.773  65.905  0.00  0.00    +0.030 C 
ENDROOT
BRANCH   1   2
ATOM      2  C   UNL     1     -10.551  16.086  65.305  0.00  0.00    +0.110 C 
ATOM      3  N   UNL     1     -11.368  16.615  64.256  0.00  0.00    -0.131 NA
ENDBRANCH   1   2
BRANCH   1   4
ATOM      4  C   UNL     1     -10.216  13.721  65.331  0.00  0.00    +0.002 C 
BRANCH   4   6
ATOM      5  C   UNL     1     -10.813  12.146  63.548  0.00  0.00    +0.000 C 
ATOM      6  C   UNL     1     -11.101  12.588  64.889  0.00  0.00    +0.000 C 
ATOM      7  C   UNL     1     -12.565  12.846  65.036  0.00  0.00    +0.000 C 
ENDBRANCH   4   6
ENDBRANCH   1   4
BRANCH   1   8
ATOM      8  C   UNL     1     -10.707  14.962  67.408  0.00  0.00    +0.116 C 
BRANCH   8   9
ATOM      9  C   UNL     1     -11.714  15.218  68.385  0.00  0.00    +0.365 C 
ATOM     10  O   UNL     1     -12.173  14.126  69.133  0.00  0.00    -0.246 OA
ATOM     11  O   UNL     1     -11.891  16.321  68.986  0.00  0.00    -0.246 OA
ENDBRANCH   8   9
ENDBRANCH   1   8
TORSDOF 5
ENDMDL
