MODEL 1
REMARK VINA RESULT:      -7.6      0.000      0.000
REMARK  Name = 
REMARK  12 active torsions:
REMARK  status: ('A' for Active; 'I' for Inactive)
REMARK    1  A    between atoms: C_2  and  O_3
REMARK    2  A    between atoms: O_3  and  C_4
REMARK    3  A    between atoms: C_9  and  C_10
REMARK    4  A    between atoms: C_12  and  N_13
REMARK    5  A    between atoms: N_13  and  C_14
REMARK    6  A    between atoms: C_17  and  O_18
REMARK    7  A    between atoms: O_18  and  C_19
REMARK    8  A    between atoms: C_19  and  C_20
REMARK    9  A    between atoms: C_31  and  N_32
REMARK   10  A    between atoms: C_33  and  C_35
REMARK   11  A    between atoms: C_36  and  C_37
REMARK   12  A    between atoms: C_37  and  N_38
REMARK                            x       y       z     vdW  Elec       q    Type
REMARK                         _______ _______ _______ _____ _____    ______ ____
ROOT
ATOM      1  C   UNL     1     -12.138  14.494  71.289  0.00  0.00    +0.155 A 
ATOM      2  C   UNL     1     -12.303  13.391  70.482  0.00  0.00    +0.108 A 
ATOM      3  C   UNL     1     -11.843  13.396  69.171  0.00  0.00    +0.023 A 
ATOM      4  C   UNL     1     -11.048  14.429  68.689  0.00  0.00    +0.035 A 
ATOM      5  C   UNL     1     -11.001  15.563  69.490  0.00  0.00    +0.086 A 
ATOM      6  N   UNL     1     -10.560  16.729  68.992  0.00  0.00    -0.243 NA
ATOM      7  C   UNL     1     -10.435  16.875  67.660  0.00  0.00    +0.110 A 
ATOM      8  C   UNL     1     -10.688  15.846  66.775  0.00  0.00    +0.103 A 
ATOM      9  C   UNL     1     -10.793  14.577  67.329  0.00  0.00    +0.083 A 
ATOM     10  C   UNL     1     -11.329  15.503  70.832  0.00  0.00    +0.057 A 
ENDROOT
BRANCH   2  11
ATOM     11  N   UNL     1     -12.866  12.193  71.028  0.00  0.00    -0.172 NA
ATOM     12  C   UNL     1     -12.230  10.933  70.797  0.00  0.00    +0.269 C 
ATOM     13  O   UNL     1     -11.700  10.765  69.660  0.00  0.00    -0.268 OA
BRANCH  12  14
ATOM     14  C   UNL     1     -12.561   9.735  71.538  0.00  0.00    +0.057 C 
ATOM     15  C   UNL     1     -12.045   8.548  71.324  0.00  0.00    -0.004 C 
BRANCH  15  16
ATOM     16  C   UNL     1     -11.609   7.616  72.384  0.00  0.00    +0.099 C 
BRANCH  16  17
ATOM     17  N   UNL     1     -10.353   7.981  72.987  0.00  0.00    -0.267 NA
ATOM     18  C   UNL     1      -9.371   8.433  72.026  0.00  0.00    +0.090 C 
ATOM     19  C   UNL     1      -9.837   6.987  73.892  0.00  0.00    +0.090 C 
ENDBRANCH  16  17
ENDBRANCH  15  16
ENDBRANCH  12  14
ENDBRANCH   2  11
BRANCH   8  20
ATOM     20  C   UNL     1     -10.890  16.087  65.365  0.00  0.00    +0.103 C 
ATOM     21  N   UNL     1     -11.095  16.717  64.411  0.00  0.00    -0.191 NA
ENDBRANCH   8  20
BRANCH   1  22
ATOM     22  O   UNL     1     -12.857  14.556  72.472  0.00  0.00    -0.474 OA
BRANCH  22  24
ATOM     23  C   UNL     1     -12.428  15.703  74.563  0.00  0.00    +0.051 C 
ATOM     24  C   UNL     1     -13.082  15.751  73.193  0.00  0.00    +0.206 C 
ENDBRANCH  22  24
ENDBRANCH   1  22
BRANCH   9  25
ATOM     25  N   UNL     1     -11.055  13.464  66.512  0.00  0.00    -0.212 NA
BRANCH  25  26
ATOM     26  C   UNL     1     -10.120  12.497  66.097  0.00  0.00    +0.072 A 
ATOM     27  C   UNL     1     -10.383  11.870  64.883  0.00  0.00    +0.031 A 
ATOM     28  C   UNL     1      -9.815  10.667  64.545  0.00  0.00    +0.093 A 
ATOM     29 CL   UNL     1      -9.682  10.219  62.860  0.00  0.00    -0.079 Cl
ATOM     30  C   UNL     1      -9.216   9.893  65.508  0.00  0.00    +0.150 A 
ATOM     31  C   UNL     1      -9.090  10.408  66.792  0.00  0.00    +0.039 A 
ATOM     32  C   UNL     1      -9.529  11.682  67.056  0.00  0.00    +0.020 A 
BRANCH  30  33
ATOM     33  O   UNL     1      -9.112   8.529  65.243  0.00  0.00    -0.468 OA
BRANCH  33  34
ATOM     34  C   UNL     1      -8.210   7.677  65.908  0.00  0.00    +0.251 C 
BRANCH  34  35
ATOM     35  C   UNL     1      -8.959   6.849  66.883  0.00  0.00    +0.103 A 
ATOM     36  N   UNL     1      -8.322   6.299  67.937  0.00  0.00    -0.244 NA
ATOM     37  C   UNL     1      -8.925   6.079  69.125  0.00  0.00    +0.099 A 
ATOM     38  C   UNL     1     -10.299   6.052  69.124  0.00  0.00    +0.021 A 
ATOM     39  C   UNL     1     -11.011   6.151  67.941  0.00  0.00    +0.003 A 
ATOM     40  C   UNL     1     -10.333   6.709  66.865  0.00  0.00    +0.018 A 
ENDBRANCH  34  35
ENDBRANCH  33  34
ENDBRANCH  30  33
ENDBRANCH  25  26
ENDBRANCH   9  25
TORSDOF 12
ENDMDL
MODEL 2
REMARK VINA RESULT:      -7.5      1.352      1.745
REMARK  Name = 
REMARK  12 active torsions:
REMARK  status: ('A' for Active; 'I' for Inactive)
REMARK    1  A    between atoms: C_2  and  O_3
REMARK    2  A    between atoms: O_3  and  C_4
REMARK    3  A    between atoms: C_9  and  C_10
REMARK    4  A    between atoms: C_12  and  N_13
REMARK    5  A    between atoms: N_13  and  C_14
REMARK    6  A    between atoms: C_17  and  O_18
REMARK    7  A    between atoms: O_18  and  C_19
REMARK    8  A    between atoms: C_19  and  C_20
REMARK    9  A    between atoms: C_31  and  N_32
REMARK   10  A    between atoms: C_33  and  C_35
REMARK   11  A    between atoms: C_36  and  C_37
REMARK   12  A    between atoms: C_37  and  N_38
REMARK                            x       y       z     vdW  Elec       q    Type
REMARK                         _______ _______ _______ _____ _____    ______ ____
ROOT
ATOM      1  C   UNL     1     -12.403  14.848  71.261  0.00  0.00    +0.155 A 
ATOM      2  C   UNL     1     -12.423  13.715  70.479  0.00  0.00    +0.108 A 
ATOM      3  C   UNL     1     -11.846  13.715  69.215  0.00  0.00    +0.023 A 
ATOM      4  C   UNL     1     -11.078  14.785  68.773  0.00  0.00    +0.035 A 
ATOM      5  C   UNL     1     -11.177  15.941  69.537  0.00  0.00    +0.086 A 
ATOM      6  N   UNL     1     -10.766  17.120  69.043  0.00  0.00    -0.243 NA
ATOM      7  C   UNL     1     -10.530  17.238  67.724  0.00  0.00    +0.110 A 
ATOM      8  C   UNL     1     -10.635  16.171  66.853  0.00  0.00    +0.103 A 
ATOM      9  C   UNL     1     -10.709  14.913  67.437  0.00  0.00    +0.083 A 
ATOM     10  C   UNL     1     -11.622  15.895  70.845  0.00  0.00    +0.057 A 
ENDROOT
BRANCH   2  11
ATOM     11  N   UNL     1     -12.957  12.497  71.011  0.00  0.00    -0.172 NA
ATOM     12  C   UNL     1     -12.236  11.272  70.857  0.00  0.00    +0.269 C 
ATOM     13  O   UNL     1     -11.616  11.113  69.765  0.00  0.00    -0.268 OA
BRANCH  12  14
ATOM     14  C   UNL     1     -12.554  10.072  71.600  0.00  0.00    +0.057 C 
ATOM     15  C   UNL     1     -12.079   8.876  71.341  0.00  0.00    -0.004 C 
BRANCH  15  16
ATOM     16  C   UNL     1     -11.606   7.919  72.362  0.00  0.00    +0.099 C 
BRANCH  16  17
ATOM     17  N   UNL     1     -11.130   6.678  71.808  0.00  0.00    -0.267 NA
ATOM     18  C   UNL     1     -11.562   6.461  70.445  0.00  0.00    +0.090 C 
ATOM     19  C   UNL     1     -11.363   5.540  72.658  0.00  0.00    +0.090 C 
ENDBRANCH  16  17
ENDBRANCH  15  16
ENDBRANCH  12  14
ENDBRANCH   2  11
BRANCH   8  20
ATOM     20  C   UNL     1     -10.721  16.359  65.423  0.00  0.00    +0.103 C 
ATOM     21  N   UNL     1     -11.155  16.772  64.429  0.00  0.00    -0.191 NA
ENDBRANCH   8  20
BRANCH   1  22
ATOM     22  O   UNL     1     -13.230  14.894  72.372  0.00  0.00    -0.474 OA
BRANCH  22  24
ATOM     23  C   UNL     1     -12.421  15.662  74.523  0.00  0.00    +0.051 C 
ATOM     24  C   UNL     1     -13.253  15.968  73.290  0.00  0.00    +0.206 C 
ENDBRANCH  22  24
ENDBRANCH   1  22
BRANCH   9  25
ATOM     25  N   UNL     1     -10.824  13.763  66.637  0.00  0.00    -0.212 NA
BRANCH  25  26
ATOM     26  C   UNL     1      -9.764  12.959  66.178  0.00  0.00    +0.072 A 
ATOM     27  C   UNL     1     -10.114  11.884  65.367  0.00  0.00    +0.031 A 
ATOM     28  C   UNL     1      -9.281  10.810  65.178  0.00  0.00    +0.093 A 
ATOM     29 CL   UNL     1      -9.468   9.815  63.753  0.00  0.00    -0.079 Cl
ATOM     30  C   UNL     1      -8.211  10.612  66.016  0.00  0.00    +0.150 A 
ATOM     31  C   UNL     1      -7.925  11.580  66.970  0.00  0.00    +0.039 A 
ATOM     32  C   UNL     1      -8.688  12.721  67.027  0.00  0.00    +0.020 A 
BRANCH  30  33
ATOM     33  O   UNL     1      -7.718   9.312  66.107  0.00  0.00    -0.468 OA
BRANCH  33  34
ATOM     34  C   UNL     1      -8.366   8.287  66.821  0.00  0.00    +0.251 C 
BRANCH  34  35
ATOM     35  C   UNL     1      -8.033   8.415  68.260  0.00  0.00    +0.103 A 
ATOM     36  N   UNL     1      -6.756   8.291  68.676  0.00  0.00    -0.244 NA
ATOM     37  C   UNL     1      -6.268   8.948  69.750  0.00  0.00    +0.099 A 
ATOM     38  C   UNL     1      -7.188   9.432  70.649  0.00  0.00    +0.021 A 
ATOM     39  C   UNL     1      -8.537   9.168  70.496  0.00  0.00    +0.003 A 
ATOM     40  C   UNL     1      -8.947   8.803  69.220  0.00  0.00    +0.018 A 
ENDBRANCH  34  35
ENDBRANCH  33  34
ENDBRANCH  30  33
ENDBRANCH  25  26
ENDBRANCH   9  25
TORSDOF 12
ENDMDL
MODEL 3
REMARK VINA RESULT:      -7.4      2.467      3.818
REMARK  Name = 
REMARK  12 active torsions:
REMARK  status: ('A' for Active; 'I' for Inactive)
REMARK    1  A    between atoms: C_2  and  O_3
REMARK    2  A    between atoms: O_3  and  C_4
REMARK    3  A    between atoms: C_9  and  C_10
REMARK    4  A    between atoms: C_12  and  N_13
REMARK    5  A    between atoms: N_13  and  C_14
REMARK    6  A    between atoms: C_17  and  O_18
REMARK    7  A    between atoms: O_18  and  C_19
REMARK    8  A    between atoms: C_19  and  C_20
REMARK    9  A    between atoms: C_31  and  N_32
REMARK   10  A    between atoms: C_33  and  C_35
REMARK   11  A    between atoms: C_36  and  C_37
REMARK   12  A    between atoms: C_37  and  N_38
REMARK                            x       y       z     vdW  Elec       q    Type
REMARK                         _______ _______ _______ _____ _____    ______ ____
ROOT
ATOM      1  C   UNL     1     -11.316  14.675  70.863  0.00  0.00    +0.155 A 
ATOM      2  C   UNL     1     -12.049  13.713  70.205  0.00  0.00    +0.108 A 
ATOM      3  C   UNL     1     -11.980  13.590  68.824  0.00  0.00    +0.023 A 
ATOM      4  C   UNL     1     -11.043  14.299  68.082  0.00  0.00    +0.035 A 
ATOM      5  C   UNL     1     -10.407  15.330  68.762  0.00  0.00    +0.086 A 
ATOM      6  N   UNL     1      -9.749  16.286  68.087  0.00  0.00    -0.243 NA
ATOM      7  C   UNL     1      -9.940  16.411  66.761  0.00  0.00    +0.110 A 
ATOM      8  C   UNL     1     -10.749  15.551  66.045  0.00  0.00    +0.103 A 
ATOM      9  C   UNL     1     -11.123  14.382  66.696  0.00  0.00    +0.083 A 
ATOM     10  C   UNL     1     -10.368  15.356  70.144  0.00  0.00    +0.057 A 
ENDROOT
BRANCH   2  11
ATOM     11  N   UNL     1     -12.816  12.768  70.961  0.00  0.00    -0.172 NA
ATOM     12  C   UNL     1     -12.493  11.376  70.904  0.00  0.00    +0.269 C 
ATOM     13  O   UNL     1     -12.107  10.929  69.784  0.00  0.00    -0.268 OA
BRANCH  12  14
ATOM     14  C   UNL     1     -13.018  10.406  71.841  0.00  0.00    +0.057 C 
ATOM     15  C   UNL     1     -13.211   9.134  71.581  0.00  0.00    -0.004 C 
BRANCH  15  16
ATOM     16  C   UNL     1     -12.875   8.028  72.500  0.00  0.00    +0.099 C 
BRANCH  16  17
ATOM     17  N   UNL     1     -11.719   7.273  72.088  0.00  0.00    -0.267 NA
ATOM     18  C   UNL     1     -10.470   7.934  72.391  0.00  0.00    +0.090 C 
ATOM     19  C   UNL     1     -11.791   6.804  70.729  0.00  0.00    +0.090 C 
ENDBRANCH  16  17
ENDBRANCH  15  16
ENDBRANCH  12  14
ENDBRANCH   2  11
BRANCH   8  20
ATOM     20  C   UNL     1     -11.225  15.877  64.721  0.00  0.00    +0.103 C 
ATOM     21  N   UNL     1     -11.581  16.568  63.858  0.00  0.00    -0.191 NA
ENDBRANCH   8  20
BRANCH   1  22
ATOM     22  O   UNL     1     -11.631  14.952  72.184  0.00  0.00    -0.474 OA
BRANCH  22  24
ATOM     23  C   UNL     1     -13.896  15.727  72.560  0.00  0.00    +0.051 C 
ATOM     24  C   UNL     1     -12.414  16.057  72.589  0.00  0.00    +0.206 C 
ENDBRANCH  22  24
ENDBRANCH   1  22
BRANCH   9  25
ATOM     25  N   UNL     1     -11.950  13.444  66.054  0.00  0.00    -0.212 NA
BRANCH  25  26
ATOM     26  C   UNL     1     -11.525  12.294  65.362  0.00  0.00    +0.072 A 
ATOM     27  C   UNL     1     -10.908  11.309  66.127  0.00  0.00    +0.031 A 
ATOM     28  C   UNL     1     -10.104  10.348  65.568  0.00  0.00    +0.093 A 
ATOM     29 CL   UNL     1      -9.848   8.839  66.415  0.00  0.00    -0.079 Cl
ATOM     30  C   UNL     1      -9.632  10.502  64.288  0.00  0.00    +0.150 A 
ATOM     31  C   UNL     1     -10.085  11.581  63.538  0.00  0.00    +0.039 A 
ATOM     32  C   UNL     1     -11.013  12.437  64.076  0.00  0.00    +0.020 A 
BRANCH  30  33
ATOM     33  O   UNL     1      -8.474   9.802  63.957  0.00  0.00    -0.468 OA
BRANCH  33  34
ATOM     34  C   UNL     1      -8.098   9.509  62.633  0.00  0.00    +0.251 C 
BRANCH  34  35
ATOM     35  C   UNL     1      -6.979  10.400  62.240  0.00  0.00    +0.103 A 
ATOM     36  N   UNL     1      -5.741  10.191  62.731  0.00  0.00    -0.244 NA
ATOM     37  C   UNL     1      -4.620  10.491  62.041  0.00  0.00    +0.099 A 
ATOM     38  C   UNL     1      -4.753  11.380  61.001  0.00  0.00    +0.021 A 
ATOM     39  C   UNL     1      -5.964  11.999  60.748  0.00  0.00    +0.003 A 
ATOM     40  C   UNL     1      -7.090  11.376  61.269  0.00  0.00    +0.018 A 
ENDBRANCH  34  35
ENDBRANCH  33  34
ENDBRANCH  30  33
ENDBRANCH  25  26
ENDBRANCH   9  25
TORSDOF 12
ENDMDL
MODEL 4
REMARK VINA RESULT:      -7.4      2.274      3.069
REMARK  Name = 
REMARK  12 active torsions:
REMARK  status: ('A' for Active; 'I' for Inactive)
REMARK    1  A    between atoms: C_2  and  O_3
REMARK    2  A    between atoms: O_3  and  C_4
REMARK    3  A    between atoms: C_9  and  C_10
REMARK    4  A    between atoms: C_12  and  N_13
REMARK    5  A    between atoms: N_13  and  C_14
REMARK    6  A    between atoms: C_17  and  O_18
REMARK    7  A    between atoms: O_18  and  C_19
REMARK    8  A    between atoms: C_19  and  C_20
REMARK    9  A    between atoms: C_31  and  N_32
REMARK   10  A    between atoms: C_33  and  C_35
REMARK   11  A    between atoms: C_36  and  C_37
REMARK   12  A    between atoms: C_37  and  N_38
REMARK                            x       y       z     vdW  Elec       q    Type
REMARK                         _______ _______ _______ _____ _____    ______ ____
ROOT
ATOM      1  C   UNL     1     -12.346  12.917  70.700  0.00  0.00    +0.155 A 
ATOM      2  C   UNL     1     -12.037  11.622  70.347  0.00  0.00    +0.108 A 
ATOM      3  C   UNL     1     -11.717  11.302  69.034  0.00  0.00    +0.023 A 
ATOM      4  C   UNL     1     -11.517  12.291  68.078  0.00  0.00    +0.035 A 
ATOM      5  C   UNL     1     -11.945  13.561  68.443  0.00  0.00    +0.086 A 
ATOM      6  N   UNL     1     -12.121  14.513  67.512  0.00  0.00    -0.243 NA
ATOM      7  C   UNL     1     -12.163  14.167  66.213  0.00  0.00    +0.110 A 
ATOM      8  C   UNL     1     -11.972  12.868  65.784  0.00  0.00    +0.103 A 
ATOM      9  C   UNL     1     -11.446  11.989  66.722  0.00  0.00    +0.083 A 
ATOM     10  C   UNL     1     -12.122  13.901  69.771  0.00  0.00    +0.057 A 
ENDROOT
BRANCH   2  11
ATOM     11  N   UNL     1     -11.952  10.614  71.360  0.00  0.00    -0.172 NA
ATOM     12  C   UNL     1     -12.773   9.446  71.279  0.00  0.00    +0.269 C 
ATOM     13  O   UNL     1     -13.945   9.607  70.829  0.00  0.00    -0.268 OA
BRANCH  12  14
ATOM     14  C   UNL     1     -12.547   8.265  72.085  0.00  0.00    +0.057 C 
ATOM     15  C   UNL     1     -12.522   7.034  71.631  0.00  0.00    -0.004 C 
BRANCH  15  16
ATOM     16  C   UNL     1     -11.538   6.009  72.034  0.00  0.00    +0.099 C 
BRANCH  16  17
ATOM     17  N   UNL     1     -10.586   5.692  71.002  0.00  0.00    -0.267 NA
ATOM     18  C   UNL     1     -11.094   5.923  69.668  0.00  0.00    +0.090 C 
ATOM     19  C   UNL     1      -9.980   4.395  71.154  0.00  0.00    +0.090 C 
ENDBRANCH  16  17
ENDBRANCH  15  16
ENDBRANCH  12  14
ENDBRANCH   2  11
BRANCH   8  20
ATOM     20  C   UNL     1     -12.351  12.439  64.458  0.00  0.00    +0.103 C 
ATOM     21  N   UNL     1     -13.079  12.181  63.591  0.00  0.00    -0.191 NA
ENDBRANCH   8  20
BRANCH   1  22
ATOM     22  O   UNL     1     -12.935  13.138  71.934  0.00  0.00    -0.474 OA
BRANCH  22  24
ATOM     23  C   UNL     1     -12.715  14.971  73.504  0.00  0.00    +0.051 C 
ATOM     24  C   UNL     1     -13.480  14.380  72.333  0.00  0.00    +0.206 C 
ENDBRANCH  22  24
ENDBRANCH   1  22
BRANCH   9  25
ATOM     25  N   UNL     1     -11.220  10.643  66.386  0.00  0.00    -0.212 NA
BRANCH  25  26
ATOM     26  C   UNL     1     -10.008  10.091  65.930  0.00  0.00    +0.072 A 
ATOM     27  C   UNL     1      -9.703   8.814  66.389  0.00  0.00    +0.031 A 
ATOM     28  C   UNL     1      -8.424   8.316  66.369  0.00  0.00    +0.093 A 
ATOM     29 CL   UNL     1      -8.172   6.586  66.378  0.00  0.00    -0.079 Cl
ATOM     30  C   UNL     1      -7.359   9.162  66.184  0.00  0.00    +0.150 A 
ATOM     31  C   UNL     1      -7.612  10.498  65.898  0.00  0.00    +0.039 A 
ATOM     32  C   UNL     1      -8.909  10.928  65.769  0.00  0.00    +0.020 A 
BRANCH  30  33
ATOM     33  O   UNL     1      -6.121   8.726  66.654  0.00  0.00    -0.468 OA
BRANCH  33  34
ATOM     34  C   UNL     1      -5.503   9.247  67.805  0.00  0.00    +0.251 C 
BRANCH  34  35
ATOM     35  C   UNL     1      -6.411   9.068  68.964  0.00  0.00    +0.103 A 
ATOM     36  N   UNL     1      -7.173  10.094  69.394  0.00  0.00    -0.244 NA
ATOM     37  C   UNL     1      -8.384   9.918  69.965  0.00  0.00    +0.099 A 
ATOM     38  C   UNL     1      -8.654   8.667  70.467  0.00  0.00    +0.021 A 
ATOM     39  C   UNL     1      -7.687   7.677  70.465  0.00  0.00    +0.003 A 
ATOM     40  C   UNL     1      -6.640   7.848  69.568  0.00  0.00    +0.018 A 
ENDBRANCH  34  35
ENDBRANCH  33  34
ENDBRANCH  30  33
ENDBRANCH  25  26
ENDBRANCH   9  25
TORSDOF 12
ENDMDL
MODEL 5
REMARK VINA RESULT:      -7.3      2.281      6.917
REMARK  Name = 
REMARK  12 active torsions:
REMARK  status: ('A' for Active; 'I' for Inactive)
REMARK    1  A    between atoms: C_2  and  O_3
REMARK    2  A    between atoms: O_3  and  C_4
REMARK    3  A    between atoms: C_9  and  C_10
REMARK    4  A    between atoms: C_12  and  N_13
REMARK    5  A    between atoms: N_13  and  C_14
REMARK    6  A    between atoms: C_17  and  O_18
REMARK    7  A    between atoms: O_18  and  C_19
REMARK    8  A    between atoms: C_19  and  C_20
REMARK    9  A    between atoms: C_31  and  N_32
REMARK   10  A    between atoms: C_33  and  C_35
REMARK   11  A    between atoms: C_36  and  C_37
REMARK   12  A    between atoms: C_37  and  N_38
REMARK                            x       y       z     vdW  Elec       q    Type
REMARK                         _______ _______ _______ _____ _____    ______ ____
ROOT
ATOM      1  C   UNL     1     -13.080  12.407  71.276  0.00  0.00    +0.155 A 
ATOM      2  C   UNL     1     -12.212  12.758  70.267  0.00  0.00    +0.108 A 
ATOM      3  C   UNL     1     -11.234  11.872  69.834  0.00  0.00    +0.023 A 
ATOM      4  C   UNL     1     -11.212  10.552  70.267  0.00  0.00    +0.035 A 
ATOM      5  C   UNL     1     -12.026  10.273  71.358  0.00  0.00    +0.086 A 
ATOM      6  N   UNL     1     -11.846   9.151  72.072  0.00  0.00    -0.243 NA
ATOM      7  C   UNL     1     -10.712   8.442  71.916  0.00  0.00    +0.110 A 
ATOM      8  C   UNL     1      -9.740   8.792  71.000  0.00  0.00    +0.103 A 
ATOM      9  C   UNL     1     -10.110   9.731  70.046  0.00  0.00    +0.083 A 
ATOM     10  C   UNL     1     -13.085  11.098  71.686  0.00  0.00    +0.057 A 
ENDROOT
BRANCH   2  11
ATOM     11  N   UNL     1     -12.380  14.009  69.592  0.00  0.00    -0.172 NA
ATOM     12  C   UNL     1     -11.371  15.018  69.694  0.00  0.00    +0.269 C 
ATOM     13  O   UNL     1     -10.788  15.126  70.812  0.00  0.00    -0.268 OA
BRANCH  12  14
ATOM     14  C   UNL     1     -11.325  16.176  68.827  0.00  0.00    +0.057 C 
ATOM     15  C   UNL     1     -10.350  17.055  68.794  0.00  0.00    -0.004 C 
BRANCH  15  16
ATOM     16  C   UNL     1      -9.774  17.625  67.559  0.00  0.00    +0.099 C 
BRANCH  16  17
ATOM     17  N   UNL     1      -9.684  19.062  67.579  0.00  0.00    -0.267 NA
ATOM     18  C   UNL     1     -10.059  19.674  66.323  0.00  0.00    +0.090 C 
ATOM     19  C   UNL     1      -8.431  19.554  68.090  0.00  0.00    +0.090 C 
ENDBRANCH  16  17
ENDBRANCH  15  16
ENDBRANCH  12  14
ENDBRANCH   2  11
BRANCH   8  20
ATOM     20  C   UNL     1      -8.401   8.254  71.068  0.00  0.00    +0.103 C 
ATOM     21  N   UNL     1      -7.560   7.532  71.414  0.00  0.00    -0.191 NA
ENDBRANCH   8  20
BRANCH   1  22
ATOM     22  O   UNL     1     -13.836  13.406  71.869  0.00  0.00    -0.474 OA
BRANCH  22  24
ATOM     23  C   UNL     1     -13.773  15.707  72.628  0.00  0.00    +0.051 C 
ATOM     24  C   UNL     1     -13.344  14.271  72.874  0.00  0.00    +0.206 C 
ENDBRANCH  22  24
ENDBRANCH   1  22
BRANCH   9  25
ATOM     25  N   UNL     1      -9.190  10.157  69.073  0.00  0.00    -0.212 NA
BRANCH  25  26
ATOM     26  C   UNL     1      -9.186   9.792  67.714  0.00  0.00    +0.072 A 
ATOM     27  C   UNL     1      -8.128  10.275  66.951  0.00  0.00    +0.031 A 
ATOM     28  C   UNL     1      -8.189  10.349  65.582  0.00  0.00    +0.093 A 
ATOM     29 CL   UNL     1      -6.709  10.379  64.652  0.00  0.00    -0.079 Cl
ATOM     30  C   UNL     1      -9.398  10.241  64.939  0.00  0.00    +0.150 A 
ATOM     31  C   UNL     1     -10.526   9.935  65.690  0.00  0.00    +0.039 A 
ATOM     32  C   UNL     1     -10.400   9.711  67.039  0.00  0.00    +0.020 A 
BRANCH  30  33
ATOM     33  O   UNL     1      -9.485  10.800  63.666  0.00  0.00    -0.468 OA
BRANCH  33  34
ATOM     34  C   UNL     1     -10.680  11.305  63.121  0.00  0.00    +0.251 C 
BRANCH  34  35
ATOM     35  C   UNL     1     -11.080  12.518  63.874  0.00  0.00    +0.103 A 
ATOM     36  N   UNL     1     -12.378  12.745  64.157  0.00  0.00    -0.244 NA
ATOM     37  C   UNL     1     -12.783  13.402  65.265  0.00  0.00    +0.099 A 
ATOM     38  C   UNL     1     -11.846  14.184  65.896  0.00  0.00    +0.021 A 
ATOM     39  C   UNL     1     -10.583  14.355  65.356  0.00  0.00    +0.003 A 
ATOM     40  C   UNL     1     -10.174  13.391  64.444  0.00  0.00    +0.018 A 
ENDBRANCH  34  35
ENDBRANCH  33  34
ENDBRANCH  30  33
ENDBRANCH  25  26
ENDBRANCH   9  25
TORSDOF 12
ENDMDL
MODEL 6
REMARK VINA RESULT:      -7.2      3.831      7.102
REMARK  Name = 
REMARK  12 active torsions:
REMARK  status: ('A' for Active; 'I' for Inactive)
REMARK    1  A    between atoms: C_2  and  O_3
REMARK    2  A    between atoms: O_3  and  C_4
REMARK    3  A    between atoms: C_9  and  C_10
REMARK    4  A    between atoms: C_12  and  N_13
REMARK    5  A    between atoms: N_13  and  C_14
REMARK    6  A    between atoms: C_17  and  O_18
REMARK    7  A    between atoms: O_18  and  C_19
REMARK    8  A    between atoms: C_19  and  C_20
REMARK    9  A    between atoms: C_31  and  N_32
REMARK   10  A    between atoms: C_33  and  C_35
REMARK   11  A    between atoms: C_36  and  C_37
REMARK   12  A    between atoms: C_37  and  N_38
REMARK                            x       y       z     vdW  Elec       q    Type
REMARK                         _______ _______ _______ _____ _____    ______ ____
ROOT
ATOM      1  C   UNL     1      -9.628  17.670  67.272  0.00  0.00    +0.155 A 
ATOM      2  C   UNL     1      -9.062  16.502  67.732  0.00  0.00    +0.108 A 
ATOM      3  C   UNL     1      -9.279  15.301  67.069  0.00  0.00    +0.023 A 
ATOM      4  C   UNL     1      -9.914  15.262  65.834  0.00  0.00    +0.035 A 
ATOM      5  C   UNL     1     -10.563  16.434  65.465  0.00  0.00    +0.086 A 
ATOM      6  N   UNL     1     -11.477  16.424  64.481  0.00  0.00    -0.243 NA
ATOM      7  C   UNL     1     -11.973  15.250  64.051  0.00  0.00    +0.110 A 
ATOM      8  C   UNL     1     -11.535  14.035  64.542  0.00  0.00    +0.103 A 
ATOM      9  C   UNL     1     -10.360  14.065  65.282  0.00  0.00    +0.083 A 
ATOM     10  C   UNL     1     -10.229  17.646  66.040  0.00  0.00    +0.057 A 
ENDROOT
BRANCH   2  11
ATOM     11  N   UNL     1      -8.163  16.542  68.846  0.00  0.00    -0.172 NA
ATOM     12  C   UNL     1      -6.801  16.933  68.652  0.00  0.00    +0.269 C 
ATOM     13  O   UNL     1      -6.251  16.556  67.576  0.00  0.00    -0.268 OA
BRANCH  12  14
ATOM     14  C   UNL     1      -5.916  17.275  69.745  0.00  0.00    +0.057 C 
ATOM     15  C   UNL     1      -5.352  18.447  69.920  0.00  0.00    -0.004 C 
BRANCH  15  16
ATOM     16  C   UNL     1      -5.239  19.140  71.220  0.00  0.00    +0.099 C 
BRANCH  16  17
ATOM     17  N   UNL     1      -5.136  20.571  71.099  0.00  0.00    -0.267 NA
ATOM     18  C   UNL     1      -5.181  21.031  69.729  0.00  0.00    +0.090 C 
ATOM     19  C   UNL     1      -4.041  21.136  71.845  0.00  0.00    +0.090 C 
ENDBRANCH  16  17
ENDBRANCH  15  16
ENDBRANCH  12  14
ENDBRANCH   2  11
BRANCH   8  20
ATOM     20  C   UNL     1     -12.286  12.818  64.344  0.00  0.00    +0.103 C 
ATOM     21  N   UNL     1     -13.236  12.163  64.213  0.00  0.00    -0.191 NA
ENDBRANCH   8  20
BRANCH   1  22
ATOM     22  O   UNL     1      -9.629  18.774  68.111  0.00  0.00    -0.474 OA
BRANCH  22  24
ATOM     23  C   UNL     1      -7.893  20.263  67.309  0.00  0.00    +0.051 C 
ATOM     24  C   UNL     1      -9.357  20.091  67.675  0.00  0.00    +0.206 C 
ENDBRANCH  22  24
ENDBRANCH   1  22
BRANCH   9  25
ATOM     25  N   UNL     1      -9.834  12.883  65.829  0.00  0.00    -0.212 NA
BRANCH  25  26
ATOM     26  C   UNL     1     -10.013  12.424  67.147  0.00  0.00    +0.072 A 
ATOM     27  C   UNL     1      -9.004  11.616  67.660  0.00  0.00    +0.031 A 
ATOM     28  C   UNL     1      -9.207  10.786  68.735  0.00  0.00    +0.093 A 
ATOM     29 CL   UNL     1      -7.840  10.268  69.694  0.00  0.00    -0.079 Cl
ATOM     30  C   UNL     1     -10.483  10.494  69.148  0.00  0.00    +0.150 A 
ATOM     31  C   UNL     1     -11.546  11.148  68.538  0.00  0.00    +0.039 A 
ATOM     32  C   UNL     1     -11.296  12.091  67.572  0.00  0.00    +0.020 A 
BRANCH  30  33
ATOM     33  O   UNL     1     -10.654   9.315  69.872  0.00  0.00    -0.468 OA
BRANCH  33  34
ATOM     34  C   UNL     1     -10.724   9.273  71.277  0.00  0.00    +0.251 C 
BRANCH  34  35
ATOM     35  C   UNL     1     -11.984   8.603  71.678  0.00  0.00    +0.103 A 
ATOM     36  N   UNL     1     -12.966   9.306  72.278  0.00  0.00    -0.244 NA
ATOM     37  C   UNL     1     -14.274   9.006  72.135  0.00  0.00    +0.099 A 
ATOM     38  C   UNL     1     -14.574   7.739  71.695  0.00  0.00    +0.021 A 
ATOM     39  C   UNL     1     -13.576   6.799  71.506  0.00  0.00    +0.003 A 
ATOM     40  C   UNL     1     -12.290   7.298  71.345  0.00  0.00    +0.018 A 
ENDBRANCH  34  35
ENDBRANCH  33  34
ENDBRANCH  30  33
ENDBRANCH  25  26
ENDBRANCH   9  25
TORSDOF 12
ENDMDL
MODEL 7
REMARK VINA RESULT:      -7.2      1.995      2.686
REMARK  Name = 
REMARK  12 active torsions:
REMARK  status: ('A' for Active; 'I' for Inactive)
REMARK    1  A    between atoms: C_2  and  O_3
REMARK    2  A    between atoms: O_3  and  C_4
REMARK    3  A    between atoms: C_9  and  C_10
REMARK    4  A    between atoms: C_12  and  N_13
REMARK    5  A    between atoms: N_13  and  C_14
REMARK    6  A    between atoms: C_17  and  O_18
REMARK    7  A    between atoms: O_18  and  C_19
REMARK    8  A    between atoms: C_19  and  C_20
REMARK    9  A    between atoms: C_31  and  N_32
REMARK   10  A    between atoms: C_33  and  C_35
REMARK   11  A    between atoms: C_36  and  C_37
REMARK   12  A    between atoms: C_37  and  N_38
REMARK                            x       y       z     vdW  Elec       q    Type
REMARK                         _______ _______ _______ _____ _____    ______ ____
ROOT
ATOM      1  C   UNL     1     -12.425  12.890  70.898  0.00  0.00    +0.155 A 
ATOM      2  C   UNL     1     -12.174  11.590  70.520  0.00  0.00    +0.108 A 
ATOM      3  C   UNL     1     -11.823  11.289  69.210  0.00  0.00    +0.023 A 
ATOM      4  C   UNL     1     -11.536  12.290  68.291  0.00  0.00    +0.035 A 
ATOM      5  C   UNL     1     -11.908  13.572  68.677  0.00  0.00    +0.086 A 
ATOM      6  N   UNL     1     -11.998  14.556  67.768  0.00  0.00    -0.243 NA
ATOM      7  C   UNL     1     -12.012  14.248  66.458  0.00  0.00    +0.110 A 
ATOM      8  C   UNL     1     -11.875  12.953  65.999  0.00  0.00    +0.103 A 
ATOM      9  C   UNL     1     -11.432  12.021  66.930  0.00  0.00    +0.083 A 
ATOM     10  C   UNL     1     -12.115  13.885  70.007  0.00  0.00    +0.057 A 
ENDROOT
BRANCH   2  11
ATOM     11  N   UNL     1     -12.179  10.552  71.506  0.00  0.00    -0.172 NA
ATOM     12  C   UNL     1     -12.978   9.382  71.308  0.00  0.00    +0.269 C 
ATOM     13  O   UNL     1     -14.101   9.550  70.750  0.00  0.00    -0.268 OA
BRANCH  12  14
ATOM     14  C   UNL     1     -12.822   8.179  72.098  0.00  0.00    +0.057 C 
ATOM     15  C   UNL     1     -12.146   7.116  71.728  0.00  0.00    -0.004 C 
BRANCH  15  16
ATOM     16  C   UNL     1     -11.240   6.349  72.607  0.00  0.00    +0.099 C 
BRANCH  16  17
ATOM     17  N   UNL     1     -10.399   7.181  73.428  0.00  0.00    -0.267 NA
ATOM     18  C   UNL     1      -9.394   7.896  72.674  0.00  0.00    +0.090 C 
ATOM     19  C   UNL     1      -9.859   6.500  74.577  0.00  0.00    +0.090 C 
ENDBRANCH  16  17
ENDBRANCH  15  16
ENDBRANCH  12  14
ENDBRANCH   2  11
BRANCH   8  20
ATOM     20  C   UNL     1     -12.228  12.581  64.649  0.00  0.00    +0.103 C 
ATOM     21  N   UNL     1     -12.921  12.210  63.794  0.00  0.00    -0.191 NA
ENDBRANCH   8  20
BRANCH   1  22
ATOM     22  O   UNL     1     -13.046  13.110  72.117  0.00  0.00    -0.474 OA
BRANCH  22  24
ATOM     23  C   UNL     1     -12.981  15.200  73.343  0.00  0.00    +0.051 C 
ATOM     24  C   UNL     1     -13.773  14.282  72.428  0.00  0.00    +0.206 C 
ENDBRANCH  22  24
ENDBRANCH   1  22
BRANCH   9  25
ATOM     25  N   UNL     1     -11.266  10.675  66.563  0.00  0.00    -0.212 NA
BRANCH  25  26
ATOM     26  C   UNL     1     -10.043   9.989  66.441  0.00  0.00    +0.072 A 
ATOM     27  C   UNL     1     -10.123   8.606  66.312  0.00  0.00    +0.031 A 
ATOM     28  C   UNL     1      -9.058   7.785  66.582  0.00  0.00    +0.093 A 
ATOM     29 CL   UNL     1      -8.994   6.191  65.865  0.00  0.00    -0.079 Cl
ATOM     30  C   UNL     1      -7.977   8.264  67.280  0.00  0.00    +0.150 A 
ATOM     31  C   UNL     1      -7.935   9.617  67.593  0.00  0.00    +0.039 A 
ATOM     32  C   UNL     1      -8.946  10.442  67.168  0.00  0.00    +0.020 A 
BRANCH  30  33
ATOM     33  O   UNL     1      -7.190   7.325  67.943  0.00  0.00    -0.468 OA
BRANCH  33  34
ATOM     34  C   UNL     1      -7.288   7.068  69.323  0.00  0.00    +0.251 C 
BRANCH  34  35
ATOM     35  C   UNL     1      -7.935   5.748  69.524  0.00  0.00    +0.103 A 
ATOM     36  N   UNL     1      -7.208   4.692  69.940  0.00  0.00    -0.244 NA
ATOM     37  C   UNL     1      -7.723   3.701  70.699  0.00  0.00    +0.099 A 
ATOM     38  C   UNL     1      -9.091   3.577  70.707  0.00  0.00    +0.021 A 
ATOM     39  C   UNL     1      -9.881   4.374  69.898  0.00  0.00    +0.003 A 
ATOM     40  C   UNL     1      -9.300   5.551  69.445  0.00  0.00    +0.018 A 
ENDBRANCH  34  35
ENDBRANCH  33  34
ENDBRANCH  30  33
ENDBRANCH  25  26
ENDBRANCH   9  25
TORSDOF 12
ENDMDL
MODEL 8
REMARK VINA RESULT:      -7.2      2.848      6.969
REMARK  Name = 
REMARK  12 active torsions:
REMARK  status: ('A' for Active; 'I' for Inactive)
REMARK    1  A    between atoms: C_2  and  O_3
REMARK    2  A    between atoms: O_3  and  C_4
REMARK    3  A    between atoms: C_9  and  C_10
REMARK    4  A    between atoms: C_12  and  N_13
REMARK    5  A    between atoms: N_13  and  C_14
REMARK    6  A    between atoms: C_17  and  O_18
REMARK    7  A    between atoms: O_18  and  C_19
REMARK    8  A    between atoms: C_19  and  C_20
REMARK    9  A    between atoms: C_31  and  N_32
REMARK   10  A    between atoms: C_33  and  C_35
REMARK   11  A    between atoms: C_36  and  C_37
REMARK   12  A    between atoms: C_37  and  N_38
REMARK                            x       y       z     vdW  Elec       q    Type
REMARK                         _______ _______ _______ _____ _____    ______ ____
ROOT
ATOM      1  C   UNL     1     -12.933  14.625  70.989  0.00  0.00    +0.155 A 
ATOM      2  C   UNL     1     -12.061  14.619  69.924  0.00  0.00    +0.108 A 
ATOM      3  C   UNL     1     -11.536  13.427  69.443  0.00  0.00    +0.023 A 
ATOM      4  C   UNL     1     -12.006  12.198  69.892  0.00  0.00    +0.035 A 
ATOM      5  C   UNL     1     -12.795  12.248  71.035  0.00  0.00    +0.086 A 
ATOM      6  N   UNL     1     -13.024  11.137  71.752  0.00  0.00    -0.243 NA
ATOM      7  C   UNL     1     -12.270  10.043  71.536  0.00  0.00    +0.110 A 
ATOM      8  C   UNL     1     -11.298   9.994  70.557  0.00  0.00    +0.103 A 
ATOM      9  C   UNL     1     -11.330  11.015  69.615  0.00  0.00    +0.083 A 
ATOM     10  C   UNL     1     -13.424  13.418  71.417  0.00  0.00    +0.057 A 
ENDROOT
BRANCH   2  11
ATOM     11  N   UNL     1     -11.768  15.845  69.243  0.00  0.00    -0.172 NA
ATOM     12  C   UNL     1     -10.440  16.106  68.780  0.00  0.00    +0.269 C 
ATOM     13  O   UNL     1      -9.493  15.702  69.516  0.00  0.00    -0.268 OA
BRANCH  12  14
ATOM     14  C   UNL     1     -10.125  17.166  67.846  0.00  0.00    +0.057 C 
ATOM     15  C   UNL     1     -10.523  18.412  67.957  0.00  0.00    -0.004 C 
BRANCH  15  16
ATOM     16  C   UNL     1      -9.671  19.591  67.701  0.00  0.00    +0.099 C 
BRANCH  16  17
ATOM     17  N   UNL     1      -8.301  19.257  67.412  0.00  0.00    -0.267 NA
ATOM     18  C   UNL     1      -7.385  19.655  68.457  0.00  0.00    +0.090 C 
ATOM     19  C   UNL     1      -7.870  19.670  66.101  0.00  0.00    +0.090 C 
ENDBRANCH  16  17
ENDBRANCH  15  16
ENDBRANCH  12  14
ENDBRANCH   2  11
BRANCH   8  20
ATOM     20  C   UNL     1     -10.274   8.975  70.550  0.00  0.00    +0.103 C 
ATOM     21  N   UNL     1      -9.590   8.150  70.998  0.00  0.00    -0.191 NA
ENDBRANCH   8  20
BRANCH   1  22
ATOM     22  O   UNL     1     -13.199  15.833  71.614  0.00  0.00    -0.474 OA
BRANCH  22  24
ATOM     23  C   UNL     1     -12.445  15.656  73.910  0.00  0.00    +0.051 C 
ATOM     24  C   UNL     1     -13.598  15.948  72.965  0.00  0.00    +0.206 C 
ENDBRANCH  22  24
ENDBRANCH   1  22
BRANCH   9  25
ATOM     25  N   UNL     1     -10.379  11.058  68.582  0.00  0.00    -0.212 NA
BRANCH  25  26
ATOM     26  C   UNL     1     -10.522  10.507  67.294  0.00  0.00    +0.072 A 
ATOM     27  C   UNL     1      -9.582   9.550  66.927  0.00  0.00    +0.031 A 
ATOM     28  C   UNL     1      -9.345   9.226  65.614  0.00  0.00    +0.093 A 
ATOM     29 CL   UNL     1      -8.641   7.674  65.223  0.00  0.00    -0.079 Cl
ATOM     30  C   UNL     1      -9.799  10.044  64.609  0.00  0.00    +0.150 A 
ATOM     31  C   UNL     1     -10.602  11.127  64.945  0.00  0.00    +0.039 A 
ATOM     32  C   UNL     1     -10.950  11.330  66.258  0.00  0.00    +0.020 A 
BRANCH  30  33
ATOM     33  O   UNL     1      -9.139   9.961  63.385  0.00  0.00    -0.468 OA
BRANCH  33  34
ATOM     34  C   UNL     1      -9.060  11.031  62.474  0.00  0.00    +0.251 C 
BRANCH  34  35
ATOM     35  C   UNL     1      -7.945  10.780  61.529  0.00  0.00    +0.103 A 
ATOM     36  N   UNL     1      -7.076  11.765  61.227  0.00  0.00    -0.244 NA
ATOM     37  C   UNL     1      -5.783  11.532  60.918  0.00  0.00    +0.099 A 
ATOM     38  C   UNL     1      -5.462  10.255  60.525  0.00  0.00    +0.021 A 
ATOM     39  C   UNL     1      -6.444   9.293  60.366  0.00  0.00    +0.003 A 
ATOM     40  C   UNL     1      -7.643   9.529  61.026  0.00  0.00    +0.018 A 
ENDBRANCH  34  35
ENDBRANCH  33  34
ENDBRANCH  30  33
ENDBRANCH  25  26
ENDBRANCH   9  25
TORSDOF 12
ENDMDL
MODEL 9
REMARK VINA RESULT:      -7.2      1.961      3.002
REMARK  Name = 
REMARK  12 active torsions:
REMARK  status: ('A' for Active; 'I' for Inactive)
REMARK    1  A    between atoms: C_2  and  O_3
REMARK    2  A    between atoms: O_3  and  C_4
REMARK    3  A    between atoms: C_9  and  C_10
REMARK    4  A    between atoms: C_12  and  N_13
REMARK    5  A    between atoms: N_13  and  C_14
REMARK    6  A    between atoms: C_17  and  O_18
REMARK    7  A    between atoms: O_18  and  C_19
REMARK    8  A    between atoms: C_19  and  C_20
REMARK    9  A    between atoms: C_31  and  N_32
REMARK   10  A    between atoms: C_33  and  C_35
REMARK   11  A    between atoms: C_36  and  C_37
REMARK   12  A    between atoms: C_37  and  N_38
REMARK                            x       y       z     vdW  Elec       q    Type
REMARK                         _______ _______ _______ _____ _____    ______ ____
ROOT
ATOM      1  C   UNL     1     -12.246  15.140  71.252  0.00  0.00    +0.155 A 
ATOM      2  C   UNL     1     -12.430  14.001  70.499  0.00  0.00    +0.108 A 
ATOM      3  C   UNL     1     -11.938  13.921  69.203  0.00  0.00    +0.023 A 
ATOM      4  C   UNL     1     -11.096  14.899  68.689  0.00  0.00    +0.035 A 
ATOM      5  C   UNL     1     -11.029  16.072  69.430  0.00  0.00    +0.086 A 
ATOM      6  N   UNL     1     -10.534  17.194  68.884  0.00  0.00    -0.243 NA
ATOM      7  C   UNL     1     -10.371  17.265  67.550  0.00  0.00    +0.110 A 
ATOM      8  C   UNL     1     -10.638  16.199  66.713  0.00  0.00    +0.103 A 
ATOM      9  C   UNL     1     -10.801  14.966  67.331  0.00  0.00    +0.083 A 
ATOM     10  C   UNL     1     -11.392  16.095  70.764  0.00  0.00    +0.057 A 
ENDROOT
BRANCH   2  11
ATOM     11  N   UNL     1     -13.049  12.854  71.092  0.00  0.00    -0.172 NA
ATOM     12  C   UNL     1     -12.444  11.565  70.957  0.00  0.00    +0.269 C 
ATOM     13  O   UNL     1     -11.881  11.316  69.852  0.00  0.00    -0.268 OA
BRANCH  12  14
ATOM     14  C   UNL     1     -12.839  10.422  71.753  0.00  0.00    +0.057 C 
ATOM     15  C   UNL     1     -13.505   9.384  71.305  0.00  0.00    -0.004 C 
BRANCH  15  16
ATOM     16  C   UNL     1     -13.201   7.979  71.646  0.00  0.00    +0.099 C 
BRANCH  16  17
ATOM     17  N   UNL     1     -11.803   7.653  71.539  0.00  0.00    -0.267 NA
ATOM     18  C   UNL     1     -11.532   6.623  70.561  0.00  0.00    +0.090 C 
ATOM     19  C   UNL     1     -11.170   7.401  72.808  0.00  0.00    +0.090 C 
ENDBRANCH  16  17
ENDBRANCH  15  16
ENDBRANCH  12  14
ENDBRANCH   2  11
BRANCH   8  20
ATOM     20  C   UNL     1     -10.796  16.371  65.288  0.00  0.00    +0.103 C 
ATOM     21  N   UNL     1     -11.358  16.612  64.301  0.00  0.00    -0.191 NA
ENDBRANCH   8  20
BRANCH   1  22
ATOM     22  O   UNL     1     -12.992  15.289  72.410  0.00  0.00    -0.474 OA
BRANCH  22  24
ATOM     23  C   UNL     1     -12.432  16.312  74.535  0.00  0.00    +0.051 C 
ATOM     24  C   UNL     1     -12.486  15.040  73.707  0.00  0.00    +0.206 C 
ENDBRANCH  22  24
ENDBRANCH   1  22
BRANCH   9  25
ATOM     25  N   UNL     1     -11.082  13.820  66.567  0.00  0.00    -0.212 NA
BRANCH  25  26
ATOM     26  C   UNL     1     -10.142  12.893  66.079  0.00  0.00    +0.072 A 
ATOM     27  C   UNL     1     -10.322  12.468  64.767  0.00  0.00    +0.031 A 
ATOM     28  C   UNL     1      -9.760  11.309  64.291  0.00  0.00    +0.093 A 
ATOM     29 CL   UNL     1      -9.504  11.117  62.572  0.00  0.00    -0.079 Cl
ATOM     30  C   UNL     1      -9.260  10.376  65.166  0.00  0.00    +0.150 A 
ATOM     31  C   UNL     1      -9.224  10.686  66.519  0.00  0.00    +0.039 A 
ATOM     32  C   UNL     1      -9.650  11.920  66.943  0.00  0.00    +0.020 A 
BRANCH  30  33
ATOM     33  O   UNL     1      -9.170   9.065  64.702  0.00  0.00    -0.468 OA
BRANCH  33  34
ATOM     34  C   UNL     1      -7.956   8.360  64.606  0.00  0.00    +0.251 C 
BRANCH  34  35
ATOM     35  C   UNL     1      -7.546   8.295  63.182  0.00  0.00    +0.103 A 
ATOM     36  N   UNL     1      -8.294   7.612  62.291  0.00  0.00    -0.244 NA
ATOM     37  C   UNL     1      -8.384   7.961  60.990  0.00  0.00    +0.099 A 
ATOM     38  C   UNL     1      -7.394   8.778  60.500  0.00  0.00    +0.021 A 
ATOM     39  C   UNL     1      -6.315   9.138  61.288  0.00  0.00    +0.003 A 
ATOM     40  C   UNL     1      -6.495   9.022  62.660  0.00  0.00    +0.018 A 
ENDBRANCH  34  35
ENDBRANCH  33  34
ENDBRANCH  30  33
ENDBRANCH  25  26
ENDBRANCH   9  25
TORSDOF 12
ENDMDL
