MODEL 1
REMARK VINA RESULT:      -7.5      0.000      0.000
REMARK  Name = 
REMARK  8 active torsions:
REMARK  status: ('A' for Active; 'I' for Inactive)
REMARK    1  A    between atoms: C_2  and  N_4
REMARK    2  A    between atoms: C_5  and  C_6
REMARK    3  A    between atoms: C_7  and  C_8
REMARK    4  A    between atoms: C_8  and  C_10
REMARK    5  A    between atoms: C_10  and  C_11
REMARK    6  A    between atoms: C_11  and  C_13
REMARK    7  A    between atoms: C_13  and  C_14
REMARK    8  A    between atoms: C_17  and  C_18
REMARK                            x       y       z     vdW  Elec       q    Type
REMARK                         _______ _______ _______ _____ _____    ______ ____
ROOT
ATOM      1  N   UNL     1     -12.295  14.307  70.869  0.00  0.00    -0.329 N 
ATOM      2  C   UNL     1     -12.457  12.969  71.008  0.00  0.00    +0.060 A 
ATOM      3  C   UNL     1     -11.967  12.329  69.878  0.00  0.00    +0.017 A 
ATOM      4  C   UNL     1     -12.294  11.009  69.593  0.00  0.00    +0.001 A 
ATOM      5  C   UNL     1     -12.914  10.277  70.597  0.00  0.00    +0.000 A 
ATOM      6  C   UNL     1     -13.181  10.854  71.823  0.00  0.00    +0.001 A 
ATOM      7  C   UNL     1     -11.436  13.351  69.107  0.00  0.00    +0.017 A 
ATOM      8  C   UNL     1     -13.214  12.235  71.913  0.00  0.00    +0.017 A 
ATOM      9  C   UNL     1     -11.418  14.507  69.879  0.00  0.00    +0.060 A 
ENDROOT
BRANCH   7  10
ATOM     10  C   UNL     1     -11.050  13.194  67.700  0.00  0.00    +0.002 A 
ATOM     11  C   UNL     1     -12.055  13.292  66.751  0.00  0.00    +0.002 A 
ATOM     12  C   UNL     1     -11.988  12.638  65.528  0.00  0.00    +0.030 A 
ATOM     13  C   UNL     1     -11.062  11.618  65.358  0.00  0.00    +0.140 A 
ATOM     14  F   UNL     1     -10.954  11.039  64.126  0.00  0.00    -0.204 F 
ATOM     15  C   UNL     1      -9.965  11.653  66.191  0.00  0.00    +0.030 A 
ATOM     16  C   UNL     1      -9.955  12.421  67.327  0.00  0.00    +0.002 A 
ENDBRANCH   7  10
BRANCH   1  18
ATOM     17  C   UNL     1     -14.388  15.128  71.624  0.00  0.00    +0.024 C 
ATOM     18  C   UNL     1     -13.040  15.362  71.537  0.00  0.00    +0.086 C 
ATOM     19  C   UNL     1     -12.507  15.483  72.962  0.00  0.00    +0.024 C 
ENDBRANCH   1  18
BRANCH   9  20
ATOM     20  C   UNL     1     -10.638  15.713  69.564  0.00  0.00    +0.015 C 
ATOM     21  C   UNL     1      -9.349  15.572  69.585  0.00  0.00    +0.008 C 
BRANCH  21  22
ATOM     22  C   UNL     1      -8.478  16.813  68.920  0.00  0.00    +0.177 C 
ATOM     23  O   UNL     1      -7.115  16.231  69.402  0.00  0.00    -0.218 OA
BRANCH  22  24
ATOM     24  C   UNL     1      -8.353  16.039  67.426  0.00  0.00    +0.071 C 
BRANCH  24  25
ATOM     25  C   UNL     1      -9.197  17.160  66.492  0.00  0.00    +0.166 C 
ATOM     26  O   UNL     1      -8.003  17.379  65.529  0.00  0.00    -0.222 OA
BRANCH  25  27
ATOM     27  C   UNL     1      -9.860  15.965  65.509  0.00  0.00    +0.147 C 
BRANCH  27  28
ATOM     28  C   UNL     1     -10.939  16.732  64.825  0.00  0.00    +0.367 C 
ATOM     29  O   UNL     1     -11.848  16.173  63.960  0.00  0.00    -0.246 OA
ATOM     30  O   UNL     1     -11.012  17.976  64.985  0.00  0.00    -0.246 OA
ENDBRANCH  27  28
ENDBRANCH  25  27
ENDBRANCH  24  25
ENDBRANCH  22  24
ENDBRANCH  21  22
ENDBRANCH   9  20
TORSDOF 8
ENDMDL
MODEL 2
REMARK VINA RESULT:      -7.3      1.608      2.433
REMARK  Name = 
REMARK  8 active torsions:
REMARK  status: ('A' for Active; 'I' for Inactive)
REMARK    1  A    between atoms: C_2  and  N_4
REMARK    2  A    between atoms: C_5  and  C_6
REMARK    3  A    between atoms: C_7  and  C_8
REMARK    4  A    between atoms: C_8  and  C_10
REMARK    5  A    between atoms: C_10  and  C_11
REMARK    6  A    between atoms: C_11  and  C_13
REMARK    7  A    between atoms: C_13  and  C_14
REMARK    8  A    between atoms: C_17  and  C_18
REMARK                            x       y       z     vdW  Elec       q    Type
REMARK                         _______ _______ _______ _____ _____    ______ ____
ROOT
ATOM      1  N   UNL     1     -12.200  14.586  70.413  0.00  0.00    -0.329 N 
ATOM      2  C   UNL     1     -12.231  13.237  70.536  0.00  0.00    +0.060 A 
ATOM      3  C   UNL     1     -11.826  12.659  69.340  0.00  0.00    +0.017 A 
ATOM      4  C   UNL     1     -12.072  11.320  69.062  0.00  0.00    +0.001 A 
ATOM      5  C   UNL     1     -12.506  10.523  70.112  0.00  0.00    +0.000 A 
ATOM      6  C   UNL     1     -12.674  11.055  71.375  0.00  0.00    +0.001 A 
ATOM      7  C   UNL     1     -11.477  13.735  68.539  0.00  0.00    +0.017 A 
ATOM      8  C   UNL     1     -12.813  12.427  71.503  0.00  0.00    +0.017 A 
ATOM      9  C   UNL     1     -11.466  14.876  69.333  0.00  0.00    +0.060 A 
ENDROOT
BRANCH   7  10
ATOM     10  C   UNL     1     -11.247  13.633  67.093  0.00  0.00    +0.002 A 
ATOM     11  C   UNL     1     -12.359  13.688  66.268  0.00  0.00    +0.002 A 
ATOM     12  C   UNL     1     -12.395  13.067  65.028  0.00  0.00    +0.030 A 
ATOM     13  C   UNL     1     -11.435  12.111  64.723  0.00  0.00    +0.140 A 
ATOM     14  F   UNL     1     -11.435  11.567  63.471  0.00  0.00    -0.204 F 
ATOM     15  C   UNL     1     -10.253  12.197  65.427  0.00  0.00    +0.030 A 
ATOM     16  C   UNL     1     -10.158  12.939  66.576  0.00  0.00    +0.002 A 
ENDBRANCH   7  10
BRANCH   1  18
ATOM     17  C   UNL     1     -14.206  15.152  71.545  0.00  0.00    +0.024 C 
ATOM     18  C   UNL     1     -12.947  15.563  71.189  0.00  0.00    +0.086 C 
ATOM     19  C   UNL     1     -12.174  15.828  72.478  0.00  0.00    +0.024 C 
ENDBRANCH   1  18
BRANCH   9  20
ATOM     20  C   UNL     1     -10.831  16.149  68.960  0.00  0.00    +0.015 C 
ATOM     21  C   UNL     1      -9.547  16.209  69.125  0.00  0.00    +0.008 C 
BRANCH  21  22
ATOM     22  C   UNL     1      -8.788  17.496  68.410  0.00  0.00    +0.177 C 
ATOM     23  O   UNL     1      -8.361  16.665  67.164  0.00  0.00    -0.218 OA
BRANCH  22  24
ATOM     24  C   UNL     1     -10.203  18.022  67.656  0.00  0.00    +0.071 C 
BRANCH  24  25
ATOM     25  C   UNL     1      -9.506  18.966  66.446  0.00  0.00    +0.166 C 
ATOM     26  O   UNL     1     -10.792  19.809  66.250  0.00  0.00    -0.222 OA
BRANCH  25  27
ATOM     27  C   UNL     1      -8.873  20.063  67.555  0.00  0.00    +0.147 C 
BRANCH  27  28
ATOM     28  C   UNL     1      -7.597  20.437  66.880  0.00  0.00    +0.367 C 
ATOM     29  O   UNL     1      -6.817  21.506  67.250  0.00  0.00    -0.246 OA
ATOM     30  O   UNL     1      -7.216  19.790  65.872  0.00  0.00    -0.246 OA
ENDBRANCH  27  28
ENDBRANCH  25  27
ENDBRANCH  24  25
ENDBRANCH  22  24
ENDBRANCH  21  22
ENDBRANCH   9  20
TORSDOF 8
ENDMDL
MODEL 3
REMARK VINA RESULT:      -7.1      2.453      4.825
REMARK  Name = 
REMARK  8 active torsions:
REMARK  status: ('A' for Active; 'I' for Inactive)
REMARK    1  A    between atoms: C_2  and  N_4
REMARK    2  A    between atoms: C_5  and  C_6
REMARK    3  A    between atoms: C_7  and  C_8
REMARK    4  A    between atoms: C_8  and  C_10
REMARK    5  A    between atoms: C_10  and  C_11
REMARK    6  A    between atoms: C_11  and  C_13
REMARK    7  A    between atoms: C_13  and  C_14
REMARK    8  A    between atoms: C_17  and  C_18
REMARK                            x       y       z     vdW  Elec       q    Type
REMARK                         _______ _______ _______ _____ _____    ______ ____
ROOT
ATOM      1  N   UNL     1     -12.230  12.707  70.025  0.00  0.00    -0.329 N 
ATOM      2  C   UNL     1     -12.503  13.654  70.954  0.00  0.00    +0.060 A 
ATOM      3  C   UNL     1     -11.892  14.846  70.587  0.00  0.00    +0.017 A 
ATOM      4  C   UNL     1     -11.719  15.882  71.496  0.00  0.00    +0.001 A 
ATOM      5  C   UNL     1     -12.398  15.788  72.703  0.00  0.00    +0.000 A 
ATOM      6  C   UNL     1     -13.211  14.705  72.968  0.00  0.00    +0.001 A 
ATOM      7  C   UNL     1     -11.318  14.571  69.355  0.00  0.00    +0.017 A 
ATOM      8  C   UNL     1     -13.030  13.544  72.235  0.00  0.00    +0.017 A 
ATOM      9  C   UNL     1     -11.782  13.332  68.930  0.00  0.00    +0.060 A 
ENDROOT
BRANCH   7  10
ATOM     10  C   UNL     1     -10.335  15.445  68.703  0.00  0.00    +0.002 A 
ATOM     11  C   UNL     1      -9.014  15.327  69.104  0.00  0.00    +0.002 A 
ATOM     12  C   UNL     1      -8.119  16.385  69.035  0.00  0.00    +0.030 A 
ATOM     13  C   UNL     1      -8.608  17.673  68.861  0.00  0.00    +0.140 A 
ATOM     14  F   UNL     1      -7.712  18.692  68.715  0.00  0.00    -0.204 F 
ATOM     15  C   UNL     1      -9.852  17.772  68.278  0.00  0.00    +0.030 A 
ATOM     16  C   UNL     1     -10.692  16.690  68.195  0.00  0.00    +0.002 A 
ENDBRANCH   7  10
BRANCH   1  18
ATOM     17  C   UNL     1     -11.003  10.689  70.247  0.00  0.00    +0.024 C 
ATOM     18  C   UNL     1     -12.248  11.263  70.201  0.00  0.00    +0.086 C 
ATOM     19  C   UNL     1     -12.938  10.961  71.528  0.00  0.00    +0.024 C 
ENDBRANCH   1  18
BRANCH   9  20
ATOM     20  C   UNL     1     -11.686  12.830  67.552  0.00  0.00    +0.015 C 
ATOM     21  C   UNL     1     -10.488  12.584  67.123  0.00  0.00    +0.008 C 
BRANCH  21  22
ATOM     22  C   UNL     1     -10.391  11.721  65.713  0.00  0.00    +0.177 C 
ATOM     23  O   UNL     1     -10.944  10.420  66.369  0.00  0.00    -0.218 OA
BRANCH  22  24
ATOM     24  C   UNL     1     -11.929  12.200  65.212  0.00  0.00    +0.071 C 
BRANCH  24  25
ATOM     25  C   UNL     1     -11.476  13.205  63.938  0.00  0.00    +0.166 C 
ATOM     26  O   UNL     1     -12.675  12.769  63.059  0.00  0.00    -0.222 OA
BRANCH  25  27
ATOM     27  C   UNL     1     -12.323  14.518  64.565  0.00  0.00    +0.147 C 
BRANCH  27  28
ATOM     28  C   UNL     1     -11.281  15.582  64.497  0.00  0.00    +0.367 C 
ATOM     29  O   UNL     1     -10.022  15.459  65.031  0.00  0.00    -0.246 OA
ATOM     30  O   UNL     1     -11.562  16.690  63.975  0.00  0.00    -0.246 OA
ENDBRANCH  27  28
ENDBRANCH  25  27
ENDBRANCH  24  25
ENDBRANCH  22  24
ENDBRANCH  21  22
ENDBRANCH   9  20
TORSDOF 8
ENDMDL
MODEL 4
REMARK VINA RESULT:      -7.0      2.606      5.200
REMARK  Name = 
REMARK  8 active torsions:
REMARK  status: ('A' for Active; 'I' for Inactive)
REMARK    1  A    between atoms: C_2  and  N_4
REMARK    2  A    between atoms: C_5  and  C_6
REMARK    3  A    between atoms: C_7  and  C_8
REMARK    4  A    between atoms: C_8  and  C_10
REMARK    5  A    between atoms: C_10  and  C_11
REMARK    6  A    between atoms: C_11  and  C_13
REMARK    7  A    between atoms: C_13  and  C_14
REMARK    8  A    between atoms: C_17  and  C_18
REMARK                            x       y       z     vdW  Elec       q    Type
REMARK                         _______ _______ _______ _____ _____    ______ ____
ROOT
ATOM      1  N   UNL     1     -10.834  11.196  68.913  0.00  0.00    -0.329 N 
ATOM      2  C   UNL     1     -11.567  10.545  69.848  0.00  0.00    +0.060 A 
ATOM      3  C   UNL     1     -12.342  11.463  70.543  0.00  0.00    +0.017 A 
ATOM      4  C   UNL     1     -12.932  11.141  71.760  0.00  0.00    +0.001 A 
ATOM      5  C   UNL     1     -12.932   9.804  72.131  0.00  0.00    +0.000 A 
ATOM      6  C   UNL     1     -12.370   8.847  71.309  0.00  0.00    +0.001 A 
ATOM      7  C   UNL     1     -12.090  12.672  69.914  0.00  0.00    +0.017 A 
ATOM      8  C   UNL     1     -11.462   9.252  70.345  0.00  0.00    +0.017 A 
ATOM      9  C   UNL     1     -11.371  12.411  68.753  0.00  0.00    +0.060 A 
ENDROOT
BRANCH   7  10
ATOM     10  C   UNL     1     -12.474  13.975  70.469  0.00  0.00    +0.002 A 
ATOM     11  C   UNL     1     -11.476  14.731  71.064  0.00  0.00    +0.002 A 
ATOM     12  C   UNL     1     -11.739  15.640  72.080  0.00  0.00    +0.030 A 
ATOM     13  C   UNL     1     -12.959  15.581  72.740  0.00  0.00    +0.140 A 
ATOM     14  F   UNL     1     -13.234  16.530  73.681  0.00  0.00    -0.204 F 
ATOM     15  C   UNL     1     -13.993  14.992  72.046  0.00  0.00    +0.030 A 
ATOM     16  C   UNL     1     -13.761  14.216  70.939  0.00  0.00    +0.002 A 
ENDBRANCH   7  10
BRANCH   1  18
ATOM     17  C   UNL     1      -8.653  10.306  69.188  0.00  0.00    +0.024 C 
ATOM     18  C   UNL     1      -9.593  10.756  68.297  0.00  0.00    +0.086 C 
ATOM     19  C   UNL     1      -9.921   9.597  67.358  0.00  0.00    +0.024 C 
ENDBRANCH   1  18
BRANCH   9  20
ATOM     20  C   UNL     1     -11.198  13.361  67.644  0.00  0.00    +0.015 C 
ATOM     21  C   UNL     1     -11.472  12.905  66.462  0.00  0.00    +0.008 C 
BRANCH  21  22
ATOM     22  C   UNL     1     -11.598  14.040  65.263  0.00  0.00    +0.177 C 
ATOM     23  O   UNL     1     -13.145  14.154  65.413  0.00  0.00    -0.218 OA
BRANCH  22  24
ATOM     24  C   UNL     1     -11.336  15.321  66.330  0.00  0.00    +0.071 C 
BRANCH  24  25
ATOM     25  C   UNL     1     -10.167  16.150  65.444  0.00  0.00    +0.166 C 
ATOM     26  O   UNL     1     -11.211  16.733  64.457  0.00  0.00    -0.222 OA
BRANCH  25  27
ATOM     27  C   UNL     1     -10.253  17.503  66.442  0.00  0.00    +0.147 C 
BRANCH  27  28
ATOM     28  C   UNL     1      -8.814  17.885  66.520  0.00  0.00    +0.367 C 
ATOM     29  O   UNL     1      -8.321  18.852  67.362  0.00  0.00    -0.246 OA
ATOM     30  O   UNL     1      -7.988  17.347  65.742  0.00  0.00    -0.246 OA
ENDBRANCH  27  28
ENDBRANCH  25  27
ENDBRANCH  24  25
ENDBRANCH  22  24
ENDBRANCH  21  22
ENDBRANCH   9  20
TORSDOF 8
ENDMDL
MODEL 5
REMARK VINA RESULT:      -7.0      4.399      7.657
REMARK  Name = 
REMARK  8 active torsions:
REMARK  status: ('A' for Active; 'I' for Inactive)
REMARK    1  A    between atoms: C_2  and  N_4
REMARK    2  A    between atoms: C_5  and  C_6
REMARK    3  A    between atoms: C_7  and  C_8
REMARK    4  A    between atoms: C_8  and  C_10
REMARK    5  A    between atoms: C_10  and  C_11
REMARK    6  A    between atoms: C_11  and  C_13
REMARK    7  A    between atoms: C_13  and  C_14
REMARK    8  A    between atoms: C_17  and  C_18
REMARK                            x       y       z     vdW  Elec       q    Type
REMARK                         _______ _______ _______ _____ _____    ______ ____
ROOT
ATOM      1  N   UNL     1     -11.354  13.713  66.899  0.00  0.00    -0.329 N 
ATOM      2  C   UNL     1     -10.887  14.982  66.984  0.00  0.00    +0.060 A 
ATOM      3  C   UNL     1     -10.960  15.409  68.304  0.00  0.00    +0.017 A 
ATOM      4  C   UNL     1     -10.868  16.755  68.637  0.00  0.00    +0.001 A 
ATOM      5  C   UNL     1     -10.448  17.627  67.642  0.00  0.00    +0.000 A 
ATOM      6  C   UNL     1     -10.135  17.158  66.382  0.00  0.00    +0.001 A 
ATOM      7  C   UNL     1     -11.415  14.299  68.999  0.00  0.00    +0.017 A 
ATOM      8  C   UNL     1     -10.624  15.921  65.995  0.00  0.00    +0.017 A 
ATOM      9  C   UNL     1     -11.382  13.208  68.137  0.00  0.00    +0.060 A 
ENDROOT
BRANCH   7  10
ATOM     10  C   UNL     1     -11.905  14.349  70.381  0.00  0.00    +0.002 A 
ATOM     11  C   UNL     1     -13.269  14.196  70.577  0.00  0.00    +0.002 A 
ATOM     12  C   UNL     1     -13.932  14.758  71.659  0.00  0.00    +0.030 A 
ATOM     13  C   UNL     1     -13.300  15.751  72.396  0.00  0.00    +0.140 A 
ATOM     14  F   UNL     1     -13.931  16.238  73.504  0.00  0.00    -0.204 F 
ATOM     15  C   UNL     1     -11.923  15.762  72.339  0.00  0.00    +0.030 A 
ATOM     16  C   UNL     1     -11.243  15.078  71.363  0.00  0.00    +0.002 A 
ENDBRANCH   7  10
BRANCH   1  18
ATOM     17  C   UNL     1     -12.704  13.836  64.952  0.00  0.00    +0.024 C 
ATOM     18  C   UNL     1     -11.892  13.045  65.724  0.00  0.00    +0.086 C 
ATOM     19  C   UNL     1     -10.716  12.612  64.852  0.00  0.00    +0.024 C 
ENDBRANCH   1  18
BRANCH   9  20
ATOM     20  C   UNL     1     -11.459  11.803  68.563  0.00  0.00    +0.015 C 
ATOM     21  C   UNL     1     -10.386  11.098  68.378  0.00  0.00    +0.008 C 
BRANCH  21  22
ATOM     22  C   UNL     1     -10.350   9.630  69.143  0.00  0.00    +0.177 C 
ATOM     23  O   UNL     1      -8.983   9.924  69.832  0.00  0.00    -0.218 OA
BRANCH  22  24
ATOM     24  C   UNL     1     -11.216  10.204  70.472  0.00  0.00    +0.071 C 
BRANCH  24  25
ATOM     25  C   UNL     1     -11.839   8.736  71.018  0.00  0.00    +0.166 C 
ATOM     26  O   UNL     1     -10.913   8.711  72.260  0.00  0.00    -0.222 OA
BRANCH  25  27
ATOM     27  C   UNL     1     -13.080   9.486  71.872  0.00  0.00    +0.147 C 
BRANCH  27  28
ATOM     28  C   UNL     1     -14.069   8.374  71.963  0.00  0.00    +0.367 C 
ATOM     29  O   UNL     1     -13.923   7.163  71.333  0.00  0.00    -0.246 OA
ATOM     30  O   UNL     1     -15.138   8.547  72.602  0.00  0.00    -0.246 OA
ENDBRANCH  27  28
ENDBRANCH  25  27
ENDBRANCH  24  25
ENDBRANCH  22  24
ENDBRANCH  21  22
ENDBRANCH   9  20
TORSDOF 8
ENDMDL
MODEL 6
REMARK VINA RESULT:      -6.9      2.791      5.205
REMARK  Name = 
REMARK  8 active torsions:
REMARK  status: ('A' for Active; 'I' for Inactive)
REMARK    1  A    between atoms: C_2  and  N_4
REMARK    2  A    between atoms: C_5  and  C_6
REMARK    3  A    between atoms: C_7  and  C_8
REMARK    4  A    between atoms: C_8  and  C_10
REMARK    5  A    between atoms: C_10  and  C_11
REMARK    6  A    between atoms: C_11  and  C_13
REMARK    7  A    between atoms: C_13  and  C_14
REMARK    8  A    between atoms: C_17  and  C_18
REMARK                            x       y       z     vdW  Elec       q    Type
REMARK                         _______ _______ _______ _____ _____    ______ ____
ROOT
ATOM      1  N   UNL     1     -11.095  12.167  68.534  0.00  0.00    -0.329 N 
ATOM      2  C   UNL     1     -11.671  11.363  69.459  0.00  0.00    +0.060 A 
ATOM      3  C   UNL     1     -12.360  12.144  70.378  0.00  0.00    +0.017 A 
ATOM      4  C   UNL     1     -12.762  11.634  71.607  0.00  0.00    +0.001 A 
ATOM      5  C   UNL     1     -12.679  10.260  71.782  0.00  0.00    +0.000 A 
ATOM      6  C   UNL     1     -12.218   9.449  70.763  0.00  0.00    +0.001 A 
ATOM      7  C   UNL     1     -12.228  13.437  69.896  0.00  0.00    +0.017 A 
ATOM      8  C   UNL     1     -11.466  10.020  69.750  0.00  0.00    +0.017 A 
ATOM      9  C   UNL     1     -11.677  13.368  68.622  0.00  0.00    +0.060 A 
ENDROOT
BRANCH   7  10
ATOM     10  C   UNL     1     -12.560  14.635  70.678  0.00  0.00    +0.002 A 
ATOM     11  C   UNL     1     -11.532  15.233  71.390  0.00  0.00    +0.002 A 
ATOM     12  C   UNL     1     -11.757  15.956  72.553  0.00  0.00    +0.030 A 
ATOM     13  C   UNL     1     -12.978  15.828  73.202  0.00  0.00    +0.140 A 
ATOM     14  F   UNL     1     -13.213  16.605  74.299  0.00  0.00    -0.204 F 
ATOM     15  C   UNL     1     -14.036  15.414  72.422  0.00  0.00    +0.030 A 
ATOM     16  C   UNL     1     -13.836  14.838  71.194  0.00  0.00    +0.002 A 
ENDBRANCH   7  10
BRANCH   1  18
ATOM     17  C   UNL     1      -8.899  11.287  68.366  0.00  0.00    +0.024 C 
ATOM     18  C   UNL     1      -9.945  11.868  67.696  0.00  0.00    +0.086 C 
ATOM     19  C   UNL     1     -10.394  10.888  66.614  0.00  0.00    +0.024 C 
ENDBRANCH   1  18
BRANCH   9  20
ATOM     20  C   UNL     1     -11.686  14.467  67.645  0.00  0.00    +0.015 C 
ATOM     21  C   UNL     1     -10.564  15.097  67.494  0.00  0.00    +0.008 C 
BRANCH  21  22
ATOM     22  C   UNL     1     -10.473  16.102  66.181  0.00  0.00    +0.177 C 
ATOM     23  O   UNL     1      -8.915  16.129  66.200  0.00  0.00    -0.218 OA
BRANCH  22  24
ATOM     24  C   UNL     1     -10.502  14.817  65.088  0.00  0.00    +0.071 C 
BRANCH  24  25
ATOM     25  C   UNL     1     -12.134  14.876  64.675  0.00  0.00    +0.166 C 
ATOM     26  O   UNL     1     -11.952  16.143  63.801  0.00  0.00    -0.222 OA
BRANCH  25  27
ATOM     27  C   UNL     1     -11.922  13.851  63.357  0.00  0.00    +0.147 C 
BRANCH  27  28
ATOM     28  C   UNL     1     -12.445  12.570  63.911  0.00  0.00    +0.367 C 
ATOM     29  O   UNL     1     -13.138  12.470  65.093  0.00  0.00    -0.246 OA
ATOM     30  O   UNL     1     -12.203  11.492  63.312  0.00  0.00    -0.246 OA
ENDBRANCH  27  28
ENDBRANCH  25  27
ENDBRANCH  24  25
ENDBRANCH  22  24
ENDBRANCH  21  22
ENDBRANCH   9  20
TORSDOF 8
ENDMDL
MODEL 7
REMARK VINA RESULT:      -6.7      2.864      5.166
REMARK  Name = 
REMARK  8 active torsions:
REMARK  status: ('A' for Active; 'I' for Inactive)
REMARK    1  A    between atoms: C_2  and  N_4
REMARK    2  A    between atoms: C_5  and  C_6
REMARK    3  A    between atoms: C_7  and  C_8
REMARK    4  A    between atoms: C_8  and  C_10
REMARK    5  A    between atoms: C_10  and  C_11
REMARK    6  A    between atoms: C_11  and  C_13
REMARK    7  A    between atoms: C_13  and  C_14
REMARK    8  A    between atoms: C_17  and  C_18
REMARK                            x       y       z     vdW  Elec       q    Type
REMARK                         _______ _______ _______ _____ _____    ______ ____
ROOT
ATOM      1  N   UNL     1     -10.354   9.935  69.628  0.00  0.00    -0.329 N 
ATOM      2  C   UNL     1     -11.355   9.459  70.406  0.00  0.00    +0.060 A 
ATOM      3  C   UNL     1     -12.235  10.491  70.704  0.00  0.00    +0.017 A 
ATOM      4  C   UNL     1     -13.157  10.384  71.738  0.00  0.00    +0.001 A 
ATOM      5  C   UNL     1     -13.342   9.127  72.295  0.00  0.00    +0.000 A 
ATOM      6  C   UNL     1     -12.635   8.038  71.824  0.00  0.00    +0.001 A 
ATOM      7  C   UNL     1     -11.744  11.576  69.993  0.00  0.00    +0.017 A 
ATOM      8  C   UNL     1     -11.472   8.264  71.106  0.00  0.00    +0.017 A 
ATOM      9  C   UNL     1     -10.749  11.115  69.137  0.00  0.00    +0.060 A 
ENDROOT
BRANCH   7  10
ATOM     10  C   UNL     1     -12.186  12.959  70.209  0.00  0.00    +0.002 A 
ATOM     11  C   UNL     1     -11.472  13.960  69.569  0.00  0.00    +0.002 A 
ATOM     12  C   UNL     1     -11.379  15.247  70.079  0.00  0.00    +0.030 A 
ATOM     13  C   UNL     1     -11.732  15.476  71.403  0.00  0.00    +0.140 A 
ATOM     14  F   UNL     1     -11.711  16.760  71.866  0.00  0.00    -0.204 F 
ATOM     15  C   UNL     1     -12.602  14.566  71.961  0.00  0.00    +0.030 A 
ATOM     16  C   UNL     1     -12.828  13.343  71.381  0.00  0.00    +0.002 A 
ENDBRANCH   7  10
BRANCH   1  18
ATOM     17  C   UNL     1      -8.373   9.118  70.644  0.00  0.00    +0.024 C 
ATOM     18  C   UNL     1      -9.020   9.379  69.464  0.00  0.00    +0.086 C 
ATOM     19  C   UNL     1      -9.153   8.055  68.715  0.00  0.00    +0.024 C 
ENDBRANCH   1  18
BRANCH   9  20
ATOM     20  C   UNL     1     -10.218  11.866  67.991  0.00  0.00    +0.015 C 
ATOM     21  C   UNL     1     -10.712  11.553  66.833  0.00  0.00    +0.008 C 
BRANCH  21  22
ATOM     22  C   UNL     1     -10.370  12.601  65.598  0.00  0.00    +0.177 C 
ATOM     23  O   UNL     1      -9.752  11.484  64.705  0.00  0.00    -0.218 OA
BRANCH  22  24
ATOM     24  C   UNL     1     -11.893  12.407  64.897  0.00  0.00    +0.071 C 
BRANCH  24  25
ATOM     25  C   UNL     1     -12.110  13.979  64.330  0.00  0.00    +0.166 C 
ATOM     26  O   UNL     1     -13.289  14.253  65.297  0.00  0.00    -0.222 OA
BRANCH  25  27
ATOM     27  C   UNL     1     -10.985  14.611  65.410  0.00  0.00    +0.147 C 
BRANCH  27  28
ATOM     28  C   UNL     1     -10.932  16.031  64.961  0.00  0.00    +0.367 C 
ATOM     29  O   UNL     1     -11.598  16.514  63.861  0.00  0.00    -0.246 OA
ATOM     30  O   UNL     1     -10.197  16.847  65.572  0.00  0.00    -0.246 OA
ENDBRANCH  27  28
ENDBRANCH  25  27
ENDBRANCH  24  25
ENDBRANCH  22  24
ENDBRANCH  21  22
ENDBRANCH   9  20
TORSDOF 8
ENDMDL
MODEL 8
REMARK VINA RESULT:      -6.7      1.738      2.872
REMARK  Name = 
REMARK  8 active torsions:
REMARK  status: ('A' for Active; 'I' for Inactive)
REMARK    1  A    between atoms: C_2  and  N_4
REMARK    2  A    between atoms: C_5  and  C_6
REMARK    3  A    between atoms: C_7  and  C_8
REMARK    4  A    between atoms: C_8  and  C_10
REMARK    5  A    between atoms: C_10  and  C_11
REMARK    6  A    between atoms: C_11  and  C_13
REMARK    7  A    between atoms: C_13  and  C_14
REMARK    8  A    between atoms: C_17  and  C_18
REMARK                            x       y       z     vdW  Elec       q    Type
REMARK                         _______ _______ _______ _____ _____    ______ ____
ROOT
ATOM      1  N   UNL     1     -12.220  14.675  70.012  0.00  0.00    -0.329 N 
ATOM      2  C   UNL     1     -12.089  13.333  70.140  0.00  0.00    +0.060 A 
ATOM      3  C   UNL     1     -11.745  12.787  68.911  0.00  0.00    +0.017 A 
ATOM      4  C   UNL     1     -11.868  11.426  68.660  0.00  0.00    +0.001 A 
ATOM      5  C   UNL     1     -12.104  10.599  69.750  0.00  0.00    +0.000 A 
ATOM      6  C   UNL     1     -12.202  11.125  71.023  0.00  0.00    +0.001 A 
ATOM      7  C   UNL     1     -11.599  13.885  68.077  0.00  0.00    +0.017 A 
ATOM      8  C   UNL     1     -12.478  12.476  71.162  0.00  0.00    +0.017 A 
ATOM      9  C   UNL     1     -11.634  15.031  68.863  0.00  0.00    +0.060 A 
ENDROOT
BRANCH   7  10
ATOM     10  C   UNL     1     -11.505  13.790  66.615  0.00  0.00    +0.002 A 
ATOM     11  C   UNL     1     -12.691  13.649  65.911  0.00  0.00    +0.002 A 
ATOM     12  C   UNL     1     -12.753  13.004  64.684  0.00  0.00    +0.030 A 
ATOM     13  C   UNL     1     -11.688  12.208  64.284  0.00  0.00    +0.140 A 
ATOM     14  F   UNL     1     -11.730  11.645  63.042  0.00  0.00    -0.204 F 
ATOM     15  C   UNL     1     -10.470  12.496  64.860  0.00  0.00    +0.030 A 
ATOM     16  C   UNL     1     -10.378  13.269  65.989  0.00  0.00    +0.002 A 
ENDBRANCH   7  10
BRANCH   1  18
ATOM     17  C   UNL     1     -14.148  15.029  71.347  0.00  0.00    +0.024 C 
ATOM     18  C   UNL     1     -12.989  15.573  70.858  0.00  0.00    +0.086 C 
ATOM     19  C   UNL     1     -12.120  15.946  72.057  0.00  0.00    +0.024 C 
ENDBRANCH   1  18
BRANCH   9  20
ATOM     20  C   UNL     1     -11.185  16.360  68.426  0.00  0.00    +0.015 C 
ATOM     21  C   UNL     1      -9.942  16.447  68.069  0.00  0.00    +0.008 C 
BRANCH  21  22
ATOM     22  C   UNL     1      -9.516  17.835  67.273  0.00  0.00    +0.177 C 
ATOM     23  O   UNL     1     -10.844  18.560  67.646  0.00  0.00    -0.218 OA
BRANCH  22  24
ATOM     24  C   UNL     1      -8.718  18.465  68.620  0.00  0.00    +0.071 C 
BRANCH  24  25
ATOM     25  C   UNL     1      -7.169  18.572  67.966  0.00  0.00    +0.166 C 
ATOM     26  O   UNL     1      -6.768  19.745  68.896  0.00  0.00    -0.222 OA
BRANCH  25  27
ATOM     27  C   UNL     1      -6.552  17.424  69.031  0.00  0.00    +0.147 C 
BRANCH  27  28
ATOM     28  C   UNL     1      -5.900  16.480  68.079  0.00  0.00    +0.367 C 
ATOM     29  O   UNL     1      -6.434  16.121  66.866  0.00  0.00    -0.246 OA
ATOM     30  O   UNL     1      -4.822  15.920  68.403  0.00  0.00    -0.246 OA
ENDBRANCH  27  28
ENDBRANCH  25  27
ENDBRANCH  24  25
ENDBRANCH  22  24
ENDBRANCH  21  22
ENDBRANCH   9  20
TORSDOF 8
ENDMDL
MODEL 9
REMARK VINA RESULT:      -6.6      2.723      5.093
REMARK  Name = 
REMARK  8 active torsions:
REMARK  status: ('A' for Active; 'I' for Inactive)
REMARK    1  A    between atoms: C_2  and  N_4
REMARK    2  A    between atoms: C_5  and  C_6
REMARK    3  A    between atoms: C_7  and  C_8
REMARK    4  A    between atoms: C_8  and  C_10
REMARK    5  A    between atoms: C_10  and  C_11
REMARK    6  A    between atoms: C_11  and  C_13
REMARK    7  A    between atoms: C_13  and  C_14
REMARK    8  A    between atoms: C_17  and  C_18
REMARK                            x       y       z     vdW  Elec       q    Type
REMARK                         _______ _______ _______ _____ _____    ______ ____
ROOT
ATOM      1  N   UNL     1     -12.077  13.117  69.630  0.00  0.00    -0.329 N 
ATOM      2  C   UNL     1     -12.449  13.865  70.696  0.00  0.00    +0.060 A 
ATOM      3  C   UNL     1     -11.866  15.122  70.599  0.00  0.00    +0.017 A 
ATOM      4  C   UNL     1     -11.795  15.976  71.693  0.00  0.00    +0.001 A 
ATOM      5  C   UNL     1     -12.545  15.638  72.811  0.00  0.00    +0.000 A 
ATOM      6  C   UNL     1     -13.328  14.501  72.815  0.00  0.00    +0.001 A 
ATOM      7  C   UNL     1     -11.203  15.100  69.382  0.00  0.00    +0.017 A 
ATOM      8  C   UNL     1     -13.051  13.503  71.894  0.00  0.00    +0.017 A 
ATOM      9  C   UNL     1     -11.587  13.948  68.704  0.00  0.00    +0.060 A 
ENDROOT
BRANCH   7  10
ATOM     10  C   UNL     1     -10.219  16.108  68.972  0.00  0.00    +0.002 A 
ATOM     11  C   UNL     1     -10.685  17.192  68.244  0.00  0.00    +0.002 A 
ATOM     12  C   UNL     1      -9.887  17.879  67.340  0.00  0.00    +0.030 A 
ATOM     13  C   UNL     1      -8.701  17.299  66.910  0.00  0.00    +0.140 A 
ATOM     14  F   UNL     1      -7.889  18.020  66.084  0.00  0.00    -0.204 F 
ATOM     15  C   UNL     1      -8.151  16.355  67.751  0.00  0.00    +0.030 A 
ATOM     16  C   UNL     1      -8.885  15.779  68.756  0.00  0.00    +0.002 A 
ENDBRANCH   7  10
BRANCH   1  18
ATOM     17  C   UNL     1     -10.810  11.150  69.240  0.00  0.00    +0.024 C 
ATOM     18  C   UNL     1     -12.046  11.666  69.535  0.00  0.00    +0.086 C 
ATOM     19  C   UNL     1     -12.464  11.099  70.889  0.00  0.00    +0.024 C 
ENDBRANCH   1  18
BRANCH   9  20
ATOM     20  C   UNL     1     -11.382  13.716  67.266  0.00  0.00    +0.015 C 
ATOM     21  C   UNL     1     -12.310  14.172  66.484  0.00  0.00    +0.008 C 
BRANCH  21  22
ATOM     22  C   UNL     1     -11.937  14.209  64.871  0.00  0.00    +0.177 C 
ATOM     23  O   UNL     1     -10.980  15.428  65.031  0.00  0.00    -0.218 OA
BRANCH  22  24
ATOM     24  C   UNL     1     -10.671  13.108  65.050  0.00  0.00    +0.071 C 
BRANCH  24  25
ATOM     25  C   UNL     1     -11.348  11.809  64.218  0.00  0.00    +0.166 C 
ATOM     26  O   UNL     1     -12.109  12.732  63.232  0.00  0.00    -0.222 OA
BRANCH  25  27
ATOM     27  C   UNL     1     -10.027  11.677  63.183  0.00  0.00    +0.147 C 
BRANCH  27  28
ATOM     28  C   UNL     1      -9.646  10.252  63.397  0.00  0.00    +0.367 C 
ATOM     29  O   UNL     1      -9.275   9.397  62.388  0.00  0.00    -0.246 OA
ATOM     30  O   UNL     1      -9.712   9.759  64.550  0.00  0.00    -0.246 OA
ENDBRANCH  27  28
ENDBRANCH  25  27
ENDBRANCH  24  25
ENDBRANCH  22  24
ENDBRANCH  21  22
ENDBRANCH   9  20
TORSDOF 8
ENDMDL
