MODEL 1
REMARK VINA RESULT:      -5.7      0.000      0.000
REMARK  Name = 
REMARK  3 active torsions:
REMARK  status: ('A' for Active; 'I' for Inactive)
REMARK    1  A    between atoms: N_4  and  C_5
REMARK    2  A    between atoms: C_5  and  C_7
REMARK    3  A    between atoms: C_7  and  C_8
REMARK                            x       y       z     vdW  Elec       q    Type
REMARK                         _______ _______ _______ _____ _____    ______ ____
ROOT
ATOM      1  C   UNL     1     -12.043  13.387  70.044  0.00  0.00    +0.010 A 
ATOM      2  C   UNL     1     -12.384  12.244  70.754  0.00  0.00    +0.055 A 
ATOM      3 CL   UNL     1     -13.436  12.347  72.163  0.00  0.00    -0.083 Cl
ATOM      4  C   UNL     1     -12.060  10.979  70.279  0.00  0.00    +0.011 A 
ATOM      5  C   UNL     1     -11.070  10.952  69.304  0.00  0.00    +0.002 A 
ATOM      6  C   UNL     1     -10.891  12.041  68.462  0.00  0.00    +0.011 A 
ATOM      7  C   UNL     1     -11.543  13.232  68.758  0.00  0.00    +0.055 A 
ATOM      8 CL   UNL     1     -11.911  14.388  67.480  0.00  0.00    -0.083 Cl
ENDROOT
BRANCH   1   9
ATOM      9  C   UNL     1     -12.783  14.638  70.354  0.00  0.00    +0.134 C 
BRANCH   9  10
ATOM     10  C   UNL     1     -11.885  15.689  70.910  0.00  0.00    +0.323 C 
ATOM     11  O   UNL     1     -11.467  16.595  70.128  0.00  0.00    -0.253 OA
BRANCH  10  14
ATOM     12  N   UNL     1     -12.578  15.929  74.496  0.00  0.00    +0.133 NA
ATOM     13  C   UNL     1     -12.825  15.773  73.100  0.00  0.00    +0.532 C 
ATOM     14  N   UNL     1     -11.812  15.837  72.317  0.00  0.00    +0.008 NA
ATOM     15  N   UNL     1     -14.169  16.032  72.671  0.00  0.00    +0.133 NA
ENDBRANCH  10  14
ENDBRANCH   9  10
ENDBRANCH   1   9
TORSDOF 3
ENDMDL
MODEL 2
REMARK VINA RESULT:      -5.6      6.317      7.725
REMARK  Name = 
REMARK  3 active torsions:
REMARK  status: ('A' for Active; 'I' for Inactive)
REMARK    1  A    between atoms: N_4  and  C_5
REMARK    2  A    between atoms: C_5  and  C_7
REMARK    3  A    between atoms: C_7  and  C_8
REMARK                            x       y       z     vdW  Elec       q    Type
REMARK                         _______ _______ _______ _____ _____    ______ ____
ROOT
ATOM      1  C   UNL     1      -9.138  17.369  66.211  0.00  0.00    +0.010 A 
ATOM      2  C   UNL     1      -9.189  18.731  66.473  0.00  0.00    +0.055 A 
ATOM      3 CL   UNL     1     -10.732  19.528  66.766  0.00  0.00    -0.083 Cl
ATOM      4  C   UNL     1      -8.030  19.466  66.691  0.00  0.00    +0.011 A 
ATOM      5  C   UNL     1      -6.859  18.862  66.249  0.00  0.00    +0.002 A 
ATOM      6  C   UNL     1      -6.765  17.477  66.198  0.00  0.00    +0.011 A 
ATOM      7  C   UNL     1      -7.920  16.721  66.361  0.00  0.00    +0.055 A 
ATOM      8 CL   UNL     1      -7.823  15.065  66.957  0.00  0.00    -0.083 Cl
ENDROOT
BRANCH   1   9
ATOM      9  C   UNL     1     -10.376  16.577  66.431  0.00  0.00    +0.134 C 
BRANCH   9  10
ATOM     10  C   UNL     1     -10.913  16.024  65.156  0.00  0.00    +0.323 C 
ATOM     11  O   UNL     1     -11.251  16.838  64.245  0.00  0.00    -0.253 OA
BRANCH  10  14
ATOM     12  N   UNL     1     -11.268  12.463  64.383  0.00  0.00    +0.133 NA
ATOM     13  C   UNL     1     -11.648  13.810  64.664  0.00  0.00    +0.532 C 
ATOM     14  N   UNL     1     -10.705  14.650  64.878  0.00  0.00    +0.008 NA
ATOM     15  N   UNL     1     -12.989  13.993  65.138  0.00  0.00    +0.133 NA
ENDBRANCH  10  14
ENDBRANCH   9  10
ENDBRANCH   1   9
TORSDOF 3
ENDMDL
MODEL 3
REMARK VINA RESULT:      -5.6      4.567      5.911
REMARK  Name = 
REMARK  3 active torsions:
REMARK  status: ('A' for Active; 'I' for Inactive)
REMARK    1  A    between atoms: N_4  and  C_5
REMARK    2  A    between atoms: C_5  and  C_7
REMARK    3  A    between atoms: C_7  and  C_8
REMARK                            x       y       z     vdW  Elec       q    Type
REMARK                         _______ _______ _______ _____ _____    ______ ____
ROOT
ATOM      1  C   UNL     1     -10.980  14.879  67.819  0.00  0.00    +0.010 A 
ATOM      2  C   UNL     1     -11.214  13.587  68.268  0.00  0.00    +0.055 A 
ATOM      3 CL   UNL     1     -10.591  12.203  67.373  0.00  0.00    -0.083 Cl
ATOM      4  C   UNL     1     -11.781  13.350  69.514  0.00  0.00    +0.011 A 
ATOM      5  C   UNL     1     -12.437  14.437  70.079  0.00  0.00    +0.002 A 
ATOM      6  C   UNL     1     -12.037  15.731  69.768  0.00  0.00    +0.011 A 
ATOM      7  C   UNL     1     -11.147  15.923  68.719  0.00  0.00    +0.055 A 
ATOM      8 CL   UNL     1     -10.113  17.350  68.679  0.00  0.00    -0.083 Cl
ENDROOT
BRANCH   1   9
ATOM      9  C   UNL     1      -9.994  15.062  66.722  0.00  0.00    +0.134 C 
BRANCH   9  10
ATOM     10  C   UNL     1     -10.659  15.388  65.429  0.00  0.00    +0.323 C 
ATOM     11  O   UNL     1     -10.648  16.594  65.038  0.00  0.00    -0.253 OA
BRANCH  10  14
ATOM     12  N   UNL     1     -12.282  12.820  63.386  0.00  0.00    +0.133 NA
ATOM     13  C   UNL     1     -12.146  13.888  64.322  0.00  0.00    +0.532 C 
ATOM     14  N   UNL     1     -10.962  14.326  64.541  0.00  0.00    +0.008 NA
ATOM     15  N   UNL     1     -13.227  14.044  65.251  0.00  0.00    +0.133 NA
ENDBRANCH  10  14
ENDBRANCH   9  10
ENDBRANCH   1   9
TORSDOF 3
ENDMDL
MODEL 4
REMARK VINA RESULT:      -5.5      4.080      5.425
REMARK  Name = 
REMARK  3 active torsions:
REMARK  status: ('A' for Active; 'I' for Inactive)
REMARK    1  A    between atoms: N_4  and  C_5
REMARK    2  A    between atoms: C_5  and  C_7
REMARK    3  A    between atoms: C_7  and  C_8
REMARK                            x       y       z     vdW  Elec       q    Type
REMARK                         _______ _______ _______ _____ _____    ______ ____
ROOT
ATOM      1  C   UNL     1     -12.002  13.774  69.443  0.00  0.00    +0.010 A 
ATOM      2  C   UNL     1     -12.301  12.868  70.452  0.00  0.00    +0.055 A 
ATOM      3 CL   UNL     1     -11.761  11.196  70.341  0.00  0.00    -0.083 Cl
ATOM      4  C   UNL     1     -12.870  13.286  71.648  0.00  0.00    +0.011 A 
ATOM      5  C   UNL     1     -13.462  14.543  71.611  0.00  0.00    +0.002 A 
ATOM      6  C   UNL     1     -12.996  15.508  70.727  0.00  0.00    +0.011 A 
ATOM      7  C   UNL     1     -12.105  15.129  69.730  0.00  0.00    +0.055 A 
ATOM      8 CL   UNL     1     -10.997  16.307  69.031  0.00  0.00    -0.083 Cl
ENDROOT
BRANCH   1   9
ATOM      9  C   UNL     1     -11.016  13.358  68.412  0.00  0.00    +0.134 C 
BRANCH   9  10
ATOM     10  C   UNL     1     -11.685  12.874  67.171  0.00  0.00    +0.323 C 
ATOM     11  O   UNL     1     -12.040  11.659  67.117  0.00  0.00    -0.253 OA
BRANCH  10  14
ATOM     12  N   UNL     1     -12.534  14.894  64.239  0.00  0.00    +0.133 NA
ATOM     13  C   UNL     1     -11.918  13.869  65.017  0.00  0.00    +0.532 C 
ATOM     14  N   UNL     1     -12.200  13.835  66.266  0.00  0.00    +0.008 NA
ATOM     15  N   UNL     1     -10.725  13.298  64.463  0.00  0.00    +0.133 NA
ENDBRANCH  10  14
ENDBRANCH   9  10
ENDBRANCH   1   9
TORSDOF 3
ENDMDL
MODEL 5
REMARK VINA RESULT:      -5.5      2.683      4.207
REMARK  Name = 
REMARK  3 active torsions:
REMARK  status: ('A' for Active; 'I' for Inactive)
REMARK    1  A    between atoms: N_4  and  C_5
REMARK    2  A    between atoms: C_5  and  C_7
REMARK    3  A    between atoms: C_7  and  C_8
REMARK                            x       y       z     vdW  Elec       q    Type
REMARK                         _______ _______ _______ _____ _____    ______ ____
ROOT
ATOM      1  C   UNL     1     -11.105  14.943  67.180  0.00  0.00    +0.010 A 
ATOM      2  C   UNL     1     -10.512  15.490  66.051  0.00  0.00    +0.055 A 
ATOM      3 CL   UNL     1      -9.172  16.622  66.204  0.00  0.00    -0.083 Cl
ATOM      4  C   UNL     1     -10.830  15.033  64.778  0.00  0.00    +0.011 A 
ATOM      5  C   UNL     1     -12.016  14.312  64.691  0.00  0.00    +0.002 A 
ATOM      6  C   UNL     1     -12.478  13.595  65.787  0.00  0.00    +0.011 A 
ATOM      7  C   UNL     1     -11.877  13.799  67.023  0.00  0.00    +0.055 A 
ATOM      8 CL   UNL     1     -11.917  12.537  68.253  0.00  0.00    -0.083 Cl
ENDROOT
BRANCH   1   9
ATOM      9  C   UNL     1     -10.421  15.143  68.485  0.00  0.00    +0.134 C 
BRANCH   9  10
ATOM     10  C   UNL     1     -11.072  16.212  69.292  0.00  0.00    +0.323 C 
ATOM     11  O   UNL     1     -10.618  17.392  69.201  0.00  0.00    -0.253 OA
BRANCH  10  14
ATOM     12  N   UNL     1     -13.918  15.503  71.483  0.00  0.00    +0.133 NA
ATOM     13  C   UNL     1     -12.567  15.730  71.087  0.00  0.00    +0.532 C 
ATOM     14  N   UNL     1     -12.352  15.955  69.844  0.00  0.00    +0.008 NA
ATOM     15  N   UNL     1     -11.562  15.234  71.983  0.00  0.00    +0.133 NA
ENDBRANCH  10  14
ENDBRANCH   9  10
ENDBRANCH   1   9
TORSDOF 3
ENDMDL
MODEL 6
REMARK VINA RESULT:      -5.4      7.442      8.930
REMARK  Name = 
REMARK  3 active torsions:
REMARK  status: ('A' for Active; 'I' for Inactive)
REMARK    1  A    between atoms: N_4  and  C_5
REMARK    2  A    between atoms: C_5  and  C_7
REMARK    3  A    between atoms: C_7  and  C_8
REMARK                            x       y       z     vdW  Elec       q    Type
REMARK                         _______ _______ _______ _____ _____    ______ ____
ROOT
ATOM      1  C   UNL     1      -6.767  19.011  69.042  0.00  0.00    +0.010 A 
ATOM      2  C   UNL     1      -6.879  20.089  68.175  0.00  0.00    +0.055 A 
ATOM      3 CL   UNL     1      -5.586  21.279  68.056  0.00  0.00    -0.083 Cl
ATOM      4  C   UNL     1      -7.917  20.168  67.254  0.00  0.00    +0.011 A 
ATOM      5  C   UNL     1      -9.003  19.343  67.521  0.00  0.00    +0.002 A 
ATOM      6  C   UNL     1      -8.822  18.153  68.215  0.00  0.00    +0.011 A 
ATOM      7  C   UNL     1      -7.603  17.921  68.839  0.00  0.00    +0.055 A 
ATOM      8 CL   UNL     1      -7.059  16.272  69.145  0.00  0.00    -0.083 Cl
ENDROOT
BRANCH   1   9
ATOM      9  C   UNL     1      -5.441  18.761  69.665  0.00  0.00    +0.134 C 
BRANCH   9  10
ATOM     10  C   UNL     1      -5.461  19.025  71.131  0.00  0.00    +0.323 C 
ATOM     11  O   UNL     1      -5.204  18.064  71.917  0.00  0.00    -0.253 OA
BRANCH  10  14
ATOM     12  N   UNL     1      -4.478  22.340  72.334  0.00  0.00    +0.133 NA
ATOM     13  C   UNL     1      -4.349  20.978  71.928  0.00  0.00    +0.532 C 
ATOM     14  N   UNL     1      -5.420  20.371  71.573  0.00  0.00    +0.008 NA
ATOM     15  N   UNL     1      -3.174  20.298  72.389  0.00  0.00    +0.133 NA
ENDBRANCH  10  14
ENDBRANCH   9  10
ENDBRANCH   1   9
TORSDOF 3
ENDMDL
MODEL 7
REMARK VINA RESULT:      -5.3      4.773      5.630
REMARK  Name = 
REMARK  3 active torsions:
REMARK  status: ('A' for Active; 'I' for Inactive)
REMARK    1  A    between atoms: N_4  and  C_5
REMARK    2  A    between atoms: C_5  and  C_7
REMARK    3  A    between atoms: C_7  and  C_8
REMARK                            x       y       z     vdW  Elec       q    Type
REMARK                         _______ _______ _______ _____ _____    ______ ____
ROOT
ATOM      1  C   UNL     1     -11.425  13.372  65.704  0.00  0.00    +0.010 A 
ATOM      2  C   UNL     1     -11.422  13.054  67.056  0.00  0.00    +0.055 A 
ATOM      3 CL   UNL     1     -11.950  14.233  68.253  0.00  0.00    -0.083 Cl
ATOM      4  C   UNL     1     -11.179  11.757  67.489  0.00  0.00    +0.011 A 
ATOM      5  C   UNL     1     -10.571  10.928  66.553  0.00  0.00    +0.002 A 
ATOM      6  C   UNL     1     -10.767  11.147  65.196  0.00  0.00    +0.011 A 
ATOM      7  C   UNL     1     -11.372  12.330  64.789  0.00  0.00    +0.055 A 
ATOM      8 CL   UNL     1     -12.232  12.408  63.252  0.00  0.00    -0.083 Cl
ENDROOT
BRANCH   1   9
ATOM      9  C   UNL     1     -12.114  14.623  65.291  0.00  0.00    +0.134 C 
BRANCH   9  10
ATOM     10  C   UNL     1     -11.170  15.593  64.668  0.00  0.00    +0.323 C 
ATOM     11  O   UNL     1     -11.650  16.506  63.930  0.00  0.00    -0.253 OA
BRANCH  10  14
ATOM     12  N   UNL     1      -8.153  16.336  66.604  0.00  0.00    +0.133 NA
ATOM     13  C   UNL     1      -9.523  16.371  66.206  0.00  0.00    +0.532 C 
ATOM     14  N   UNL     1      -9.852  15.676  65.182  0.00  0.00    +0.008 NA
ATOM     15  N   UNL     1     -10.277  17.502  66.666  0.00  0.00    +0.133 NA
ENDBRANCH  10  14
ENDBRANCH   9  10
ENDBRANCH   1   9
TORSDOF 3
ENDMDL
MODEL 8
REMARK VINA RESULT:      -5.3      3.881      5.055
REMARK  Name = 
REMARK  3 active torsions:
REMARK  status: ('A' for Active; 'I' for Inactive)
REMARK    1  A    between atoms: N_4  and  C_5
REMARK    2  A    between atoms: C_5  and  C_7
REMARK    3  A    between atoms: C_7  and  C_8
REMARK                            x       y       z     vdW  Elec       q    Type
REMARK                         _______ _______ _______ _____ _____    ______ ____
ROOT
ATOM      1  C   UNL     1     -11.819  13.186  69.560  0.00  0.00    +0.010 A 
ATOM      2  C   UNL     1     -11.894  11.812  69.746  0.00  0.00    +0.055 A 
ATOM      3 CL   UNL     1     -11.111  10.712  68.615  0.00  0.00    -0.083 Cl
ATOM      4  C   UNL     1     -12.425  11.272  70.911  0.00  0.00    +0.011 A 
ATOM      5  C   UNL     1     -13.206  12.144  71.661  0.00  0.00    +0.002 A 
ATOM      6  C   UNL     1     -12.966  13.511  71.614  0.00  0.00    +0.011 A 
ATOM      7  C   UNL     1     -12.108  14.008  70.641  0.00  0.00    +0.055 A 
ATOM      8 CL   UNL     1     -11.254  15.528  70.897  0.00  0.00    -0.083 Cl
ENDROOT
BRANCH   1   9
ATOM      9  C   UNL     1     -10.865  13.693  68.539  0.00  0.00    +0.134 C 
BRANCH   9  10
ATOM     10  C   UNL     1     -11.546  14.532  67.514  0.00  0.00    +0.323 C 
ATOM     11  O   UNL     1     -11.101  15.700  67.303  0.00  0.00    -0.253 OA
BRANCH  10  14
ATOM     12  N   UNL     1     -13.022  12.627  64.758  0.00  0.00    +0.133 NA
ATOM     13  C   UNL     1     -12.017  13.217  65.581  0.00  0.00    +0.532 C 
ATOM     14  N   UNL     1     -12.415  13.895  66.592  0.00  0.00    +0.008 NA
ATOM     15  N   UNL     1     -10.735  13.398  64.966  0.00  0.00    +0.133 NA
ENDBRANCH  10  14
ENDBRANCH   9  10
ENDBRANCH   1   9
TORSDOF 3
ENDMDL
MODEL 9
REMARK VINA RESULT:      -5.3      2.194      2.911
REMARK  Name = 
REMARK  3 active torsions:
REMARK  status: ('A' for Active; 'I' for Inactive)
REMARK    1  A    between atoms: N_4  and  C_5
REMARK    2  A    between atoms: C_5  and  C_7
REMARK    3  A    between atoms: C_7  and  C_8
REMARK                            x       y       z     vdW  Elec       q    Type
REMARK                         _______ _______ _______ _____ _____    ______ ____
ROOT
ATOM      1  C   UNL     1     -12.156  13.433  70.178  0.00  0.00    +0.010 A 
ATOM      2  C   UNL     1     -12.711  12.650  71.182  0.00  0.00    +0.055 A 
ATOM      3 CL   UNL     1     -13.689  13.383  72.450  0.00  0.00    -0.083 Cl
ATOM      4  C   UNL     1     -12.665  11.263  71.121  0.00  0.00    +0.011 A 
ATOM      5  C   UNL     1     -11.723  10.743  70.241  0.00  0.00    +0.002 A 
ATOM      6  C   UNL     1     -11.341  11.469  69.120  0.00  0.00    +0.011 A 
ATOM      7  C   UNL     1     -11.727  12.800  69.019  0.00  0.00    +0.055 A 
ATOM      8 CL   UNL     1     -11.875  13.568  67.440  0.00  0.00    -0.083 Cl
ENDROOT
BRANCH   1   9
ATOM      9  C   UNL     1     -12.616  14.842  70.068  0.00  0.00    +0.134 C 
BRANCH   9  10
ATOM     10  C   UNL     1     -11.580  15.800  70.547  0.00  0.00    +0.323 C 
ATOM     11  O   UNL     1     -11.733  16.327  71.689  0.00  0.00    -0.253 OA
BRANCH  10  14
ATOM     12  N   UNL     1      -8.685  16.578  68.446  0.00  0.00    +0.133 NA
ATOM     13  C   UNL     1      -9.992  16.689  69.005  0.00  0.00    +0.532 C 
ATOM     14  N   UNL     1     -10.326  15.821  69.886  0.00  0.00    +0.008 NA
ATOM     15  N   UNL     1     -10.944  17.424  68.224  0.00  0.00    +0.133 NA
ENDBRANCH  10  14
ENDBRANCH   9  10
ENDBRANCH   1   9
TORSDOF 3
ENDMDL
