MODEL 1
REMARK VINA RESULT:      -7.5      0.000      0.000
REMARK  Name = 
REMARK  4 active torsions:
REMARK  status: ('A' for Active; 'I' for Inactive)
REMARK    1  A    between atoms: C_2  and  C_3
REMARK    2  A    between atoms: C_3  and  C_4
REMARK    3  A    between atoms: C_26  and  C_27
REMARK    4  A    between atoms: C_27  and  C_29
REMARK                            x       y       z     vdW  Elec       q    Type
REMARK                         _______ _______ _______ _____ _____    ______ ____
ROOT
ATOM      1  C   UNL     1     -11.110  11.392  67.199  0.00  0.00    +0.235 C 
ATOM      2  O   UNL     1     -11.112  12.627  68.113  0.00  0.00    -0.326 OA
ATOM      3  C   UNL     1     -10.871  13.355  66.994  0.00  0.00    +0.173 C 
ATOM      4  C   UNL     1      -9.641  12.539  66.265  0.00  0.00    +0.149 C 
ATOM      5  C   UNL     1      -8.409  13.430  66.876  0.00  0.00    +0.033 C 
ATOM      6  C   UNL     1      -9.130  14.505  67.820  0.00  0.00    +0.005 C 
ATOM      7  C   UNL     1      -8.408  15.845  67.089  0.00  0.00    +0.004 C 
ATOM      8  C   UNL     1      -9.194  16.957  68.058  0.00  0.00    +0.038 C 
ATOM      9  C   UNL     1     -10.581  17.211  67.094  0.00  0.00    +0.153 C 
ATOM     10  C   UNL     1     -11.167  15.700  67.275  0.00  0.00    +0.036 C 
ATOM     11  O   UNL     1      -9.897  17.033  65.757  0.00  0.00    -0.223 OA
ATOM     12  C   UNL     1      -8.398  18.215  67.482  0.00  0.00    +0.036 C 
ATOM     13  C   UNL     1      -7.167  17.898  66.806  0.00  0.00    -0.038 C 
ATOM     14  C   UNL     1      -6.604  19.005  66.293  0.00  0.00    +0.034 C 
ATOM     15  C   UNL     1      -6.671  20.300  66.992  0.00  0.00    +0.195 C 
ATOM     16  C   UNL     1      -7.176  20.063  68.350  0.00  0.00    +0.038 C 
ATOM     17  O   UNL     1      -6.437  21.416  66.500  0.00  0.00    -0.287 OA
ATOM     18  C   UNL     1      -6.291  16.877  67.477  0.00  0.00    +0.022 C 
ATOM     19  C   UNL     1      -9.270  19.178  66.789  0.00  0.00    +0.009 C 
ATOM     20  C   UNL     1      -7.895  18.984  68.667  0.00  0.00    -0.020 C 
ATOM     21  C   UNL     1      -7.206  15.871  68.157  0.00  0.00    +0.004 C 
ATOM     22  C   UNL     1     -10.373  14.643  66.813  0.00  0.00    +0.034 C 
ATOM     23  C   UNL     1      -9.807  14.674  65.405  0.00  0.00    +0.003 C 
ATOM     24  O   UNL     1      -9.587  11.440  67.324  0.00  0.00    -0.330 OA
ENDROOT
BRANCH   3  25
ATOM     25  C   UNL     1     -12.027  13.217  66.016  0.00  0.00    +0.210 C 
ATOM     26  O   UNL     1     -12.878  14.111  66.092  0.00  0.00    -0.291 OA
BRANCH  25  27
ATOM     27  C   UNL     1     -11.675  13.112  64.548  0.00  0.00    +0.248 C 
ATOM     28  O   UNL     1     -12.626  13.415  63.683  0.00  0.00    -0.212 OA
ENDBRANCH  25  27
ENDBRANCH   3  25
BRANCH   1  29
ATOM     29  C   UNL     1     -11.312  10.323  68.456  0.00  0.00    +0.061 C 
BRANCH  29  31
ATOM     30  C   UNL     1     -12.426  10.648  70.696  0.00  0.00    +0.000 C 
ATOM     31  C   UNL     1     -11.710  11.313  69.549  0.00  0.00    +0.005 C 
ENDBRANCH  29  31
ENDBRANCH   1  29
TORSDOF 4
ENDMDL
MODEL 2
REMARK VINA RESULT:      -7.4      1.753      3.547
REMARK  Name = 
REMARK  4 active torsions:
REMARK  status: ('A' for Active; 'I' for Inactive)
REMARK    1  A    between atoms: C_2  and  C_3
REMARK    2  A    between atoms: C_3  and  C_4
REMARK    3  A    between atoms: C_26  and  C_27
REMARK    4  A    between atoms: C_27  and  C_29
REMARK                            x       y       z     vdW  Elec       q    Type
REMARK                         _______ _______ _______ _____ _____    ______ ____
ROOT
ATOM      1  C   UNL     1     -11.671  12.394  65.086  0.00  0.00    +0.235 C 
ATOM      2  O   UNL     1     -10.200  12.840  65.060  0.00  0.00    -0.326 OA
ATOM      3  C   UNL     1     -10.415  13.340  66.303  0.00  0.00    +0.173 C 
ATOM      4  C   UNL     1     -11.815  14.189  66.138  0.00  0.00    +0.149 C 
ATOM      5  C   UNL     1     -11.138  15.657  65.875  0.00  0.00    +0.033 C 
ATOM      6  C   UNL     1      -9.561  15.375  65.899  0.00  0.00    +0.005 C 
ATOM      7  C   UNL     1      -9.224  16.544  67.071  0.00  0.00    +0.004 C 
ATOM      8  C   UNL     1      -7.586  16.215  67.111  0.00  0.00    +0.038 C 
ATOM      9  C   UNL     1      -7.589  15.025  68.336  0.00  0.00    +0.153 C 
ATOM     10  C   UNL     1      -8.426  13.924  67.474  0.00  0.00    +0.036 C 
ATOM     11  O   UNL     1      -8.732  15.606  69.139  0.00  0.00    -0.223 OA
ATOM     12  C   UNL     1      -7.237  17.421  68.096  0.00  0.00    +0.036 C 
ATOM     13  C   UNL     1      -8.237  18.455  68.171  0.00  0.00    -0.038 C 
ATOM     14  C   UNL     1      -7.894  19.389  69.074  0.00  0.00    +0.034 C 
ATOM     15  C   UNL     1      -6.491  19.797  69.267  0.00  0.00    +0.195 C 
ATOM     16  C   UNL     1      -5.693  19.231  68.173  0.00  0.00    +0.038 C 
ATOM     17  O   UNL     1      -6.034  20.428  70.234  0.00  0.00    -0.287 OA
ATOM     18  C   UNL     1      -8.834  18.890  66.861  0.00  0.00    +0.022 C 
ATOM     19  C   UNL     1      -6.698  16.969  69.389  0.00  0.00    +0.009 C 
ATOM     20  C   UNL     1      -6.091  18.163  67.477  0.00  0.00    -0.020 C 
ATOM     21  C   UNL     1      -8.899  17.664  65.963  0.00  0.00    +0.004 C 
ATOM     22  C   UNL     1      -9.717  14.277  67.060  0.00  0.00    +0.034 C 
ATOM     23  C   UNL     1     -10.715  14.825  68.064  0.00  0.00    +0.003 C 
ATOM     24  O   UNL     1     -11.997  13.829  64.665  0.00  0.00    -0.330 OA
ENDROOT
BRANCH   3  25
ATOM     25  C   UNL     1     -10.781  12.221  67.266  0.00  0.00    +0.210 C 
ATOM     26  O   UNL     1     -11.993  11.989  67.352  0.00  0.00    -0.291 OA
BRANCH  25  27
ATOM     27  C   UNL     1     -10.123  10.878  67.038  0.00  0.00    +0.248 C 
ATOM     28  O   UNL     1     -10.829   9.806  67.350  0.00  0.00    -0.212 OA
ENDBRANCH  25  27
ENDBRANCH   3  25
BRANCH   1  29
ATOM     29  C   UNL     1     -11.636  11.805  63.532  0.00  0.00    +0.061 C 
BRANCH  29  31
ATOM     30  C   UNL     1      -9.670  10.362  62.887  0.00  0.00    +0.000 C 
ATOM     31  C   UNL     1     -10.123  11.726  63.342  0.00  0.00    +0.005 C 
ENDBRANCH  29  31
ENDBRANCH   1  29
TORSDOF 4
ENDMDL
MODEL 3
REMARK VINA RESULT:      -7.2      2.574      7.669
REMARK  Name = 
REMARK  4 active torsions:
REMARK  status: ('A' for Active; 'I' for Inactive)
REMARK    1  A    between atoms: C_2  and  C_3
REMARK    2  A    between atoms: C_3  and  C_4
REMARK    3  A    between atoms: C_26  and  C_27
REMARK    4  A    between atoms: C_27  and  C_29
REMARK                            x       y       z     vdW  Elec       q    Type
REMARK                         _______ _______ _______ _____ _____    ______ ____
ROOT
ATOM      1  C   UNL     1     -11.186  15.951  67.999  0.00  0.00    +0.235 C 
ATOM      2  O   UNL     1      -9.925  15.076  67.902  0.00  0.00    -0.326 OA
ATOM      3  C   UNL     1     -10.666  14.238  67.133  0.00  0.00    +0.173 C 
ATOM      4  C   UNL     1     -12.056  14.056  67.994  0.00  0.00    +0.149 C 
ATOM      5  C   UNL     1     -11.644  12.671  68.767  0.00  0.00    +0.033 C 
ATOM      6  C   UNL     1     -10.157  12.362  68.255  0.00  0.00    +0.005 C 
ATOM      7  C   UNL     1     -10.504  10.791  67.743  0.00  0.00    +0.004 C 
ATOM      8  C   UNL     1      -8.958  10.496  67.182  0.00  0.00    +0.038 C 
ATOM      9  C   UNL     1      -9.155  11.037  65.573  0.00  0.00    +0.153 C 
ATOM     10  C   UNL     1      -9.388  12.601  65.969  0.00  0.00    +0.036 C 
ATOM     11  O   UNL     1     -10.602  10.619  65.427  0.00  0.00    -0.223 OA
ATOM     12  C   UNL     1      -9.236   8.961  66.842  0.00  0.00    +0.036 C 
ATOM     13  C   UNL     1     -10.385   8.392  67.498  0.00  0.00    -0.038 C 
ATOM     14  C   UNL     1     -10.583   7.123  67.099  0.00  0.00    +0.034 C 
ATOM     15  C   UNL     1      -9.456   6.218  66.813  0.00  0.00    +0.195 C 
ATOM     16  C   UNL     1      -8.223   6.856  67.293  0.00  0.00    +0.038 C 
ATOM     17  O   UNL     1      -9.512   5.146  66.191  0.00  0.00    -0.287 OA
ATOM     18  C   UNL     1     -10.550   8.734  68.952  0.00  0.00    +0.022 C 
ATOM     19  C   UNL     1      -9.113   8.659  65.406  0.00  0.00    +0.009 C 
ATOM     20  C   UNL     1      -8.121   8.175  67.464  0.00  0.00    -0.020 C 
ATOM     21  C   UNL     1     -10.041  10.154  69.145  0.00  0.00    +0.004 C 
ATOM     22  C   UNL     1     -10.489  12.902  66.780  0.00  0.00    +0.034 C 
ATOM     23  C   UNL     1     -11.869  12.385  66.415  0.00  0.00    +0.003 C 
ATOM     24  O   UNL     1     -11.623  15.000  69.114  0.00  0.00    -0.330 OA
ENDROOT
BRANCH   3  25
ATOM     25  C   UNL     1     -11.116  14.945  65.864  0.00  0.00    +0.210 C 
ATOM     26  O   UNL     1     -10.239  15.061  65.000  0.00  0.00    -0.291 OA
BRANCH  25  27
ATOM     27  C   UNL     1     -12.321  14.373  65.151  0.00  0.00    +0.248 C 
ATOM     28  O   UNL     1     -12.556  14.815  63.929  0.00  0.00    -0.212 OA
ENDBRANCH  25  27
ENDBRANCH   3  25
BRANCH   1  29
ATOM     29  C   UNL     1     -10.480  17.048  69.029  0.00  0.00    +0.061 C 
BRANCH  29  31
ATOM     30  C   UNL     1     -10.565  18.822  67.238  0.00  0.00    +0.000 C 
ATOM     31  C   UNL     1      -9.692  17.863  68.006  0.00  0.00    +0.005 C 
ENDBRANCH  29  31
ENDBRANCH   1  29
TORSDOF 4
ENDMDL
MODEL 4
REMARK VINA RESULT:      -7.2      1.793      3.595
REMARK  Name = 
REMARK  4 active torsions:
REMARK  status: ('A' for Active; 'I' for Inactive)
REMARK    1  A    between atoms: C_2  and  C_3
REMARK    2  A    between atoms: C_3  and  C_4
REMARK    3  A    between atoms: C_26  and  C_27
REMARK    4  A    between atoms: C_27  and  C_29
REMARK                            x       y       z     vdW  Elec       q    Type
REMARK                         _______ _______ _______ _____ _____    ______ ____
ROOT
ATOM      1  C   UNL     1     -11.606  13.048  66.580  0.00  0.00    +0.235 C 
ATOM      2  O   UNL     1     -10.427  13.769  65.908  0.00  0.00    -0.326 OA
ATOM      3  C   UNL     1      -9.980  14.032  67.162  0.00  0.00    +0.173 C 
ATOM      4  C   UNL     1     -11.315  14.609  67.931  0.00  0.00    +0.149 C 
ATOM      5  C   UNL     1     -11.017  16.203  67.699  0.00  0.00    +0.033 C 
ATOM      6  C   UNL     1      -9.658  16.231  66.851  0.00  0.00    +0.005 C 
ATOM      7  C   UNL     1      -8.846  17.261  67.915  0.00  0.00    +0.004 C 
ATOM      8  C   UNL     1      -7.423  17.252  67.038  0.00  0.00    +0.038 C 
ATOM      9  C   UNL     1      -6.662  15.919  67.787  0.00  0.00    +0.153 C 
ATOM     10  C   UNL     1      -7.733  14.814  67.250  0.00  0.00    +0.036 C 
ATOM     11  O   UNL     1      -7.237  16.145  69.167  0.00  0.00    -0.223 OA
ATOM     12  C   UNL     1      -6.704  18.347  67.949  0.00  0.00    +0.036 C 
ATOM     13  C   UNL     1      -7.591  19.146  68.755  0.00  0.00    -0.038 C 
ATOM     14  C   UNL     1      -6.898  19.988  69.541  0.00  0.00    +0.034 C 
ATOM     15  C   UNL     1      -5.654  20.627  69.077  0.00  0.00    +0.195 C 
ATOM     16  C   UNL     1      -5.526  20.391  67.634  0.00  0.00    +0.038 C 
ATOM     17  O   UNL     1      -4.804  21.188  69.789  0.00  0.00    -0.287 OA
ATOM     18  C   UNL     1      -8.835  19.642  68.072  0.00  0.00    +0.022 C 
ATOM     19  C   UNL     1      -5.516  17.826  68.645  0.00  0.00    +0.009 C 
ATOM     20  C   UNL     1      -6.142  19.379  67.018  0.00  0.00    -0.020 C 
ATOM     21  C   UNL     1      -9.267  18.571  67.083  0.00  0.00    +0.004 C 
ATOM     22  C   UNL     1      -9.068  14.967  67.646  0.00  0.00    +0.034 C 
ATOM     23  C   UNL     1      -9.411  15.160  69.112  0.00  0.00    +0.003 C 
ATOM     24  O   UNL     1     -12.230  14.438  66.721  0.00  0.00    -0.330 OA
ENDROOT
BRANCH   3  25
ATOM     25  C   UNL     1      -9.671  12.735  67.895  0.00  0.00    +0.210 C 
ATOM     26  O   UNL     1     -10.567  12.343  68.651  0.00  0.00    -0.291 OA
BRANCH  25  27
ATOM     27  C   UNL     1      -9.299  11.540  67.045  0.00  0.00    +0.248 C 
ATOM     28  O   UNL     1      -8.046  11.467  66.634  0.00  0.00    -0.212 OA
ENDBRANCH  25  27
ENDBRANCH   3  25
BRANCH   1  29
ATOM     29  C   UNL     1     -12.364  12.709  65.139  0.00  0.00    +0.061 C 
BRANCH  29  31
ATOM     30  C   UNL     1     -10.928  11.437  63.500  0.00  0.00    +0.000 C 
ATOM     31  C   UNL     1     -11.147  12.745  64.217  0.00  0.00    +0.005 C 
ENDBRANCH  29  31
ENDBRANCH   1  29
TORSDOF 4
ENDMDL
MODEL 5
REMARK VINA RESULT:      -7.1      1.818      7.187
REMARK  Name = 
REMARK  4 active torsions:
REMARK  status: ('A' for Active; 'I' for Inactive)
REMARK    1  A    between atoms: C_2  and  C_3
REMARK    2  A    between atoms: C_3  and  C_4
REMARK    3  A    between atoms: C_26  and  C_27
REMARK    4  A    between atoms: C_27  and  C_29
REMARK                            x       y       z     vdW  Elec       q    Type
REMARK                         _______ _______ _______ _____ _____    ______ ____
ROOT
ATOM      1  C   UNL     1      -8.093  19.722  67.438  0.00  0.00    +0.235 C 
ATOM      2  O   UNL     1      -8.192  18.630  66.360  0.00  0.00    -0.326 OA
ATOM      3  C   UNL     1      -9.110  18.036  67.165  0.00  0.00    +0.173 C 
ATOM      4  C   UNL     1      -8.387  18.047  68.643  0.00  0.00    +0.149 C 
ATOM      5  C   UNL     1      -7.753  16.537  68.576  0.00  0.00    +0.033 C 
ATOM      6  C   UNL     1      -8.179  15.994  67.130  0.00  0.00    +0.005 C 
ATOM      7  C   UNL     1      -8.898  14.581  67.714  0.00  0.00    +0.004 C 
ATOM      8  C   UNL     1      -9.367  14.044  66.202  0.00  0.00    +0.038 C 
ATOM      9  C   UNL     1     -10.911  14.771  66.133  0.00  0.00    +0.153 C 
ATOM     10  C   UNL     1     -10.354  16.303  66.107  0.00  0.00    +0.036 C 
ATOM     11  O   UNL     1     -11.218  14.664  67.610  0.00  0.00    -0.223 OA
ATOM     12  C   UNL     1      -9.904  12.637  66.727  0.00  0.00    +0.036 C 
ATOM     13  C   UNL     1      -9.413  12.242  68.022  0.00  0.00    -0.038 C 
ATOM     14  C   UNL     1      -9.971  11.084  68.414  0.00  0.00    +0.034 C 
ATOM     15  C   UNL     1     -10.272  10.008  67.454  0.00  0.00    +0.195 C 
ATOM     16  C   UNL     1      -9.626  10.338  66.177  0.00  0.00    +0.038 C 
ATOM     17  O   UNL     1     -11.019   9.035  67.648  0.00  0.00    -0.287 OA
ATOM     18  C   UNL     1      -7.946  12.463  68.265  0.00  0.00    +0.022 C 
ATOM     19  C   UNL     1     -11.352  12.461  66.521  0.00  0.00    +0.009 C 
ATOM     20  C   UNL     1      -9.294  11.588  65.847  0.00  0.00    -0.020 C 
ATOM     21  C   UNL     1      -7.549  13.728  67.519  0.00  0.00    +0.004 C 
ATOM     22  C   UNL     1      -9.602  16.734  67.207  0.00  0.00    +0.034 C 
ATOM     23  C   UNL     1     -10.133  16.538  68.616  0.00  0.00    +0.003 C 
ATOM     24  O   UNL     1      -7.134  18.770  68.155  0.00  0.00    -0.330 OA
ENDROOT
BRANCH   3  25
ATOM     25  C   UNL     1     -10.319  18.941  67.345  0.00  0.00    +0.210 C 
ATOM     26  O   UNL     1     -10.328  19.586  68.400  0.00  0.00    -0.291 OA
BRANCH  25  27
ATOM     27  C   UNL     1     -10.591  19.946  66.248  0.00  0.00    +0.248 C 
ATOM     28  O   UNL     1     -11.036  19.469  65.099  0.00  0.00    -0.212 OA
ENDBRANCH  25  27
ENDBRANCH   3  25
BRANCH   1  29
ATOM     29  C   UNL     1      -6.888  20.550  66.645  0.00  0.00    +0.061 C 
BRANCH  29  31
ATOM     30  C   UNL     1      -6.170  20.488  64.227  0.00  0.00    +0.000 C 
ATOM     31  C   UNL     1      -6.872  19.754  65.341  0.00  0.00    +0.005 C 
ENDBRANCH  29  31
ENDBRANCH   1  29
TORSDOF 4
ENDMDL
MODEL 6
REMARK VINA RESULT:      -7.1      3.524      6.233
REMARK  Name = 
REMARK  4 active torsions:
REMARK  status: ('A' for Active; 'I' for Inactive)
REMARK    1  A    between atoms: C_2  and  C_3
REMARK    2  A    between atoms: C_3  and  C_4
REMARK    3  A    between atoms: C_26  and  C_27
REMARK    4  A    between atoms: C_27  and  C_29
REMARK                            x       y       z     vdW  Elec       q    Type
REMARK                         _______ _______ _______ _____ _____    ______ ____
ROOT
ATOM      1  C   UNL     1      -9.417   6.833  69.564  0.00  0.00    +0.235 C 
ATOM      2  O   UNL     1     -10.464   7.324  68.552  0.00  0.00    -0.326 OA
ATOM      3  C   UNL     1      -9.520   8.200  68.124  0.00  0.00    +0.173 C 
ATOM      4  C   UNL     1      -8.955   8.866  69.518  0.00  0.00    +0.149 C 
ATOM      5  C   UNL     1      -9.912  10.196  69.517  0.00  0.00    +0.033 C 
ATOM      6  C   UNL     1     -10.822  10.025  68.209  0.00  0.00    +0.005 C 
ATOM      7  C   UNL     1     -10.431  11.536  67.563  0.00  0.00    +0.004 C 
ATOM      8  C   UNL     1     -11.357  11.330  66.188  0.00  0.00    +0.038 C 
ATOM      9  C   UNL     1     -10.173  10.622  65.179  0.00  0.00    +0.153 C 
ATOM     10  C   UNL     1     -10.036   9.251  66.051  0.00  0.00    +0.036 C 
ATOM     11  O   UNL     1      -8.991  11.375  65.747  0.00  0.00    -0.223 OA
ATOM     12  C   UNL     1     -11.121  12.814  65.650  0.00  0.00    +0.036 C 
ATOM     13  C   UNL     1     -10.671  13.756  66.643  0.00  0.00    -0.038 C 
ATOM     14  C   UNL     1     -10.430  14.957  66.088  0.00  0.00    +0.034 C 
ATOM     15  C   UNL     1     -11.262  15.482  64.992  0.00  0.00    +0.195 C 
ATOM     16  C   UNL     1     -12.448  14.626  64.865  0.00  0.00    +0.038 C 
ATOM     17  O   UNL     1     -10.976  16.425  64.237  0.00  0.00    -0.287 OA
ATOM     18  C   UNL     1     -11.368  13.693  67.973  0.00  0.00    +0.022 C 
ATOM     19  C   UNL     1     -10.396  12.853  64.369  0.00  0.00    +0.009 C 
ATOM     20  C   UNL     1     -12.471  13.367  65.308  0.00  0.00    -0.020 C 
ATOM     21  C   UNL     1     -11.714  12.236  68.235  0.00  0.00    +0.004 C 
ATOM     22  C   UNL     1      -9.611   9.374  67.380  0.00  0.00    +0.034 C 
ATOM     23  C   UNL     1      -8.363  10.171  67.710  0.00  0.00    +0.003 C 
ATOM     24  O   UNL     1      -9.853   8.023  70.422  0.00  0.00    -0.330 OA
ENDROOT
BRANCH   3  25
ATOM     25  C   UNL     1      -8.319   7.450  67.568  0.00  0.00    +0.210 C 
ATOM     26  O   UNL     1      -7.404   7.267  68.379  0.00  0.00    -0.291 OA
BRANCH  25  27
ATOM     27  C   UNL     1      -8.585   6.100  66.939  0.00  0.00    +0.248 C 
ATOM     28  O   UNL     1      -8.606   6.051  65.619  0.00  0.00    -0.212 OA
ENDBRANCH  25  27
ENDBRANCH   3  25
BRANCH   1  29
ATOM     29  C   UNL     1     -10.460   5.760  70.289  0.00  0.00    +0.061 C 
BRANCH  29  31
ATOM     30  C   UNL     1     -12.424   6.543  71.665  0.00  0.00    +0.000 C 
ATOM     31  C   UNL     1     -11.707   6.639  70.342  0.00  0.00    +0.005 C 
ENDBRANCH  29  31
ENDBRANCH   1  29
TORSDOF 4
ENDMDL
MODEL 7
REMARK VINA RESULT:      -7.0      2.158      7.543
REMARK  Name = 
REMARK  4 active torsions:
REMARK  status: ('A' for Active; 'I' for Inactive)
REMARK    1  A    between atoms: C_2  and  C_3
REMARK    2  A    between atoms: C_3  and  C_4
REMARK    3  A    between atoms: C_26  and  C_27
REMARK    4  A    between atoms: C_27  and  C_29
REMARK                            x       y       z     vdW  Elec       q    Type
REMARK                         _______ _______ _______ _____ _____    ______ ____
ROOT
ATOM      1  C   UNL     1     -10.148  17.166  67.673  0.00  0.00    +0.235 C 
ATOM      2  O   UNL     1      -9.278  16.122  68.391  0.00  0.00    -0.326 OA
ATOM      3  C   UNL     1      -9.478  15.331  67.307  0.00  0.00    +0.173 C 
ATOM      4  C   UNL     1     -11.104  15.416  67.066  0.00  0.00    +0.149 C 
ATOM      5  C   UNL     1     -11.509  14.059  67.890  0.00  0.00    +0.033 C 
ATOM      6  C   UNL     1     -10.113  13.506  68.450  0.00  0.00    +0.005 C 
ATOM      7  C   UNL     1     -10.299  11.960  67.798  0.00  0.00    +0.004 C 
ATOM      8  C   UNL     1      -8.824  11.408  68.358  0.00  0.00    +0.038 C 
ATOM      9  C   UNL     1      -7.858  11.830  67.014  0.00  0.00    +0.153 C 
ATOM     10  C   UNL     1      -8.036  13.439  67.203  0.00  0.00    +0.036 C 
ATOM     11  O   UNL     1      -8.920  11.604  65.961  0.00  0.00    -0.223 OA
ATOM     12  C   UNL     1      -9.062   9.902  67.885  0.00  0.00    +0.036 C 
ATOM     13  C   UNL     1     -10.437   9.554  67.633  0.00  0.00    -0.038 C 
ATOM     14  C   UNL     1     -10.535   8.295  67.171  0.00  0.00    +0.034 C 
ATOM     15  C   UNL     1      -9.649   7.223  67.658  0.00  0.00    +0.195 C 
ATOM     16  C   UNL     1      -8.926   7.724  68.833  0.00  0.00    +0.038 C 
ATOM     17  O   UNL     1      -9.466   6.119  67.121  0.00  0.00    -0.287 OA
ATOM     18  C   UNL     1     -11.436  10.040  68.646  0.00  0.00    +0.022 C 
ATOM     19  C   UNL     1      -8.101   9.464  66.859  0.00  0.00    +0.009 C 
ATOM     20  C   UNL     1      -8.747   9.027  69.060  0.00  0.00    -0.020 C 
ATOM     21  C   UNL     1     -10.948  11.388  69.154  0.00  0.00    +0.004 C 
ATOM     22  C   UNL     1      -9.334  13.958  67.120  0.00  0.00    +0.034 C 
ATOM     23  C   UNL     1     -10.221  13.605  65.940  0.00  0.00    +0.003 C 
ATOM     24  O   UNL     1     -11.342  16.384  68.222  0.00  0.00    -0.330 OA
ENDROOT
BRANCH   3  25
ATOM     25  C   UNL     1      -8.892  15.981  66.063  0.00  0.00    +0.210 C 
ATOM     26  O   UNL     1      -9.691  16.666  65.414  0.00  0.00    -0.291 OA
BRANCH  25  27
ATOM     27  C   UNL     1      -7.670  16.851  66.256  0.00  0.00    +0.248 C 
ATOM     28  O   UNL     1      -7.586  17.936  65.509  0.00  0.00    -0.212 OA
ENDBRANCH  25  27
ENDBRANCH   3  25
BRANCH   1  29
ATOM     29  C   UNL     1     -10.099  18.241  68.941  0.00  0.00    +0.061 C 
BRANCH  29  31
ATOM     30  C   UNL     1     -10.517  19.654  66.893  0.00  0.00    +0.000 C 
ATOM     31  C   UNL     1      -9.726  19.504  68.168  0.00  0.00    +0.005 C 
ENDBRANCH  29  31
ENDBRANCH   1  29
TORSDOF 4
ENDMDL
MODEL 8
REMARK VINA RESULT:      -7.0      3.109      8.709
REMARK  Name = 
REMARK  4 active torsions:
REMARK  status: ('A' for Active; 'I' for Inactive)
REMARK    1  A    between atoms: C_2  and  C_3
REMARK    2  A    between atoms: C_3  and  C_4
REMARK    3  A    between atoms: C_26  and  C_27
REMARK    4  A    between atoms: C_27  and  C_29
REMARK                            x       y       z     vdW  Elec       q    Type
REMARK                         _______ _______ _______ _____ _____    ______ ____
ROOT
ATOM      1  C   UNL     1     -10.024  13.402  66.117  0.00  0.00    +0.235 C 
ATOM      2  O   UNL     1      -9.314  12.964  67.409  0.00  0.00    -0.326 OA
ATOM      3  C   UNL     1      -9.719  11.704  67.107  0.00  0.00    +0.173 C 
ATOM      4  C   UNL     1     -11.313  11.890  66.748  0.00  0.00    +0.149 C 
ATOM      5  C   UNL     1     -11.905  11.517  68.230  0.00  0.00    +0.033 C 
ATOM      6  C   UNL     1     -10.600  11.242  69.118  0.00  0.00    +0.005 C 
ATOM      7  C   UNL     1     -11.100   9.715  69.639  0.00  0.00    +0.004 C 
ATOM      8  C   UNL     1      -9.717   9.427  70.533  0.00  0.00    +0.038 C 
ATOM      9  C   UNL     1      -8.774   8.677  69.322  0.00  0.00    +0.153 C 
ATOM     10  C   UNL     1      -8.648  10.006  68.386  0.00  0.00    +0.036 C 
ATOM     11  O   UNL     1      -9.921   8.000  68.605  0.00  0.00    -0.223 OA
ATOM     12  C   UNL     1     -10.250   8.058  71.156  0.00  0.00    +0.036 C 
ATOM     13  C   UNL     1     -11.677   7.877  71.095  0.00  0.00    -0.038 C 
ATOM     14  C   UNL     1     -12.028   6.671  71.574  0.00  0.00    +0.034 C 
ATOM     15  C   UNL     1     -11.321   6.057  72.712  0.00  0.00    +0.195 C 
ATOM     16  C   UNL     1     -10.450   7.074  73.313  0.00  0.00    +0.038 C 
ATOM     17  O   UNL     1     -11.372   4.865  73.054  0.00  0.00    -0.287 OA
ATOM     18  C   UNL     1     -12.510   9.075  71.455  0.00  0.00    +0.022 C 
ATOM     19  C   UNL     1      -9.447   6.892  70.751  0.00  0.00    +0.009 C 
ATOM     20  C   UNL     1     -10.026   8.143  72.635  0.00  0.00    -0.020 C 
ATOM     21  C   UNL     1     -11.757  10.309  70.981  0.00  0.00    +0.004 C 
ATOM     22  C   UNL     1      -9.835  10.555  67.885  0.00  0.00    +0.034 C 
ATOM     23  C   UNL     1     -10.841   9.671  67.170  0.00  0.00    +0.003 C 
ATOM     24  O   UNL     1     -11.304  13.403  66.955  0.00  0.00    -0.330 OA
ENDROOT
BRANCH   3  25
ATOM     25  C   UNL     1      -9.102  11.253  65.792  0.00  0.00    +0.210 C 
ATOM     26  O   UNL     1      -7.981  10.742  65.896  0.00  0.00    -0.291 OA
BRANCH  25  27
ATOM     27  C   UNL     1      -9.912  10.294  64.948  0.00  0.00    +0.248 C 
ATOM     28  O   UNL     1     -10.098  10.623  63.683  0.00  0.00    -0.212 OA
ENDBRANCH  25  27
ENDBRANCH   3  25
BRANCH   1  29
ATOM     29  C   UNL     1      -9.706  15.016  66.358  0.00  0.00    +0.061 C 
BRANCH  29  31
ATOM     30  C   UNL     1     -10.695  16.659  67.997  0.00  0.00    +0.000 C 
ATOM     31  C   UNL     1     -10.890  15.359  67.261  0.00  0.00    +0.005 C 
ENDBRANCH  29  31
ENDBRANCH   1  29
TORSDOF 4
ENDMDL
MODEL 9
REMARK VINA RESULT:      -7.0      4.099      9.143
REMARK  Name = 
REMARK  4 active torsions:
REMARK  status: ('A' for Active; 'I' for Inactive)
REMARK    1  A    between atoms: C_2  and  C_3
REMARK    2  A    between atoms: C_3  and  C_4
REMARK    3  A    between atoms: C_26  and  C_27
REMARK    4  A    between atoms: C_27  and  C_29
REMARK                            x       y       z     vdW  Elec       q    Type
REMARK                         _______ _______ _______ _____ _____    ______ ____
ROOT
ATOM      1  C   UNL     1     -11.178  12.409  66.245  0.00  0.00    +0.235 C 
ATOM      2  O   UNL     1     -12.049  11.548  67.174  0.00  0.00    -0.326 OA
ATOM      3  C   UNL     1     -10.957  11.453  67.974  0.00  0.00    +0.173 C 
ATOM      4  C   UNL     1      -9.750  11.053  66.930  0.00  0.00    +0.149 C 
ATOM      5  C   UNL     1      -9.813   9.431  67.150  0.00  0.00    +0.033 C 
ATOM      6  C   UNL     1     -11.009   9.221  68.196  0.00  0.00    +0.005 C 
ATOM      7  C   UNL     1     -10.087   8.325  69.292  0.00  0.00    +0.004 C 
ATOM      8  C   UNL     1     -11.334   8.145  70.389  0.00  0.00    +0.038 C 
ATOM      9  C   UNL     1     -11.055   9.540  71.334  0.00  0.00    +0.153 C 
ATOM     10  C   UNL     1     -11.416  10.598  70.148  0.00  0.00    +0.036 C 
ATOM     11  O   UNL     1      -9.549   9.544  71.196  0.00  0.00    -0.223 OA
ATOM     12  C   UNL     1     -10.518   7.166  71.350  0.00  0.00    +0.036 C 
ATOM     13  C   UNL     1      -9.375   6.533  70.745  0.00  0.00    -0.038 C 
ATOM     14  C   UNL     1      -8.709   5.787  71.644  0.00  0.00    +0.034 C 
ATOM     15  C   UNL     1      -9.414   5.035  72.696  0.00  0.00    +0.195 C 
ATOM     16  C   UNL     1     -10.850   5.051  72.388  0.00  0.00    +0.038 C 
ATOM     17  O   UNL     1      -8.907   4.549  73.721  0.00  0.00    -0.287 OA
ATOM     18  C   UNL     1      -9.578   5.994  69.357  0.00  0.00    +0.022 C 
ATOM     19  C   UNL     1     -10.291   7.734  72.690  0.00  0.00    +0.009 C 
ATOM     20  C   UNL     1     -11.404   5.986  71.614  0.00  0.00    -0.020 C 
ATOM     21  C   UNL     1     -10.548   6.926  68.646  0.00  0.00    +0.004 C 
ATOM     22  C   UNL     1     -10.626  10.562  68.992  0.00  0.00    +0.034 C 
ATOM     23  C   UNL     1      -9.113  10.601  69.101  0.00  0.00    +0.003 C 
ATOM     24  O   UNL     1     -10.650  11.082  65.696  0.00  0.00    -0.330 OA
ENDROOT
BRANCH   3  25
ATOM     25  C   UNL     1     -10.555  12.829  68.482  0.00  0.00    +0.210 C 
ATOM     26  O   UNL     1      -9.664  13.382  67.827  0.00  0.00    -0.291 OA
BRANCH  25  27
ATOM     27  C   UNL     1     -11.657  13.856  68.624  0.00  0.00    +0.248 C 
ATOM     28  O   UNL     1     -12.360  13.827  69.741  0.00  0.00    -0.212 OA
ENDBRANCH  25  27
ENDBRANCH   3  25
BRANCH   1  29
ATOM     29  C   UNL     1     -12.367  12.565  65.092  0.00  0.00    +0.061 C 
BRANCH  29  31
ATOM     30  C   UNL     1     -11.086  14.736  64.995  0.00  0.00    +0.000 C 
ATOM     31  C   UNL     1     -12.447  14.089  65.038  0.00  0.00    +0.005 C 
ENDBRANCH  29  31
ENDBRANCH   1  29
TORSDOF 4
ENDMDL
