MODEL 1
REMARK VINA RESULT:      -4.7      0.000      0.000
REMARK  Name = 
REMARK  5 active torsions:
REMARK  status: ('A' for Active; 'I' for Inactive)
REMARK    1  A    between atoms: C_2  and  C_3
REMARK    2  A    between atoms: C_3  and  C_4
REMARK    3  A    between atoms: C_4  and  C_5
REMARK    4  A    between atoms: C_5  and  C_7
REMARK    5  A    between atoms: C_5  and  C_10
REMARK                            x       y       z     vdW  Elec       q    Type
REMARK                         _______ _______ _______ _____ _____    ______ ____
ROOT
ATOM      1  C   UNL     1     -11.632  14.438  64.942  0.00  0.00    +0.231 C 
ATOM      2  N   UNL     1     -12.595  14.468  63.872  0.00  0.00    -0.117 NA
ENDROOT
BRANCH   1   3
ATOM      3  C   UNL     1     -12.288  14.054  66.233  0.00  0.00    +0.345 C 
ATOM      4  F   UNL     1     -12.071  12.760  66.613  0.00  0.00    -0.196 F 
ATOM      5  F   UNL     1     -11.853  14.947  67.207  0.00  0.00    -0.196 F 
ENDBRANCH   1   3
BRANCH   1   6
ATOM      6  C   UNL     1     -10.963  15.759  64.994  0.00  0.00    +0.385 C 
ATOM      7  O   UNL     1      -9.608  15.854  65.325  0.00  0.00    -0.244 OA
ATOM      8  O   UNL     1     -11.388  16.627  64.173  0.00  0.00    -0.244 OA
ENDBRANCH   1   6
BRANCH   1   9
ATOM      9  C   UNL     1     -10.586  13.391  64.614  0.00  0.00    +0.036 C 
BRANCH   9  10
ATOM     10  C   UNL     1     -11.167  12.491  63.557  0.00  0.00    +0.023 C 
BRANCH  10  12
ATOM     11  N   UNL     1     -10.298  10.556  64.787  0.00  0.00    -0.131 NA
ATOM     12  C   UNL     1     -10.454  11.162  63.483  0.00  0.00    +0.109 C 
ENDBRANCH  10  12
ENDBRANCH   9  10
ENDBRANCH   1   9
TORSDOF 5
ENDMDL
MODEL 2
REMARK VINA RESULT:      -4.6      3.111      4.162
REMARK  Name = 
REMARK  5 active torsions:
REMARK  status: ('A' for Active; 'I' for Inactive)
REMARK    1  A    between atoms: C_2  and  C_3
REMARK    2  A    between atoms: C_3  and  C_4
REMARK    3  A    between atoms: C_4  and  C_5
REMARK    4  A    between atoms: C_5  and  C_7
REMARK    5  A    between atoms: C_5  and  C_10
REMARK                            x       y       z     vdW  Elec       q    Type
REMARK                         _______ _______ _______ _____ _____    ______ ____
ROOT
ATOM      1  C   UNL     1     -11.596  12.711  64.843  0.00  0.00    +0.231 C 
ATOM      2  N   UNL     1     -12.879  13.291  65.137  0.00  0.00    -0.117 NA
ENDROOT
BRANCH   1   3
ATOM      3  C   UNL     1     -11.616  12.028  63.510  0.00  0.00    +0.345 C 
ATOM      4  F   UNL     1     -10.896  10.868  63.460  0.00  0.00    -0.196 F 
ATOM      5  F   UNL     1     -12.947  11.812  63.169  0.00  0.00    -0.196 F 
ENDBRANCH   1   3
BRANCH   1   6
ATOM      6  C   UNL     1     -11.234  11.807  65.960  0.00  0.00    +0.385 C 
ATOM      7  O   UNL     1      -9.894  11.606  66.305  0.00  0.00    -0.244 OA
ATOM      8  O   UNL     1     -12.060  11.758  66.922  0.00  0.00    -0.244 OA
ENDBRANCH   1   6
BRANCH   1   9
ATOM      9  C   UNL     1     -10.569  13.825  64.787  0.00  0.00    +0.036 C 
BRANCH   9  10
ATOM     10  C   UNL     1     -10.984  14.869  65.788  0.00  0.00    +0.023 C 
BRANCH  10  12
ATOM     11  N   UNL     1     -11.336  16.746  64.249  0.00  0.00    -0.131 NA
ATOM     12  C   UNL     1     -10.564  16.259  65.373  0.00  0.00    +0.109 C 
ENDBRANCH  10  12
ENDBRANCH   9  10
ENDBRANCH   1   9
TORSDOF 5
ENDMDL
MODEL 3
REMARK VINA RESULT:      -4.5      2.187      2.732
REMARK  Name = 
REMARK  5 active torsions:
REMARK  status: ('A' for Active; 'I' for Inactive)
REMARK    1  A    between atoms: C_2  and  C_3
REMARK    2  A    between atoms: C_3  and  C_4
REMARK    3  A    between atoms: C_4  and  C_5
REMARK    4  A    between atoms: C_5  and  C_7
REMARK    5  A    between atoms: C_5  and  C_10
REMARK                            x       y       z     vdW  Elec       q    Type
REMARK                         _______ _______ _______ _____ _____    ______ ____
ROOT
ATOM      1  C   UNL     1     -11.152  14.856  65.528  0.00  0.00    +0.231 C 
ATOM      2  N   UNL     1     -10.016  13.997  65.319  0.00  0.00    -0.117 NA
ENDROOT
BRANCH   1   3
ATOM      3  C   UNL     1     -12.304  14.427  64.672  0.00  0.00    +0.345 C 
ATOM      4  F   UNL     1     -12.007  13.435  63.782  0.00  0.00    -0.196 F 
ATOM      5  F   UNL     1     -13.341  14.052  65.520  0.00  0.00    -0.196 F 
ENDBRANCH   1   3
BRANCH   1   6
ATOM      6  C   UNL     1     -10.723  16.252  65.279  0.00  0.00    +0.385 C 
ATOM      7  O   UNL     1      -9.423  16.661  65.591  0.00  0.00    -0.244 OA
ATOM      8  O   UNL     1     -11.251  16.822  64.277  0.00  0.00    -0.244 OA
ENDBRANCH   1   6
BRANCH   1   9
ATOM      9  C   UNL     1     -11.575  14.744  66.979  0.00  0.00    +0.036 C 
BRANCH   9  10
ATOM     10  C   UNL     1     -10.745  13.657  67.607  0.00  0.00    +0.023 C 
BRANCH  10  12
ATOM     11  N   UNL     1     -11.919  11.533  67.262  0.00  0.00    -0.131 NA
ATOM     12  C   UNL     1     -11.594  12.569  68.218  0.00  0.00    +0.109 C 
ENDBRANCH  10  12
ENDBRANCH   9  10
ENDBRANCH   1   9
TORSDOF 5
ENDMDL
MODEL 4
REMARK VINA RESULT:      -4.5      2.539      3.928
REMARK  Name = 
REMARK  5 active torsions:
REMARK  status: ('A' for Active; 'I' for Inactive)
REMARK    1  A    between atoms: C_2  and  C_3
REMARK    2  A    between atoms: C_3  and  C_4
REMARK    3  A    between atoms: C_4  and  C_5
REMARK    4  A    between atoms: C_5  and  C_7
REMARK    5  A    between atoms: C_5  and  C_10
REMARK                            x       y       z     vdW  Elec       q    Type
REMARK                         _______ _______ _______ _____ _____    ______ ____
ROOT
ATOM      1  C   UNL     1     -11.105  12.645  65.204  0.00  0.00    +0.231 C 
ATOM      2  N   UNL     1     -10.379  12.776  63.969  0.00  0.00    -0.117 NA
ENDROOT
BRANCH   1   3
ATOM      3  C   UNL     1     -10.728  11.378  65.909  0.00  0.00    +0.345 C 
ATOM      4  F   UNL     1     -11.576  11.020  66.918  0.00  0.00    -0.196 F 
ATOM      5  F   UNL     1     -10.633  10.376  64.950  0.00  0.00    -0.196 F 
ENDBRANCH   1   3
BRANCH   1   6
ATOM      6  C   UNL     1     -12.552  12.738  64.898  0.00  0.00    +0.385 C 
ATOM      7  O   UNL     1     -13.290  13.858  65.295  0.00  0.00    -0.244 OA
ATOM      8  O   UNL     1     -12.924  12.192  63.817  0.00  0.00    -0.244 OA
ENDBRANCH   1   6
BRANCH   1   9
ATOM      9  C   UNL     1     -10.737  13.811  66.101  0.00  0.00    +0.036 C 
BRANCH   9  10
ATOM     10  C   UNL     1     -10.050  14.838  65.242  0.00  0.00    +0.023 C 
BRANCH  10  12
ATOM     11  N   UNL     1     -11.224  16.800  64.355  0.00  0.00    -0.131 NA
ATOM     12  C   UNL     1     -10.555  16.236  65.508  0.00  0.00    +0.109 C 
ENDBRANCH  10  12
ENDBRANCH   9  10
ENDBRANCH   1   9
TORSDOF 5
ENDMDL
MODEL 5
REMARK VINA RESULT:      -4.4      6.188      7.301
REMARK  Name = 
REMARK  5 active torsions:
REMARK  status: ('A' for Active; 'I' for Inactive)
REMARK    1  A    between atoms: C_2  and  C_3
REMARK    2  A    between atoms: C_3  and  C_4
REMARK    3  A    between atoms: C_4  and  C_5
REMARK    4  A    between atoms: C_5  and  C_7
REMARK    5  A    between atoms: C_5  and  C_10
REMARK                            x       y       z     vdW  Elec       q    Type
REMARK                         _______ _______ _______ _____ _____    ______ ____
ROOT
ATOM      1  C   UNL     1     -12.737  14.741  71.633  0.00  0.00    +0.231 C 
ATOM      2  N   UNL     1     -12.346  13.395  71.309  0.00  0.00    -0.117 NA
ENDROOT
BRANCH   1   3
ATOM      3  C   UNL     1     -11.819  15.325  72.663  0.00  0.00    +0.345 C 
ATOM      4  F   UNL     1     -11.750  16.690  72.648  0.00  0.00    -0.196 F 
ATOM      5  F   UNL     1     -12.226  14.854  73.906  0.00  0.00    -0.196 F 
ENDBRANCH   1   3
BRANCH   1   6
ATOM      6  C   UNL     1     -14.156  14.718  72.058  0.00  0.00    +0.385 C 
ATOM      7  O   UNL     1     -15.088  15.576  71.465  0.00  0.00    -0.244 OA
ATOM      8  O   UNL     1     -14.606  13.590  72.423  0.00  0.00    -0.244 OA
ENDBRANCH   1   6
BRANCH   1   9
ATOM      9  C   UNL     1     -12.634  15.584  70.377  0.00  0.00    +0.036 C 
BRANCH   9  10
ATOM     10  C   UNL     1     -12.000  14.728  69.313  0.00  0.00    +0.023 C 
BRANCH  10  12
ATOM     11  N   UNL     1     -11.176  16.939  68.644  0.00  0.00    -0.131 NA
ATOM     12  C   UNL     1     -11.308  15.552  68.254  0.00  0.00    +0.109 C 
ENDBRANCH  10  12
ENDBRANCH   9  10
ENDBRANCH   1   9
TORSDOF 5
ENDMDL
MODEL 6
REMARK VINA RESULT:      -4.4      2.264      3.500
REMARK  Name = 
REMARK  5 active torsions:
REMARK  status: ('A' for Active; 'I' for Inactive)
REMARK    1  A    between atoms: C_2  and  C_3
REMARK    2  A    between atoms: C_3  and  C_4
REMARK    3  A    between atoms: C_4  and  C_5
REMARK    4  A    between atoms: C_5  and  C_7
REMARK    5  A    between atoms: C_5  and  C_10
REMARK                            x       y       z     vdW  Elec       q    Type
REMARK                         _______ _______ _______ _____ _____    ______ ____
ROOT
ATOM      1  C   UNL     1     -11.291  14.618  65.550  0.00  0.00    +0.231 C 
ATOM      2  N   UNL     1     -10.332  13.725  64.955  0.00  0.00    -0.117 NA
ENDROOT
BRANCH   1   3
ATOM      3  C   UNL     1     -12.176  13.883  66.510  0.00  0.00    +0.345 C 
ATOM      4  F   UNL     1     -12.127  12.522  66.393  0.00  0.00    -0.196 F 
ATOM      5  F   UNL     1     -11.835  14.292  67.794  0.00  0.00    -0.196 F 
ENDBRANCH   1   3
BRANCH   1   6
ATOM      6  C   UNL     1     -12.037  15.285  64.457  0.00  0.00    +0.385 C 
ATOM      7  O   UNL     1     -11.587  16.499  63.929  0.00  0.00    -0.244 OA
ATOM      8  O   UNL     1     -12.622  14.515  63.637  0.00  0.00    -0.244 OA
ENDBRANCH   1   6
BRANCH   1   9
ATOM      9  C   UNL     1     -10.537  15.682  66.324  0.00  0.00    +0.036 C 
BRANCH   9  10
ATOM     10  C   UNL     1      -9.077  15.320  66.278  0.00  0.00    +0.023 C 
BRANCH  10  12
ATOM     11  N   UNL     1      -8.929  17.743  65.934  0.00  0.00    -0.131 NA
ATOM     12  C   UNL     1      -8.187  16.539  66.236  0.00  0.00    +0.109 C 
ENDBRANCH  10  12
ENDBRANCH   9  10
ENDBRANCH   1   9
TORSDOF 5
ENDMDL
MODEL 7
REMARK VINA RESULT:      -4.3      2.764      3.405
REMARK  Name = 
REMARK  5 active torsions:
REMARK  status: ('A' for Active; 'I' for Inactive)
REMARK    1  A    between atoms: C_2  and  C_3
REMARK    2  A    between atoms: C_3  and  C_4
REMARK    3  A    between atoms: C_4  and  C_5
REMARK    4  A    between atoms: C_5  and  C_7
REMARK    5  A    between atoms: C_5  and  C_10
REMARK                            x       y       z     vdW  Elec       q    Type
REMARK                         _______ _______ _______ _____ _____    ______ ____
ROOT
ATOM      1  C   UNL     1     -11.468  13.212  64.692  0.00  0.00    +0.231 C 
ATOM      2  N   UNL     1     -10.158  13.756  64.934  0.00  0.00    -0.117 NA
ENDROOT
BRANCH   1   3
ATOM      3  C   UNL     1     -11.523  12.541  63.353  0.00  0.00    +0.345 C 
ATOM      4  F   UNL     1     -10.360  11.928  62.981  0.00  0.00    -0.196 F 
ATOM      5  F   UNL     1     -12.583  11.641  63.377  0.00  0.00    -0.196 F 
ENDBRANCH   1   3
BRANCH   1   6
ATOM      6  C   UNL     1     -12.455  14.307  64.840  0.00  0.00    +0.385 C 
ATOM      7  O   UNL     1     -12.626  15.250  63.822  0.00  0.00    -0.244 OA
ATOM      8  O   UNL     1     -13.496  14.026  65.508  0.00  0.00    -0.244 OA
ENDBRANCH   1   6
BRANCH   1   9
ATOM      9  C   UNL     1     -11.756  12.169  65.754  0.00  0.00    +0.036 C 
BRANCH   9  10
ATOM     10  C   UNL     1     -10.445  11.817  66.404  0.00  0.00    +0.023 C 
BRANCH  10  12
ATOM     11  N   UNL     1     -12.015  11.120  68.154  0.00  0.00    -0.131 NA
ATOM     12  C   UNL     1     -10.623  11.334  67.824  0.00  0.00    +0.109 C 
ENDBRANCH  10  12
ENDBRANCH   9  10
ENDBRANCH   1   9
TORSDOF 5
ENDMDL
MODEL 8
REMARK VINA RESULT:      -4.3      3.028      3.890
REMARK  Name = 
REMARK  5 active torsions:
REMARK  status: ('A' for Active; 'I' for Inactive)
REMARK    1  A    between atoms: C_2  and  C_3
REMARK    2  A    between atoms: C_3  and  C_4
REMARK    3  A    between atoms: C_4  and  C_5
REMARK    4  A    between atoms: C_5  and  C_7
REMARK    5  A    between atoms: C_5  and  C_10
REMARK                            x       y       z     vdW  Elec       q    Type
REMARK                         _______ _______ _______ _____ _____    ______ ____
ROOT
ATOM      1  C   UNL     1     -11.067  12.687  64.568  0.00  0.00    +0.231 C 
ATOM      2  N   UNL     1     -10.383  13.927  64.827  0.00  0.00    -0.117 NA
ENDROOT
BRANCH   1   3
ATOM      3  C   UNL     1     -10.097  11.621  64.163  0.00  0.00    +0.345 C 
ATOM      4  F   UNL     1     -10.540  10.346  64.370  0.00  0.00    -0.196 F 
ATOM      5  F   UNL     1      -9.773  11.832  62.827  0.00  0.00    -0.196 F 
ENDBRANCH   1   3
BRANCH   1   6
ATOM      6  C   UNL     1     -12.114  12.945  63.552  0.00  0.00    +0.385 C 
ATOM      7  O   UNL     1     -13.001  11.931  63.174  0.00  0.00    -0.244 OA
ATOM      8  O   UNL     1     -12.587  14.121  63.530  0.00  0.00    -0.244 OA
ENDBRANCH   1   6
BRANCH   1   9
ATOM      9  C   UNL     1     -11.750  12.242  65.846  0.00  0.00    +0.036 C 
BRANCH   9  10
ATOM     10  C   UNL     1     -10.813  12.545  66.985  0.00  0.00    +0.023 C 
BRANCH  10  12
ATOM     11  N   UNL     1     -12.075  11.101  68.514  0.00  0.00    -0.131 NA
ATOM     12  C   UNL     1     -11.485  12.410  68.330  0.00  0.00    +0.109 C 
ENDBRANCH  10  12
ENDBRANCH   9  10
ENDBRANCH   1   9
TORSDOF 5
ENDMDL
MODEL 9
REMARK VINA RESULT:      -4.2      2.760      3.504
REMARK  Name = 
REMARK  5 active torsions:
REMARK  status: ('A' for Active; 'I' for Inactive)
REMARK    1  A    between atoms: C_2  and  C_3
REMARK    2  A    between atoms: C_3  and  C_4
REMARK    3  A    between atoms: C_4  and  C_5
REMARK    4  A    between atoms: C_5  and  C_7
REMARK    5  A    between atoms: C_5  and  C_10
REMARK                            x       y       z     vdW  Elec       q    Type
REMARK                         _______ _______ _______ _____ _____    ______ ____
ROOT
ATOM      1  C   UNL     1     -11.857  13.511  64.880  0.00  0.00    +0.231 C 
ATOM      2  N   UNL     1     -13.172  14.027  65.157  0.00  0.00    -0.117 NA
ENDROOT
BRANCH   1   3
ATOM      3  C   UNL     1     -10.861  14.626  64.783  0.00  0.00    +0.345 C 
ATOM      4  F   UNL     1     -11.297  15.818  65.290  0.00  0.00    -0.196 F 
ATOM      5  F   UNL     1      -9.696  14.205  65.414  0.00  0.00    -0.196 F 
ENDBRANCH   1   3
BRANCH   1   6
ATOM      6  C   UNL     1     -11.937  12.688  63.651  0.00  0.00    +0.385 C 
ATOM      7  O   UNL     1     -10.802  12.034  63.160  0.00  0.00    -0.244 OA
ATOM      8  O   UNL     1     -13.039  12.093  63.454  0.00  0.00    -0.244 OA
ENDBRANCH   1   6
BRANCH   1   9
ATOM      9  C   UNL     1     -11.446  12.609  66.026  0.00  0.00    +0.036 C 
BRANCH   9  10
ATOM     10  C   UNL     1     -12.030  13.190  67.286  0.00  0.00    +0.023 C 
BRANCH  10  12
ATOM     11  N   UNL     1     -12.075  10.993  68.373  0.00  0.00    -0.131 NA
ATOM     12  C   UNL     1     -11.676  12.377  68.508  0.00  0.00    +0.109 C 
ENDBRANCH  10  12
ENDBRANCH   9  10
ENDBRANCH   1   9
TORSDOF 5
ENDMDL
